@<TRIPOS>MOLECULE
aspirin_entry_00001_conf_07_protein
14 8 6
SMALL
NO_CHARGES


@<TRIPOS>ATOM
      1 H           7.7453   23.0788   10.7026 H         1 ASN1       -0.0890
      2 N           7.6480   22.5020    9.8990 N.4       1 ASN1        0.3860
      3 H2          8.1671   22.8784    9.1401 H         1 ASN1       -0.0890
      4 H3          6.6894   22.4150    9.6514 H         1 ASN1       -0.0890
      5 HG1         0.4987   19.9868   -2.6155 H        12 THR12       0.2099
      6 OG1         0.8130   20.6350   -3.3170 O.3      12 THR12      -0.3897
      7 HH         22.2604   17.6537   -6.8944 H        28 TYR28       0.2921
      8 OH         22.2670   17.1330   -6.0410 O.3      28 TYR28      -0.5068
      9 HH         11.0551   20.5191    5.7287 H        52 TYR52       0.2921
     10 OH         11.0460   21.3600    5.1880 O.3      52 TYR52      -0.5068
     11 HH         16.4967   15.2104    5.7492 H        64 TYR64       0.2921
     12 OH         15.8460   15.9090    5.4550 O.3      64 TYR64      -0.5068
     13 HG         14.5865   32.6735    5.0320 H        89 SER89       0.2095
     14 OG         13.9740   32.5660    5.8140 O.3      89 SER89      -0.3927
@<TRIPOS>BOND
     1    7    8 1
     2    5    6 1
     3    9   10 1
     4   11   12 1
     5   14   13 1
     6    4    2 1
     7    1    2 1
     8    2    3 1
@<TRIPOS>SUBSTRUCTURE
1 ASN1 1
12 THR12 5
28 TYR28 7
52 TYR52 9
64 TYR64 11
89 SER89 13
@<TRIPOS>COMMENT
