@<TRIPOS>MOLECULE
aspirin_entry_00001_conf_03_protein
14 8 6
SMALL
NO_CHARGES


@<TRIPOS>ATOM
      1 H           8.3563   23.0221    9.4345 H         1 ASN1       -0.0890
      2 N           7.6480   22.5020    9.8990 N.4       1 ASN1        0.3860
      3 H2          6.8538   22.4002    9.3108 H         1 ASN1       -0.0890
      4 H3          7.3926   22.9501   10.7485 H         1 ASN1       -0.0890
      5 HG1         1.4175   21.0665   -2.6392 H        12 THR12       0.2099
      6 OG1         0.8130   20.6350   -3.3170 O.3      12 THR12      -0.3897
      7 HH         22.8271   17.2676   -5.2239 H        28 TYR28       0.2921
      8 OH         22.2670   17.1330   -6.0410 O.3      28 TYR28      -0.5068
      9 HH         10.6619   20.8772    4.4013 H        52 TYR52       0.2921
     10 OH         11.0460   21.3600    5.1880 O.3      52 TYR52      -0.5068
     11 HH         15.1254   15.7793    4.7753 H        64 TYR64       0.2921
     12 OH         15.8460   15.9090    5.4550 O.3      64 TYR64      -0.5068
     13 HG         14.9584   32.5927    5.9829 H        89 SER89       0.2095
     14 OG         13.9740   32.5660    5.8140 O.3      89 SER89      -0.3927
@<TRIPOS>BOND
     1    7    8 1
     2    5    6 1
     3    9   10 1
     4   11   12 1
     5   14   13 1
     6    4    2 1
     7    1    2 1
     8    2    3 1
@<TRIPOS>SUBSTRUCTURE
1 ASN1 1
12 THR12 5
28 TYR28 7
52 TYR52 9
64 TYR64 11
89 SER89 13
@<TRIPOS>COMMENT
