@<TRIPOS>MOLECULE
query molecule
   32    32     1     0     0
SMALL
NO_CHARGE

@<TRIPOS>ATOM
      1 C           7.5901   11.7611   33.1985 C.3       1 MOL     0.0072
      2 C           6.3130   11.9185   32.4276 C.3       1 MOL    -0.0128
      3 C           6.1890   13.3049   31.8808 C.3       1 MOL     0.0072
      4 C           6.2795   10.9070   31.3161 C.3       1 MOL     0.0379
      5 C           4.9039   10.3975   31.0959 C.ar      1 MOL    -0.0471
      6 C           3.9732   10.5636   32.0951 C.ar      1 MOL     0.0037
      7 C           2.6949   10.1103   31.9366 C.ar      1 MOL     0.0044
      8 C           2.3160    9.4805   30.7763 C.ar      1 MOL    -0.0391
      9 C           3.2361    9.3097   29.7718 C.ar      1 MOL     0.0044
     10 C           4.5260    9.7678   29.9346 C.ar      1 MOL     0.0037
     11 C           0.9443    8.9822   30.5792 C.3       1 MOL     0.0614
     12 C           0.6522    7.8988   31.6170 C.3       1 MOL     0.0185
     13 C           0.0221   10.1399   30.7711 C.2       1 MOL     0.0489
     14 O          -0.2419   10.9053   29.8325 O.co2     1 MOL    -0.5492
     15 O          -0.5282   10.3421   32.0044 O.co2     1 MOL    -0.5492
     16 H           7.6184   12.4800   33.9914 H         1 MOL     0.0232
     17 H           8.4230   11.9177   32.5453 H         1 MOL     0.0232
     18 H           7.6388   10.7747   33.6094 H         1 MOL     0.0232
     19 H           5.4843   11.7532   33.0829 H         1 MOL     0.0299
     20 H           7.0066   13.5012   31.2189 H         1 MOL     0.0232
     21 H           6.2062   14.0086   32.6865 H         1 MOL     0.0232
     22 H           5.2671   13.3971   31.3458 H         1 MOL     0.0232
     23 H           6.9188   10.0878   31.5699 H         1 MOL     0.0316
     24 H           6.6131   11.3811   30.4168 H         1 MOL     0.0316
     25 H           4.2437   11.0343   32.9729 H         1 MOL     0.0620
     26 H           2.0078   10.2421   32.6957 H         1 MOL     0.0621
     27 H           2.9626    8.8387   28.8950 H         1 MOL     0.0621
     28 H           5.2151    9.6371   29.1775 H         1 MOL     0.0620
     29 H           0.8169    8.5627   29.6029 H         1 MOL     0.0406
     30 H           0.7759    8.3041   32.5998 H         1 MOL     0.0239
     31 H           1.3308    7.0827   31.4799 H         1 MOL     0.0239
     32 H          -0.3524    7.5518   31.4969 H         1 MOL     0.0239
@<TRIPOS>BOND
     1    1    2 1 
     2    1   16 1 
     3    1   17 1 
     4    1   18 1 
     5    2    3 1 
     6    2    4 1 
     7    2   19 1 
     8    3   20 1 
     9    3   21 1 
    10    3   22 1 
    11    4    5 1 
    12    4   23 1 
    13    4   24 1 
    14    5    6 ar
    15    5   10 ar
    16    6    7 ar
    17    6   25 1 
    18    7    8 ar
    19    7   26 1 
    20    8    9 ar
    21    8   11 1 
    22    9   10 ar
    23    9   27 1 
    24   10   28 1 
    25   11   12 1 
    26   11   13 1 
    27   11   29 1 
    28   12   30 1 
    29   12   31 1 
    30   12   32 1 
    31   13   14 ar
    32   13   15 ar
@<TRIPOS>SUBSTRUCTURE
1 MOL         1
@<TRIPOS>MOLECULE
query molecule
   32    32     1     0     0
SMALL
NO_CHARGE

@<TRIPOS>ATOM
      1 C          17.2768   23.2884   19.0008 C.3       1 MOL     0.0072
      2 C          16.5041   22.5239   17.9670 C.3       1 MOL    -0.0128
      3 C          17.1638   22.6232   16.6286 C.3       1 MOL     0.0072
      4 C          16.3926   21.0876   18.3961 C.3       1 MOL     0.0379
      5 C          17.7123   20.4117   18.3554 C.ar      1 MOL    -0.0471
      6 C          18.0872   19.7702   17.1976 C.ar      1 MOL     0.0037
      7 C          19.2928   19.1344   17.1146 C.ar      1 MOL     0.0044
      8 C          20.1525   19.1242   18.1858 C.ar      1 MOL    -0.0391
      9 C          19.7894   19.7616   19.3462 C.ar      1 MOL     0.0044
     10 C          18.5715   20.4024   19.4276 C.ar      1 MOL     0.0037
     11 C          21.4583   18.4464   18.1231 C.3       1 MOL     0.0614
     12 C          22.5256   19.3613   18.7231 C.3       1 MOL     0.0185
     13 C          21.3445   17.1936   18.9263 C.2       1 MOL     0.0489
     14 O          21.3918   16.0816   18.3807 O.co2     1 MOL    -0.5492
     15 O          21.1867   17.2944   20.2790 O.co2     1 MOL    -0.5492
     16 H          17.3589   24.3124   18.6990 H         1 MOL     0.0232
     17 H          18.2549   22.8663   19.0998 H         1 MOL     0.0232
     18 H          16.7670   23.2329   19.9395 H         1 MOL     0.0232
     19 H          15.5250   22.9447   17.8778 H         1 MOL     0.0299
     20 H          18.1489   22.2088   16.6854 H         1 MOL     0.0232
     21 H          17.2260   23.6507   16.3372 H         1 MOL     0.0232
     22 H          16.5902   22.0813   15.9062 H         1 MOL     0.0232
     23 H          15.7190   20.5783   17.7397 H         1 MOL     0.0316
     24 H          16.0300   21.0622   19.4024 H         1 MOL     0.0316
     25 H          17.4513   19.7688   16.3847 H         1 MOL     0.0620
     26 H          19.5600   18.6571   16.2390 H         1 MOL     0.0621
     27 H          20.4275   19.7615   20.1574 H         1 MOL     0.0621
     28 H          18.3018   20.8800   20.3017 H         1 MOL     0.0620
     29 H          21.7325   18.2180   17.1142 H         1 MOL     0.0406
     30 H          22.2645   19.5988   19.7333 H         1 MOL     0.0239
     31 H          22.5852   20.2625   18.1489 H         1 MOL     0.0239
     32 H          23.4724   18.8637   18.7056 H         1 MOL     0.0239
@<TRIPOS>BOND
     1    1    2 1 
     2    1   16 1 
     3    1   17 1 
     4    1   18 1 
     5    2    3 1 
     6    2    4 1 
     7    2   19 1 
     8    3   20 1 
     9    3   21 1 
    10    3   22 1 
    11    4    5 1 
    12    4   23 1 
    13    4   24 1 
    14    5    6 ar
    15    5   10 ar
    16    6    7 ar
    17    6   25 1 
    18    7    8 ar
    19    7   26 1 
    20    8    9 ar
    21    8   11 1 
    22    9   10 ar
    23    9   27 1 
    24   10   28 1 
    25   11   12 1 
    26   11   13 1 
    27   11   29 1 
    28   12   30 1 
    29   12   31 1 
    30   12   32 1 
    31   13   14 ar
    32   13   15 ar
@<TRIPOS>SUBSTRUCTURE
1 MOL         1
@<TRIPOS>MOLECULE
query molecule
   32    32     1     0     0
SMALL
NO_CHARGE

@<TRIPOS>ATOM
      1 C          -3.3577   -2.0690    6.6683 C.3       1 MOL     0.0072
      2 C          -4.5431   -1.2512    6.2485 C.3       1 MOL    -0.0128
      3 C          -5.7449   -2.1189    6.0510 C.3       1 MOL     0.0072
      4 C          -4.8137   -0.2027    7.2911 C.3       1 MOL     0.0379
      5 C          -4.9075   -0.8033    8.6441 C.ar      1 MOL    -0.0471
      6 C          -6.1170   -1.3141    9.0545 C.ar      1 MOL     0.0037
      7 C          -6.2502   -1.8762   10.2918 C.ar      1 MOL     0.0044
      8 C          -5.1785   -1.9415   11.1484 C.ar      1 MOL    -0.0391
      9 C          -3.9663   -1.4356   10.7495 C.ar      1 MOL     0.0044
     10 C          -3.8346   -0.8683    9.5000 C.ar      1 MOL     0.0037
     11 C          -5.2945   -2.5423   12.4879 C.3       1 MOL     0.0614
     12 C          -4.5715   -3.8890   12.4959 C.3       1 MOL     0.0185
     13 C          -4.6451   -1.6045   13.4502 C.2       1 MOL     0.0489
     14 O          -3.8325   -2.0171   14.2905 O.co2     1 MOL    -0.5492
     15 O          -4.9631   -0.2779   13.3886 O.co2     1 MOL    -0.5492
     16 H          -3.1613   -2.8176    5.9284 H         1 MOL     0.0232
     17 H          -3.5634   -2.5403    7.6065 H         1 MOL     0.0232
     18 H          -2.5035   -1.4328    6.7676 H         1 MOL     0.0232
     19 H          -4.3293   -0.7762    5.3146 H         1 MOL     0.0299
     20 H          -5.9851   -2.6098    6.9712 H         1 MOL     0.0232
     21 H          -5.5358   -2.8520    5.3004 H         1 MOL     0.0232
     22 H          -6.5734   -1.5171    5.7412 H         1 MOL     0.0232
     23 H          -5.7363    0.2877    7.0620 H         1 MOL     0.0316
     24 H          -4.0037    0.4964    7.2862 H         1 MOL     0.0316
     25 H          -6.9314   -1.2714    8.4219 H         1 MOL     0.0620
     26 H          -7.1645   -2.2551   10.5856 H         1 MOL     0.0621
     27 H          -3.1535   -1.4799   11.3842 H         1 MOL     0.0621
     28 H          -2.9218   -0.4885    9.2038 H         1 MOL     0.0620
     29 H          -6.3177   -2.7027   12.7574 H         1 MOL     0.0406
     30 H          -3.5457   -3.7444   12.2276 H         1 MOL     0.0239
     31 H          -5.0355   -4.5460   11.7898 H         1 MOL     0.0239
     32 H          -4.6286   -4.3183   13.4740 H         1 MOL     0.0239
@<TRIPOS>BOND
     1    1    2 1 
     2    1   16 1 
     3    1   17 1 
     4    1   18 1 
     5    2    3 1 
     6    2    4 1 
     7    2   19 1 
     8    3   20 1 
     9    3   21 1 
    10    3   22 1 
    11    4    5 1 
    12    4   23 1 
    13    4   24 1 
    14    5    6 ar
    15    5   10 ar
    16    6    7 ar
    17    6   25 1 
    18    7    8 ar
    19    7   26 1 
    20    8    9 ar
    21    8   11 1 
    22    9   10 ar
    23    9   27 1 
    24   10   28 1 
    25   11   12 1 
    26   11   13 1 
    27   11   29 1 
    28   12   30 1 
    29   12   31 1 
    30   12   32 1 
    31   13   14 ar
    32   13   15 ar
@<TRIPOS>SUBSTRUCTURE
1 MOL         1
@<TRIPOS>MOLECULE
query molecule
   32    32     1     0     0
SMALL
NO_CHARGE

@<TRIPOS>ATOM
      1 C          20.6579   -7.2641   32.9172 C.3       1 MOL     0.0072
      2 C          19.9545   -6.5449   31.8045 C.3       1 MOL    -0.0128
      3 C          18.5660   -6.1656   32.2103 C.3       1 MOL     0.0072
      4 C          20.7468   -5.3246   31.4268 C.3       1 MOL     0.0379
      5 C          20.7076   -5.0918   29.9624 C.ar      1 MOL    -0.0471
      6 C          20.7478   -6.1802   29.1221 C.ar      1 MOL     0.0037
      7 C          20.7144   -6.0137   27.7672 C.ar      1 MOL     0.0044
      8 C          20.6399   -4.7563   27.2195 C.ar      1 MOL    -0.0391
      9 C          20.5986   -3.6626   28.0482 C.ar      1 MOL     0.0044
     10 C          20.6329   -3.8334   29.4157 C.ar      1 MOL     0.0037
     11 C          20.6024   -4.5485   25.7621 C.3       1 MOL     0.0614
     12 C          20.8841   -3.0770   25.4597 C.3       1 MOL     0.0185
     13 C          21.6664   -5.4086   25.1659 C.2       1 MOL     0.0489
     14 O          21.4946   -5.9673   24.0728 O.co2     1 MOL    -0.5492
     15 O          22.8379   -5.5701   25.8487 O.co2     1 MOL    -0.5492
     16 H          20.0968   -8.1342   33.1898 H         1 MOL     0.0232
     17 H          20.7434   -6.6153   33.7637 H         1 MOL     0.0232
     18 H          21.6338   -7.5565   32.5912 H         1 MOL     0.0232
     19 H          19.8789   -7.1948   30.9586 H         1 MOL     0.0299
     20 H          18.6081   -5.5131   33.0575 H         1 MOL     0.0232
     21 H          18.0163   -7.0469   32.4667 H         1 MOL     0.0232
     22 H          18.0804   -5.6654   31.3988 H         1 MOL     0.0232
     23 H          21.7631   -5.4598   31.7318 H         1 MOL     0.0316
     24 H          20.3158   -4.4764   31.9163 H         1 MOL     0.0316
     25 H          20.8046   -7.1312   29.5192 H         1 MOL     0.0620
     26 H          20.7456   -6.8404   27.1495 H         1 MOL     0.0621
     27 H          20.5417   -2.7128   27.6482 H         1 MOL     0.0621
     28 H          20.6022   -3.0088   30.0356 H         1 MOL     0.0620
     29 H          19.6461   -4.8035   25.3551 H         1 MOL     0.0406
     30 H          21.8385   -2.8069   25.8616 H         1 MOL     0.0239
     31 H          20.1244   -2.4702   25.9070 H         1 MOL     0.0239
     32 H          20.8854   -2.9246   24.4010 H         1 MOL     0.0239
@<TRIPOS>BOND
     1    1    2 1 
     2    1   16 1 
     3    1   17 1 
     4    1   18 1 
     5    2    3 1 
     6    2    4 1 
     7    2   19 1 
     8    3   20 1 
     9    3   21 1 
    10    3   22 1 
    11    4    5 1 
    12    4   23 1 
    13    4   24 1 
    14    5    6 ar
    15    5   10 ar
    16    6    7 ar
    17    6   25 1 
    18    7    8 ar
    19    7   26 1 
    20    8    9 ar
    21    8   11 1 
    22    9   10 ar
    23    9   27 1 
    24   10   28 1 
    25   11   12 1 
    26   11   13 1 
    27   11   29 1 
    28   12   30 1 
    29   12   31 1 
    30   12   32 1 
    31   13   14 ar
    32   13   15 ar
@<TRIPOS>SUBSTRUCTURE
1 MOL         1
@<TRIPOS>MOLECULE
query molecule
   32    32     1     0     0
SMALL
NO_CHARGE

@<TRIPOS>ATOM
      1 C          -3.3896   12.0536   25.6163 C.3       1 MOL     0.0072
      2 C          -3.6387   11.5303   26.9998 C.3       1 MOL    -0.0128
      3 C          -4.6130   12.3988   27.7297 C.3       1 MOL     0.0072
      4 C          -4.1520   10.1204   26.9093 C.3       1 MOL     0.0379
      5 C          -3.6822    9.3040   28.0552 C.ar      1 MOL    -0.0471
      6 C          -3.5318    7.9480   27.8788 C.ar      1 MOL     0.0037
      7 C          -3.1022    7.1571   28.9058 C.ar      1 MOL     0.0044
      8 C          -2.8126    7.7017   30.1330 C.ar      1 MOL    -0.0391
      9 C          -2.9584    9.0538   30.3206 C.ar      1 MOL     0.0044
     10 C          -3.3927    9.8500   29.2824 C.ar      1 MOL     0.0037
     11 C          -2.3477    6.8719   31.2572 C.3       1 MOL     0.0614
     12 C          -2.5444    7.6427   32.5622 C.3       1 MOL     0.0185
     13 C          -3.1772    5.6312   31.2629 C.2       1 MOL     0.0489
     14 O          -2.6752    4.5290   30.9992 O.co2     1 MOL    -0.5492
     15 O          -4.5052    5.7320   31.5651 O.co2     1 MOL    -0.5492
     16 H          -3.0239   13.0582   25.6759 H         1 MOL     0.0232
     17 H          -4.3031   12.0391   25.0593 H         1 MOL     0.0232
     18 H          -2.6637   11.4380   25.1281 H         1 MOL     0.0232
     19 H          -2.7214   11.5394   27.5494 H         1 MOL     0.0299
     20 H          -5.5444   12.4102   27.2028 H         1 MOL     0.0232
     21 H          -4.2265   13.3945   27.7912 H         1 MOL     0.0232
     22 H          -4.7661   12.0137   28.7161 H         1 MOL     0.0232
     23 H          -3.8026    9.6791   25.9997 H         1 MOL     0.0316
     24 H          -5.2215   10.1476   26.9287 H         1 MOL     0.0316
     25 H          -3.7463    7.5245   26.9624 H         1 MOL     0.0620
     26 H          -2.9945    6.1410   28.7581 H         1 MOL     0.0621
     27 H          -2.7429    9.4746   31.2381 H         1 MOL     0.0621
     28 H          -3.5016   10.8660   29.4273 H         1 MOL     0.0620
     29 H          -1.3108    6.6259   31.1591 H         1 MOL     0.0406
     30 H          -3.5781    7.8963   32.6741 H         1 MOL     0.0239
     31 H          -1.9584    8.5380   32.5384 H         1 MOL     0.0239
     32 H          -2.2339    7.0347   33.3857 H         1 MOL     0.0239
@<TRIPOS>BOND
     1    1    2 1 
     2    1   16 1 
     3    1   17 1 
     4    1   18 1 
     5    2    3 1 
     6    2    4 1 
     7    2   19 1 
     8    3   20 1 
     9    3   21 1 
    10    3   22 1 
    11    4    5 1 
    12    4   23 1 
    13    4   24 1 
    14    5    6 ar
    15    5   10 ar
    16    6    7 ar
    17    6   25 1 
    18    7    8 ar
    19    7   26 1 
    20    8    9 ar
    21    8   11 1 
    22    9   10 ar
    23    9   27 1 
    24   10   28 1 
    25   11   12 1 
    26   11   13 1 
    27   11   29 1 
    28   12   30 1 
    29   12   31 1 
    30   12   32 1 
    31   13   14 ar
    32   13   15 ar
@<TRIPOS>SUBSTRUCTURE
1 MOL         1
@<TRIPOS>MOLECULE
query molecule
   32    32     1     0     0
SMALL
NO_CHARGE

@<TRIPOS>ATOM
      1 C           6.8111   14.2994   30.5572 C.3       1 MOL     0.0072
      2 C           7.7952   14.1355   31.6774 C.3       1 MOL    -0.0128
      3 C           7.4213   14.9933   32.8439 C.3       1 MOL     0.0072
      4 C           7.8476   12.6884   32.0807 C.3       1 MOL     0.0379
      5 C           6.5004   12.0695   32.0342 C.ar      1 MOL    -0.0471
      6 C           5.5764   12.4333   32.9862 C.ar      1 MOL     0.0037
      7 C           4.3239   11.8892   32.9825 C.ar      1 MOL     0.0044
      8 C           3.9647   10.9692   32.0281 C.ar      1 MOL    -0.0391
      9 C           4.8783   10.5989   31.0726 C.ar      1 MOL     0.0044
     10 C           6.1422   11.1493   31.0788 C.ar      1 MOL     0.0037
     11 C           2.6210   10.3671   32.0011 C.3       1 MOL     0.0614
     12 C           2.1803   10.1934   30.5479 C.3       1 MOL     0.0185
     13 C           2.7196    9.0370   32.6709 C.2       1 MOL     0.0489
     14 O           1.8177    8.6332   33.4192 O.co2     1 MOL    -0.5492
     15 O           3.8258    8.2692   32.4439 O.co2     1 MOL    -0.5492
     16 H           6.7703   15.3292   30.2667 H         1 MOL     0.0232
     17 H           5.8427   13.9824   30.8836 H         1 MOL     0.0232
     18 H           7.1192   13.7053   29.7228 H         1 MOL     0.0232
     19 H           8.7626   14.4461   31.3435 H         1 MOL     0.0299
     20 H           6.4547   14.7059   33.2021 H         1 MOL     0.0232
     21 H           7.3978   16.0186   32.5393 H         1 MOL     0.0232
     22 H           8.1422   14.8692   33.6246 H         1 MOL     0.0232
     23 H           8.2305   12.6171   33.0770 H         1 MOL     0.0316
     24 H           8.4830   12.1686   31.3945 H         1 MOL     0.0316
     25 H           5.8322   13.1230   33.7101 H         1 MOL     0.0620
     26 H           3.6415   12.1721   33.7037 H         1 MOL     0.0621
     27 H           4.6195    9.9091   30.3498 H         1 MOL     0.0621
     28 H           6.8265   10.8682   30.3592 H         1 MOL     0.0620
     29 H           1.9055   10.9846   32.5032 H         1 MOL     0.0406
     30 H           2.8874    9.5774   30.0322 H         1 MOL     0.0239
     31 H           2.1304   11.1519   30.0743 H         1 MOL     0.0239
     32 H           1.2161    9.7312   30.5207 H         1 MOL     0.0239
@<TRIPOS>BOND
     1    1    2 1 
     2    1   16 1 
     3    1   17 1 
     4    1   18 1 
     5    2    3 1 
     6    2    4 1 
     7    2   19 1 
     8    3   20 1 
     9    3   21 1 
    10    3   22 1 
    11    4    5 1 
    12    4   23 1 
    13    4   24 1 
    14    5    6 ar
    15    5   10 ar
    16    6    7 ar
    17    6   25 1 
    18    7    8 ar
    19    7   26 1 
    20    8    9 ar
    21    8   11 1 
    22    9   10 ar
    23    9   27 1 
    24   10   28 1 
    25   11   12 1 
    26   11   13 1 
    27   11   29 1 
    28   12   30 1 
    29   12   31 1 
    30   12   32 1 
    31   13   14 ar
    32   13   15 ar
@<TRIPOS>SUBSTRUCTURE
1 MOL         1
@<TRIPOS>MOLECULE
query molecule
   32    32     1     0     0
SMALL
NO_CHARGE

@<TRIPOS>ATOM
      1 C           5.1836   -3.0827    1.4349 C.3       1 MOL     0.0072
      2 C           4.9613   -4.4167    0.7861 C.3       1 MOL    -0.0128
      3 C           6.2115   -5.2369    0.8140 C.3       1 MOL     0.0072
      4 C           3.8448   -5.1307    1.4953 C.3       1 MOL     0.0379
      5 C           2.5515   -4.9313    0.7969 C.ar      1 MOL    -0.0471
      6 C           1.5354   -4.2885    1.4652 C.ar      1 MOL     0.0037
      7 C           0.3277   -4.0830    0.8619 C.ar      1 MOL     0.0044
      8 C           0.1064   -4.5147   -0.4231 C.ar      1 MOL    -0.0391
      9 C           1.1132   -5.1569   -1.1002 C.ar      1 MOL     0.0044
     10 C           2.3313   -5.3634   -0.4887 C.ar      1 MOL     0.0037
     11 C          -1.1862   -4.3061   -1.0972 C.3       1 MOL     0.0614
     12 C          -1.6553   -2.8732   -0.8461 C.3       1 MOL     0.0185
     13 C          -0.9636   -4.5257   -2.5566 C.2       1 MOL     0.0489
     14 O          -1.8914   -4.3955   -3.3683 O.co2     1 MOL    -0.5492
     15 O           0.2857   -4.8742   -2.9840 O.co2     1 MOL    -0.5492
     16 H           5.9786   -2.5704    0.9329 H         1 MOL     0.0232
     17 H           5.4442   -3.2248    2.4629 H         1 MOL     0.0232
     18 H           4.2879   -2.5016    1.3704 H         1 MOL     0.0232
     19 H           4.6935   -4.2688   -0.2386 H         1 MOL     0.0299
     20 H           6.5061   -5.4028    1.8293 H         1 MOL     0.0232
     21 H           6.9907   -4.7165    0.2976 H         1 MOL     0.0232
     22 H           6.0328   -6.1774    0.3364 H         1 MOL     0.0232
     23 H           3.7653   -4.7515    2.4924 H         1 MOL     0.0316
     24 H           4.0657   -6.1776    1.5066 H         1 MOL     0.0316
     25 H           1.6868   -3.9592    2.4316 H         1 MOL     0.0620
     26 H          -0.4253   -3.5992    1.3765 H         1 MOL     0.0621
     27 H           0.9589   -5.4849   -2.0666 H         1 MOL     0.0621
     28 H           3.0857   -5.8470   -1.0007 H         1 MOL     0.0620
     29 H          -1.9325   -4.9789   -0.7291 H         1 MOL     0.0406
     30 H          -0.9179   -2.1879   -1.2092 H         1 MOL     0.0239
     31 H          -1.7944   -2.7235    0.2045 H         1 MOL     0.0239
     32 H          -2.5807   -2.7066   -1.3560 H         1 MOL     0.0239
@<TRIPOS>BOND
     1    1    2 1 
     2    1   16 1 
     3    1   17 1 
     4    1   18 1 
     5    2    3 1 
     6    2    4 1 
     7    2   19 1 
     8    3   20 1 
     9    3   21 1 
    10    3   22 1 
    11    4    5 1 
    12    4   23 1 
    13    4   24 1 
    14    5    6 ar
    15    5   10 ar
    16    6    7 ar
    17    6   25 1 
    18    7    8 ar
    19    7   26 1 
    20    8    9 ar
    21    8   11 1 
    22    9   10 ar
    23    9   27 1 
    24   10   28 1 
    25   11   12 1 
    26   11   13 1 
    27   11   29 1 
    28   12   30 1 
    29   12   31 1 
    30   12   32 1 
    31   13   14 ar
    32   13   15 ar
@<TRIPOS>SUBSTRUCTURE
1 MOL         1
@<TRIPOS>MOLECULE
query molecule
   32    32     1     0     0
SMALL
NO_CHARGE

@<TRIPOS>ATOM
      1 C          -1.7220   27.7775   26.5630 C.3       1 MOL     0.0072
      2 C          -3.1090   27.2558   26.7954 C.3       1 MOL    -0.0128
      3 C          -3.4648   26.2189   25.7783 C.3       1 MOL     0.0072
      4 C          -3.1960   26.6862   28.1838 C.3       1 MOL     0.0379
      5 C          -3.7559   25.3127   28.1659 C.ar      1 MOL    -0.0471
      6 C          -5.1201   25.1575   28.2507 C.ar      1 MOL     0.0037
      7 C          -5.6799   23.9120   28.2382 C.ar      1 MOL     0.0044
      8 C          -4.8905   22.7923   28.1407 C.ar      1 MOL    -0.0391
      9 C          -3.5278   22.9349   28.0549 C.ar      1 MOL     0.0044
     10 C          -2.9652   24.1934   28.0681 C.ar      1 MOL     0.0037
     11 C          -5.4681   21.4378   28.1249 C.3       1 MOL     0.0614
     12 C          -6.3384   21.2511   29.3675 C.3       1 MOL     0.0185
     13 C          -6.3020   21.3276   26.8921 C.2       1 MOL     0.0489
     14 O          -5.8469   20.8134   25.8601 O.co2     1 MOL    -0.5492
     15 O          -7.5810   21.8055   26.9209 O.co2     1 MOL    -0.5492
     16 H          -1.6553   28.1842   25.5748 H         1 MOL     0.0232
     17 H          -1.0179   26.9788   26.6681 H         1 MOL     0.0232
     18 H          -1.5045   28.5420   27.2788 H         1 MOL     0.0232
     19 H          -3.8077   28.0594   26.6971 H         1 MOL     0.0299
     20 H          -2.7814   25.3986   25.8517 H         1 MOL     0.0232
     21 H          -3.4055   26.6452   24.7989 H         1 MOL     0.0232
     22 H          -4.4605   25.8703   25.9563 H         1 MOL     0.0232
     23 H          -3.8262   27.3125   28.7794 H         1 MOL     0.0316
     24 H          -2.2091   26.6443   28.5949 H         1 MOL     0.0316
     25 H          -5.7260   25.9898   28.3252 H         1 MOL     0.0620
     26 H          -6.7054   23.8117   28.3029 H         1 MOL     0.0621
     27 H          -2.9245   22.1008   27.9802 H         1 MOL     0.0621
     28 H          -1.9403   24.2966   28.0039 H         1 MOL     0.0620
     29 H          -4.7053   20.6871   28.1267 H         1 MOL     0.0406
     30 H          -7.1067   21.9960   29.3797 H         1 MOL     0.0239
     31 H          -5.7325   21.3496   30.2442 H         1 MOL     0.0239
     32 H          -6.7831   20.2785   29.3484 H         1 MOL     0.0239
@<TRIPOS>BOND
     1    1    2 1 
     2    1   16 1 
     3    1   17 1 
     4    1   18 1 
     5    2    3 1 
     6    2    4 1 
     7    2   19 1 
     8    3   20 1 
     9    3   21 1 
    10    3   22 1 
    11    4    5 1 
    12    4   23 1 
    13    4   24 1 
    14    5    6 ar
    15    5   10 ar
    16    6    7 ar
    17    6   25 1 
    18    7    8 ar
    19    7   26 1 
    20    8    9 ar
    21    8   11 1 
    22    9   10 ar
    23    9   27 1 
    24   10   28 1 
    25   11   12 1 
    26   11   13 1 
    27   11   29 1 
    28   12   30 1 
    29   12   31 1 
    30   12   32 1 
    31   13   14 ar
    32   13   15 ar
@<TRIPOS>SUBSTRUCTURE
1 MOL         1
@<TRIPOS>MOLECULE
query molecule
   32    32     1     0     0
SMALL
NO_CHARGE

@<TRIPOS>ATOM
      1 C           3.9691   17.0095   34.7763 C.3       1 MOL     0.0072
      2 C           5.3302   16.9029   34.1549 C.3       1 MOL    -0.0128
      3 C           5.9735   18.2487   34.0489 C.3       1 MOL     0.0072
      4 C           6.1781   15.9751   34.9795 C.3       1 MOL     0.0379
      5 C           5.8503   14.5562   34.6979 C.ar      1 MOL    -0.0471
      6 C           6.4400   13.9475   33.6144 C.ar      1 MOL     0.0037
      7 C           6.1677   12.6429   33.3167 C.ar      1 MOL     0.0044
      8 C           5.3000   11.9155   34.0942 C.ar      1 MOL    -0.0391
      9 C           4.7060   12.5122   35.1785 C.ar      1 MOL     0.0044
     10 C           4.9823   13.8295   35.4766 C.ar      1 MOL     0.0037
     11 C           4.9888   10.5074   33.7958 C.3       1 MOL     0.0614
     12 C           5.0749    9.6923   35.0859 C.3       1 MOL     0.0185
     13 C           3.5986   10.4676   33.2544 C.2       1 MOL     0.0489
     14 O           3.2184   11.2976   32.4160 O.co2     1 MOL    -0.5492
     15 O           2.7488    9.4963   33.7010 O.co2     1 MOL    -0.5492
     16 H           3.3615   17.6698   34.1922 H         1 MOL     0.0232
     17 H           4.0598   17.3943   35.7706 H         1 MOL     0.0232
     18 H           3.5153   16.0414   34.8080 H         1 MOL     0.0232
     19 H           5.2346   16.5104   33.1647 H         1 MOL     0.0299
     20 H           6.0834   18.6691   35.0269 H         1 MOL     0.0232
     21 H           5.3603   18.8909   33.4522 H         1 MOL     0.0232
     22 H           6.9364   18.1498   33.5931 H         1 MOL     0.0232
     23 H           6.0065   16.1740   36.0165 H         1 MOL     0.0316
     24 H           7.2047   16.1419   34.7285 H         1 MOL     0.0316
     25 H           7.0936   14.4818   33.0205 H         1 MOL     0.0620
     26 H           6.6179   12.2000   32.5000 H         1 MOL     0.0621
     27 H           4.0529   11.9753   35.7707 H         1 MOL     0.0621
     28 H           4.5334   14.2748   36.2922 H         1 MOL     0.0620
     29 H           5.6765   10.0967   33.0861 H         1 MOL     0.0406
     30 H           4.3919   10.0920   35.8063 H         1 MOL     0.0239
     31 H           6.0714    9.7431   35.4729 H         1 MOL     0.0239
     32 H           4.8231    8.6731   34.8810 H         1 MOL     0.0239
@<TRIPOS>BOND
     1    1    2 1 
     2    1   16 1 
     3    1   17 1 
     4    1   18 1 
     5    2    3 1 
     6    2    4 1 
     7    2   19 1 
     8    3   20 1 
     9    3   21 1 
    10    3   22 1 
    11    4    5 1 
    12    4   23 1 
    13    4   24 1 
    14    5    6 ar
    15    5   10 ar
    16    6    7 ar
    17    6   25 1 
    18    7    8 ar
    19    7   26 1 
    20    8    9 ar
    21    8   11 1 
    22    9   10 ar
    23    9   27 1 
    24   10   28 1 
    25   11   12 1 
    26   11   13 1 
    27   11   29 1 
    28   12   30 1 
    29   12   31 1 
    30   12   32 1 
    31   13   14 ar
    32   13   15 ar
@<TRIPOS>SUBSTRUCTURE
1 MOL         1
@<TRIPOS>MOLECULE
query molecule
   32    32     1     0     0
SMALL
NO_CHARGE

@<TRIPOS>ATOM
      1 C           1.5478   -2.8642    0.6960 C.3       1 MOL     0.0072
      2 C           1.5857   -2.4916   -0.7565 C.3       1 MOL    -0.0128
      3 C           1.1340   -1.0800   -0.9556 C.3       1 MOL     0.0072
      4 C           2.9832   -2.6779   -1.2776 C.3       1 MOL     0.0379
      5 C           3.2052   -4.0728   -1.7307 C.ar      1 MOL    -0.0471
      6 C           2.1109   -4.8837   -1.9235 C.ar      1 MOL     0.0037
      7 C           2.2674   -6.1748   -2.3398 C.ar      1 MOL     0.0044
      8 C           3.5205   -6.6865   -2.5732 C.ar      1 MOL    -0.0391
      9 C           4.6200   -5.8864   -2.3847 C.ar      1 MOL     0.0044
     10 C           4.4593   -4.5834   -1.9640 C.ar      1 MOL     0.0037
     11 C           3.7176   -8.0750   -3.0225 C.3       1 MOL     0.0614
     12 C           2.7981   -8.9952   -2.2202 C.3       1 MOL     0.0185
     13 C           3.3593   -8.1256   -4.4705 C.2       1 MOL     0.0489
     14 O           3.0723   -9.2002   -5.0176 O.co2     1 MOL    -0.5492
     15 O           3.3531   -6.9620   -5.1853 O.co2     1 MOL    -0.5492
     16 H           0.5538   -2.7328    1.0717 H         1 MOL     0.0232
     17 H           2.2213   -2.2380    1.2429 H         1 MOL     0.0232
     18 H           1.8395   -3.8871    0.8090 H         1 MOL     0.0232
     19 H           0.9170   -3.1255   -1.2994 H         1 MOL     0.0299
     20 H           1.7855   -0.4190   -0.4228 H         1 MOL     0.0232
     21 H           0.1357   -0.9698   -0.5869 H         1 MOL     0.0232
     22 H           1.1580   -0.8405   -1.9980 H         1 MOL     0.0232
     23 H           3.6799   -2.4486   -0.4989 H         1 MOL     0.0316
     24 H           3.1229   -2.0242   -2.1130 H         1 MOL     0.0316
     25 H           1.1631   -4.5132   -1.7514 H         1 MOL     0.0620
     26 H           1.4365   -6.7712   -2.4799 H         1 MOL     0.0621
     27 H           5.5667   -6.2595   -2.5578 H         1 MOL     0.0621
     28 H           5.2883   -3.9851   -1.8229 H         1 MOL     0.0620
     29 H           4.7292   -8.3930   -2.8781 H         1 MOL     0.0406
     30 H           1.7816   -8.6888   -2.3548 H         1 MOL     0.0239
     31 H           3.0536   -8.9366   -1.1825 H         1 MOL     0.0239
     32 H           2.9164  -10.0023   -2.5607 H         1 MOL     0.0239
@<TRIPOS>BOND
     1    1    2 1 
     2    1   16 1 
     3    1   17 1 
     4    1   18 1 
     5    2    3 1 
     6    2    4 1 
     7    2   19 1 
     8    3   20 1 
     9    3   21 1 
    10    3   22 1 
    11    4    5 1 
    12    4   23 1 
    13    4   24 1 
    14    5    6 ar
    15    5   10 ar
    16    6    7 ar
    17    6   25 1 
    18    7    8 ar
    19    7   26 1 
    20    8    9 ar
    21    8   11 1 
    22    9   10 ar
    23    9   27 1 
    24   10   28 1 
    25   11   12 1 
    26   11   13 1 
    27   11   29 1 
    28   12   30 1 
    29   12   31 1 
    30   12   32 1 
    31   13   14 ar
    32   13   15 ar
@<TRIPOS>SUBSTRUCTURE
1 MOL         1
@<TRIPOS>MOLECULE
query molecule
   32    32     1     0     0
SMALL
NO_CHARGE

@<TRIPOS>ATOM
      1 C           4.1465   14.2075   30.5041 C.3       1 MOL     0.0072
      2 C           5.1541   14.3759   31.6025 C.3       1 MOL    -0.0128
      3 C           6.1550   15.4295   31.2494 C.3       1 MOL     0.0072
      4 C           4.4403   14.7308   32.8770 C.3       1 MOL     0.0379
      5 C           4.3355   13.5569   33.7777 C.ar      1 MOL    -0.0471
      6 C           5.2802   13.3993   34.7652 C.ar      1 MOL     0.0037
      7 C           5.2236   12.3337   35.6173 C.ar      1 MOL     0.0044
      8 C           4.2223   11.4005   35.5033 C.ar      1 MOL    -0.0391
      9 C           3.2736   11.5478   34.5220 C.ar      1 MOL     0.0044
     10 C           3.3332   12.6242   33.6628 C.ar      1 MOL     0.0037
     11 C           4.1377   10.2422   36.4088 C.3       1 MOL     0.0614
     12 C           2.7232   10.1581   36.9818 C.3       1 MOL     0.0185
     13 C           4.4372    9.0253   35.5983 C.2       1 MOL     0.0489
     14 O           4.9329    9.1211   34.4662 O.co2     1 MOL    -0.5492
     15 O           4.1542    7.7989   36.1281 O.co2     1 MOL    -0.5492
     16 H           4.6507   13.9548   29.5939 H         1 MOL     0.0232
     17 H           3.6074   15.1221   30.3710 H         1 MOL     0.0232
     18 H           3.4646   13.4252   30.7633 H         1 MOL     0.0232
     19 H           5.6844   13.4570   31.7368 H         1 MOL     0.0299
     20 H           5.6535   16.3643   31.1082 H         1 MOL     0.0232
     21 H           6.6576   15.1550   30.3458 H         1 MOL     0.0232
     22 H           6.8689   15.5239   32.0407 H         1 MOL     0.0232
     23 H           3.4568   15.0789   32.6412 H         1 MOL     0.0316
     24 H           5.0002   15.4929   33.3775 H         1 MOL     0.0316
     25 H           6.0390   14.0921   34.8625 H         1 MOL     0.0620
     26 H           5.9400   12.2289   36.3532 H         1 MOL     0.0621
     27 H           2.5158   10.8534   34.4272 H         1 MOL     0.0621
     28 H           2.6185   12.7313   32.9260 H         1 MOL     0.0620
     29 H           4.8301   10.3287   37.2202 H         1 MOL     0.0406
     30 H           2.0188   10.0714   36.1809 H         1 MOL     0.0239
     31 H           2.5147   11.0435   37.5458 H         1 MOL     0.0239
     32 H           2.6473    9.3026   37.6194 H         1 MOL     0.0239
@<TRIPOS>BOND
     1    1    2 1 
     2    1   16 1 
     3    1   17 1 
     4    1   18 1 
     5    2    3 1 
     6    2    4 1 
     7    2   19 1 
     8    3   20 1 
     9    3   21 1 
    10    3   22 1 
    11    4    5 1 
    12    4   23 1 
    13    4   24 1 
    14    5    6 ar
    15    5   10 ar
    16    6    7 ar
    17    6   25 1 
    18    7    8 ar
    19    7   26 1 
    20    8    9 ar
    21    8   11 1 
    22    9   10 ar
    23    9   27 1 
    24   10   28 1 
    25   11   12 1 
    26   11   13 1 
    27   11   29 1 
    28   12   30 1 
    29   12   31 1 
    30   12   32 1 
    31   13   14 ar
    32   13   15 ar
@<TRIPOS>SUBSTRUCTURE
1 MOL         1
@<TRIPOS>MOLECULE
query molecule
   32    32     1     0     0
SMALL
NO_CHARGE

@<TRIPOS>ATOM
      1 C          22.1229   22.0188   37.7942 C.3       1 MOL     0.0072
      2 C          21.7984   23.4739   37.6284 C.3       1 MOL    -0.0128
      3 C          22.8667   24.3293   38.2315 C.3       1 MOL     0.0072
      4 C          21.6388   23.7805   36.1655 C.3       1 MOL     0.0379
      5 C          20.5856   22.9350   35.5521 C.ar      1 MOL    -0.0471
      6 C          19.2679   23.2523   35.7870 C.ar      1 MOL     0.0037
      7 C          18.2648   22.5019   35.2432 C.ar      1 MOL     0.0044
      8 C          18.5543   21.4171   34.4520 C.ar      1 MOL    -0.0391
      9 C          19.8658   21.0913   34.2102 C.ar      1 MOL     0.0044
     10 C          20.8764   21.8502   34.7607 C.ar      1 MOL     0.0037
     11 C          17.4922   20.5912   33.8532 C.3       1 MOL     0.0614
     12 C          16.4616   20.2463   34.9279 C.3       1 MOL     0.0185
     13 C          16.8572   21.4031   32.7737 C.2       1 MOL     0.0489
     14 O          17.2782   21.3530   31.6089 O.co2     1 MOL    -0.5492
     15 O          15.7996   22.2057   33.0932 O.co2     1 MOL    -0.5492
     16 H          22.2378   21.7958   38.8351 H         1 MOL     0.0232
     17 H          23.0336   21.7952   37.2791 H         1 MOL     0.0232
     18 H          21.3286   21.4283   37.3884 H         1 MOL     0.0232
     19 H          20.8836   23.6902   38.1383 H         1 MOL     0.0299
     20 H          23.7977   24.1353   37.7408 H         1 MOL     0.0232
     21 H          22.9591   24.1027   39.2729 H         1 MOL     0.0232
     22 H          22.6088   25.3607   38.1119 H         1 MOL     0.0232
     23 H          22.5674   23.5980   35.6670 H         1 MOL     0.0316
     24 H          21.3515   24.8062   36.0641 H         1 MOL     0.0316
     25 H          19.0351   24.0642   36.3801 H         1 MOL     0.0620
     26 H          17.2806   22.7524   35.4288 H         1 MOL     0.0621
     27 H          20.0955   20.2789   33.6164 H         1 MOL     0.0621
     28 H          21.8612   21.6018   34.5770 H         1 MOL     0.0620
     29 H          17.8846   19.6801   33.4518 H         1 MOL     0.0406
     30 H          16.0600   21.1489   35.3393 H         1 MOL     0.0239
     31 H          16.9329   19.6796   35.7039 H         1 MOL     0.0239
     32 H          15.6728   19.6692   34.4931 H         1 MOL     0.0239
@<TRIPOS>BOND
     1    1    2 1 
     2    1   16 1 
     3    1   17 1 
     4    1   18 1 
     5    2    3 1 
     6    2    4 1 
     7    2   19 1 
     8    3   20 1 
     9    3   21 1 
    10    3   22 1 
    11    4    5 1 
    12    4   23 1 
    13    4   24 1 
    14    5    6 ar
    15    5   10 ar
    16    6    7 ar
    17    6   25 1 
    18    7    8 ar
    19    7   26 1 
    20    8    9 ar
    21    8   11 1 
    22    9   10 ar
    23    9   27 1 
    24   10   28 1 
    25   11   12 1 
    26   11   13 1 
    27   11   29 1 
    28   12   30 1 
    29   12   31 1 
    30   12   32 1 
    31   13   14 ar
    32   13   15 ar
@<TRIPOS>SUBSTRUCTURE
1 MOL         1
@<TRIPOS>MOLECULE
query molecule
   32    32     1     0     0
SMALL
NO_CHARGE

@<TRIPOS>ATOM
      1 C          17.9490   22.6660   16.0740 C.3       1 MOL     0.0072
      2 C          17.5857   22.0399   14.7602 C.3       1 MOL    -0.0128
      3 C          16.9069   23.0302   13.8686 C.3       1 MOL     0.0072
      4 C          18.8298   21.5061   14.1068 C.3       1 MOL     0.0379
      5 C          19.3378   20.3081   14.8189 C.ar      1 MOL    -0.0471
      6 C          20.6333   19.9067   14.5892 C.ar      1 MOL     0.0037
      7 C          21.1435   18.8096   15.2223 C.ar      1 MOL     0.0044
      8 C          20.3718   18.0876   16.0996 C.ar      1 MOL    -0.0391
      9 C          19.0776   18.4791   16.3371 C.ar      1 MOL     0.0044
     10 C          18.5649   19.5868   15.6965 C.ar      1 MOL     0.0037
     11 C          20.8970   16.9008   16.7956 C.3       1 MOL     0.0614
     12 C          21.9676   16.2437   15.9248 C.3       1 MOL     0.0185
     13 C          21.4958   17.3707   18.0794 C.2       1 MOL     0.0489
     14 O          20.7820   17.6106   19.0641 O.co2     1 MOL    -0.5492
     15 O          22.8498   17.5326   18.1506 O.co2     1 MOL    -0.5492
     16 H          17.0656   23.0479   16.5430 H         1 MOL     0.0232
     17 H          18.6396   23.4664   15.9091 H         1 MOL     0.0232
     18 H          18.3992   21.9302   16.7066 H         1 MOL     0.0232
     19 H          16.9018   21.2358   14.9313 H         1 MOL     0.0299
     20 H          17.5682   23.8498   13.6780 H         1 MOL     0.0232
     21 H          16.0207   23.3915   14.3467 H         1 MOL     0.0232
     22 H          16.6471   22.5593   12.9437 H         1 MOL     0.0232
     23 H          19.5835   22.2650   14.1184 H         1 MOL     0.0316
     24 H          18.5912   21.2270   13.1018 H         1 MOL     0.0316
     25 H          21.2249   20.4390   13.9320 H         1 MOL     0.0620
     26 H          22.1176   18.5206   15.0394 H         1 MOL     0.0621
     27 H          18.4885   17.9449   16.9951 H         1 MOL     0.0621
     28 H          17.5914   19.8778   15.8772 H         1 MOL     0.0620
     29 H          20.1246   16.1848   16.9852 H         1 MOL     0.0406
     30 H          22.7477   16.9488   15.7263 H         1 MOL     0.0239
     31 H          21.5297   15.9271   15.0010 H         1 MOL     0.0239
     32 H          22.3727   15.3964   16.4367 H         1 MOL     0.0239
@<TRIPOS>BOND
     1    1    2 1 
     2    1   16 1 
     3    1   17 1 
     4    1   18 1 
     5    2    3 1 
     6    2    4 1 
     7    2   19 1 
     8    3   20 1 
     9    3   21 1 
    10    3   22 1 
    11    4    5 1 
    12    4   23 1 
    13    4   24 1 
    14    5    6 ar
    15    5   10 ar
    16    6    7 ar
    17    6   25 1 
    18    7    8 ar
    19    7   26 1 
    20    8    9 ar
    21    8   11 1 
    22    9   10 ar
    23    9   27 1 
    24   10   28 1 
    25   11   12 1 
    26   11   13 1 
    27   11   29 1 
    28   12   30 1 
    29   12   31 1 
    30   12   32 1 
    31   13   14 ar
    32   13   15 ar
@<TRIPOS>SUBSTRUCTURE
1 MOL         1
@<TRIPOS>MOLECULE
query molecule
   32    32     1     0     0
SMALL
NO_CHARGE

@<TRIPOS>ATOM
      1 C           8.7632   -8.3087   24.0327 C.3       1 MOL     0.0072
      2 C           8.2389   -8.5566   22.6494 C.3       1 MOL    -0.0128
      3 C           9.2234   -9.3383   21.8394 C.3       1 MOL     0.0072
      4 C           6.9298   -9.2896   22.7416 C.3       1 MOL     0.0379
      5 C           5.7984   -8.3468   22.9184 C.ar      1 MOL    -0.0471
      6 C           5.3578   -8.0800   24.1939 C.ar      1 MOL     0.0037
      7 C           4.3191   -7.2188   24.4045 C.ar      1 MOL     0.0044
      8 C           3.6961   -6.6038   23.3461 C.ar      1 MOL    -0.0391
      9 C           4.1276   -6.8619   22.0687 C.ar      1 MOL     0.0044
     10 C           5.1761   -7.7320   21.8588 C.ar      1 MOL     0.0037
     11 C           2.5741   -5.6710   23.5450 C.3       1 MOL     0.0614
     12 C           1.5439   -6.3184   24.4699 C.3       1 MOL     0.0185
     13 C           3.1307   -4.4392   24.1778 C.2       1 MOL     0.0489
     14 O           4.0399   -3.7983   23.6308 O.co2     1 MOL    -0.5492
     15 O           2.6186   -4.0288   25.3753 O.co2     1 MOL    -0.5492
     16 H           9.6961   -7.7868   23.9719 H         1 MOL     0.0232
     17 H           8.9097   -9.2437   24.5318 H         1 MOL     0.0232
     18 H           8.0590   -7.7181   24.5799 H         1 MOL     0.0232
     19 H           8.0867   -7.6190   22.1580 H         1 MOL     0.0299
     20 H           9.3972  -10.2852   22.3068 H         1 MOL     0.0232
     21 H          10.1442   -8.7971   21.7782 H         1 MOL     0.0232
     22 H           8.8339   -9.4928   20.8550 H         1 MOL     0.0232
     23 H           6.9615   -9.9575   23.5766 H         1 MOL     0.0316
     24 H           6.7802   -9.8313   21.8311 H         1 MOL     0.0316
     25 H           5.8157   -8.5354   24.9990 H         1 MOL     0.0620
     26 H           3.9996   -7.0289   25.3676 H         1 MOL     0.0621
     27 H           3.6678   -6.4049   21.2655 H         1 MOL     0.0621
     28 H           5.4974   -7.9239   20.8970 H         1 MOL     0.0620
     29 H           2.0967   -5.4300   22.6180 H         1 MOL     0.0406
     30 H           2.0075   -6.5656   25.4023 H         1 MOL     0.0239
     31 H           1.1655   -7.2091   24.0128 H         1 MOL     0.0239
     32 H           0.7388   -5.6351   24.6406 H         1 MOL     0.0239
@<TRIPOS>BOND
     1    1    2 1 
     2    1   16 1 
     3    1   17 1 
     4    1   18 1 
     5    2    3 1 
     6    2    4 1 
     7    2   19 1 
     8    3   20 1 
     9    3   21 1 
    10    3   22 1 
    11    4    5 1 
    12    4   23 1 
    13    4   24 1 
    14    5    6 ar
    15    5   10 ar
    16    6    7 ar
    17    6   25 1 
    18    7    8 ar
    19    7   26 1 
    20    8    9 ar
    21    8   11 1 
    22    9   10 ar
    23    9   27 1 
    24   10   28 1 
    25   11   12 1 
    26   11   13 1 
    27   11   29 1 
    28   12   30 1 
    29   12   31 1 
    30   12   32 1 
    31   13   14 ar
    32   13   15 ar
@<TRIPOS>SUBSTRUCTURE
1 MOL         1
@<TRIPOS>MOLECULE
query molecule
   32    32     1     0     0
SMALL
NO_CHARGE

@<TRIPOS>ATOM
      1 C          -1.2481   -5.7077   10.4016 C.3       1 MOL     0.0072
      2 C          -0.7329   -4.9417    9.2193 C.3       1 MOL    -0.0128
      3 C           0.4693   -4.1338    9.5916 C.3       1 MOL     0.0072
      4 C          -0.4009   -5.9046    8.1138 C.3       1 MOL     0.0379
      5 C          -1.5295   -6.0365    7.1604 C.ar      1 MOL    -0.0471
      6 C          -1.4706   -5.3465    5.9719 C.ar      1 MOL     0.0037
      7 C          -2.4868   -5.4377    5.0642 C.ar      1 MOL     0.0044
      8 C          -3.5857   -6.2202    5.3222 C.ar      1 MOL    -0.0391
      9 C          -3.6553   -6.9139    6.5048 C.ar      1 MOL     0.0044
     10 C          -2.6283   -6.8198    7.4196 C.ar      1 MOL     0.0037
     11 C          -4.6953   -6.3364    4.3610 C.3       1 MOL     0.0614
     12 C          -5.2197   -7.7720    4.3741 C.3       1 MOL     0.0185
     13 C          -5.7645   -5.3945    4.8049 C.2       1 MOL     0.0489
     14 O          -6.0197   -5.2435    6.0085 O.co2     1 MOL    -0.5492
     15 O          -6.4600   -4.6988    3.8577 O.co2     1 MOL    -0.5492
     16 H          -1.4858   -5.0256   11.1919 H         1 MOL     0.0232
     17 H          -0.4988   -6.3941   10.7363 H         1 MOL     0.0232
     18 H          -2.1274   -6.2479   10.1201 H         1 MOL     0.0232
     19 H          -1.4883   -4.2631    8.8839 H         1 MOL     0.0299
     20 H           1.2457   -4.7867    9.9324 H         1 MOL     0.0232
     21 H           0.2110   -3.4497   10.3725 H         1 MOL     0.0232
     22 H           0.8118   -3.5880    8.7376 H         1 MOL     0.0232
     23 H          -0.1881   -6.8633    8.5378 H         1 MOL     0.0316
     24 H           0.4491   -5.5302    7.5827 H         1 MOL     0.0316
     25 H          -0.6514   -4.7540    5.7645 H         1 MOL     0.0620
     26 H          -2.4281   -4.9136    4.1766 H         1 MOL     0.0621
     27 H          -4.4757   -7.5059    6.7093 H         1 MOL     0.0621
     28 H          -2.6844   -7.3424    8.3078 H         1 MOL     0.0620
     29 H          -4.3784   -6.0979    3.3670 H         1 MOL     0.0406
     30 H          -5.5405   -8.0252    5.3632 H         1 MOL     0.0239
     31 H          -4.4391   -8.4386    4.0710 H         1 MOL     0.0239
     32 H          -6.0441   -7.8565    3.6978 H         1 MOL     0.0239
@<TRIPOS>BOND
     1    1    2 1 
     2    1   16 1 
     3    1   17 1 
     4    1   18 1 
     5    2    3 1 
     6    2    4 1 
     7    2   19 1 
     8    3   20 1 
     9    3   21 1 
    10    3   22 1 
    11    4    5 1 
    12    4   23 1 
    13    4   24 1 
    14    5    6 ar
    15    5   10 ar
    16    6    7 ar
    17    6   25 1 
    18    7    8 ar
    19    7   26 1 
    20    8    9 ar
    21    8   11 1 
    22    9   10 ar
    23    9   27 1 
    24   10   28 1 
    25   11   12 1 
    26   11   13 1 
    27   11   29 1 
    28   12   30 1 
    29   12   31 1 
    30   12   32 1 
    31   13   14 ar
    32   13   15 ar
@<TRIPOS>SUBSTRUCTURE
1 MOL         1
@<TRIPOS>MOLECULE
query molecule
   32    32     1     0     0
SMALL
NO_CHARGE

@<TRIPOS>ATOM
      1 C          17.6933   27.8840   14.2603 C.3       1 MOL     0.0072
      2 C          18.0238   27.0337   13.0696 C.3       1 MOL    -0.0128
      3 C          17.4873   27.6444   11.8144 C.3       1 MOL     0.0072
      4 C          19.5151   26.8669   12.9808 C.3       1 MOL     0.0379
      5 C          19.8734   25.5773   12.3415 C.ar      1 MOL    -0.0471
      6 C          18.8603   24.7287   11.9597 C.ar      1 MOL     0.0037
      7 C          19.1430   23.5309   11.3679 C.ar      1 MOL     0.0044
      8 C          20.4442   23.1525   11.1435 C.ar      1 MOL    -0.0391
      9 C          21.4635   23.9915   11.5198 C.ar      1 MOL     0.0044
     10 C          21.1754   25.1999   12.1174 C.ar      1 MOL     0.0037
     11 C          20.7770   21.8668   10.5072 C.3       1 MOL     0.0614
     12 C          19.9085   20.7673   11.1181 C.3       1 MOL     0.0185
     13 C          20.4817   22.0053    9.0508 C.2       1 MOL     0.0489
     14 O          19.7108   22.8843    8.6388 O.co2     1 MOL    -0.5492
     15 O          21.0783   21.1429    8.1761 O.co2     1 MOL    -0.5492
     16 H          16.6317   28.0058   14.3275 H         1 MOL     0.0232
     17 H          18.1561   28.8428   14.1538 H         1 MOL     0.0232
     18 H          18.0548   27.4094   15.1482 H         1 MOL     0.0232
     19 H          17.5657   26.0743   13.1849 H         1 MOL     0.0299
     20 H          17.9284   28.6088   11.6706 H         1 MOL     0.0232
     21 H          16.4253   27.7468   11.8935 H         1 MOL     0.0232
     22 H          17.7243   27.0162   10.9815 H         1 MOL     0.0232
     23 H          19.9290   26.8949   13.9667 H         1 MOL     0.0316
     24 H          19.9097   27.6622   12.3835 H         1 MOL     0.0316
     25 H          17.8777   24.9992   12.1226 H         1 MOL     0.0620
     26 H          18.3718   22.9046   11.0870 H         1 MOL     0.0621
     27 H          22.4452   23.7183   11.3554 H         1 MOL     0.0621
     28 H          21.9444   25.8278   12.3994 H         1 MOL     0.0620
     29 H          21.8055   21.6114   10.6558 H         1 MOL     0.0406
     30 H          18.8757   21.0094   10.9773 H         1 MOL     0.0239
     31 H          20.1170   20.6899   12.1650 H         1 MOL     0.0239
     32 H          20.1260   19.8350   10.6409 H         1 MOL     0.0239
@<TRIPOS>BOND
     1    1    2 1 
     2    1   16 1 
     3    1   17 1 
     4    1   18 1 
     5    2    3 1 
     6    2    4 1 
     7    2   19 1 
     8    3   20 1 
     9    3   21 1 
    10    3   22 1 
    11    4    5 1 
    12    4   23 1 
    13    4   24 1 
    14    5    6 ar
    15    5   10 ar
    16    6    7 ar
    17    6   25 1 
    18    7    8 ar
    19    7   26 1 
    20    8    9 ar
    21    8   11 1 
    22    9   10 ar
    23    9   27 1 
    24   10   28 1 
    25   11   12 1 
    26   11   13 1 
    27   11   29 1 
    28   12   30 1 
    29   12   31 1 
    30   12   32 1 
    31   13   14 ar
    32   13   15 ar
@<TRIPOS>SUBSTRUCTURE
1 MOL         1
@<TRIPOS>MOLECULE
query molecule
   32    32     1     0     0
SMALL
NO_CHARGE

@<TRIPOS>ATOM
      1 C           1.9814   -2.2204   18.1336 C.3       1 MOL     0.0072
      2 C           3.1905   -2.9312   17.6018 C.3       1 MOL    -0.0128
      3 C           4.1116   -3.3193   18.7143 C.3       1 MOL     0.0072
      4 C           2.7508   -4.1450   16.8319 C.3       1 MOL     0.0379
      5 C           3.9156   -4.8959   16.3032 C.ar      1 MOL    -0.0471
      6 C           3.9378   -6.2636   16.4493 C.ar      1 MOL     0.0037
      7 C           4.9899   -6.9958   15.9785 C.ar      1 MOL     0.0044
      8 C           6.0445   -6.3794   15.3506 C.ar      1 MOL    -0.0391
      9 C           6.0331   -5.0151   15.1985 C.ar      1 MOL     0.0044
     10 C           4.9700   -4.2782   15.6751 C.ar      1 MOL     0.0037
     11 C           7.1913   -7.1450   14.8334 C.3       1 MOL     0.0614
     12 C           8.4389   -6.7808   15.6378 C.3       1 MOL     0.0185
     13 C           6.8712   -8.5922   15.0085 C.2       1 MOL     0.0489
     14 O           5.9418   -9.1187   14.3796 O.co2     1 MOL    -0.5492
     15 O           7.6234   -9.3295   15.8777 O.co2     1 MOL    -0.5492
     16 H           2.2900   -1.3549   18.6832 H         1 MOL     0.0232
     17 H           1.4364   -2.8770   18.7791 H         1 MOL     0.0232
     18 H           1.3569   -1.9214   17.3183 H         1 MOL     0.0232
     19 H           3.7270   -2.2735   16.9514 H         1 MOL     0.0299
     20 H           3.6021   -3.9799   19.3846 H         1 MOL     0.0232
     21 H           4.4198   -2.4425   19.2441 H         1 MOL     0.0232
     22 H           4.9707   -3.8134   18.3112 H         1 MOL     0.0232
     23 H           2.1345   -3.8356   16.0141 H         1 MOL     0.0316
     24 H           2.2061   -4.7862   17.4929 H         1 MOL     0.0316
     25 H           3.1526   -6.7405   16.9197 H         1 MOL     0.0620
     26 H           4.9922   -8.0215   16.0958 H         1 MOL     0.0621
     27 H           6.8197   -4.5409   14.7275 H         1 MOL     0.0621
     28 H           4.9652   -3.2526   15.5594 H         1 MOL     0.0620
     29 H           7.3745   -6.9264   13.8019 H         1 MOL     0.0406
     30 H           8.2704   -6.9939   16.6729 H         1 MOL     0.0239
     31 H           8.6475   -5.7379   15.5179 H         1 MOL     0.0239
     32 H           9.2703   -7.3540   15.2851 H         1 MOL     0.0239
@<TRIPOS>BOND
     1    1    2 1 
     2    1   16 1 
     3    1   17 1 
     4    1   18 1 
     5    2    3 1 
     6    2    4 1 
     7    2   19 1 
     8    3   20 1 
     9    3   21 1 
    10    3   22 1 
    11    4    5 1 
    12    4   23 1 
    13    4   24 1 
    14    5    6 ar
    15    5   10 ar
    16    6    7 ar
    17    6   25 1 
    18    7    8 ar
    19    7   26 1 
    20    8    9 ar
    21    8   11 1 
    22    9   10 ar
    23    9   27 1 
    24   10   28 1 
    25   11   12 1 
    26   11   13 1 
    27   11   29 1 
    28   12   30 1 
    29   12   31 1 
    30   12   32 1 
    31   13   14 ar
    32   13   15 ar
@<TRIPOS>SUBSTRUCTURE
1 MOL         1
@<TRIPOS>MOLECULE
query molecule
   32    32     1     0     0
SMALL
NO_CHARGE

@<TRIPOS>ATOM
      1 C          17.8556   -1.0677   12.0216 C.3       1 MOL     0.0072
      2 C          17.2070    0.1068   11.3508 C.3       1 MOL    -0.0128
      3 C          17.9317    1.3733   11.6780 C.3       1 MOL     0.0072
      4 C          17.1871   -0.1221    9.8653 C.3       1 MOL     0.0379
      5 C          16.3429   -1.2900    9.5138 C.ar      1 MOL    -0.0471
      6 C          15.0300   -1.2998    9.9242 C.ar      1 MOL     0.0037
      7 C          14.2157   -2.3541    9.6238 C.ar      1 MOL     0.0044
      8 C          14.6936   -3.4234    8.9063 C.ar      1 MOL    -0.0391
      9 C          16.0020   -3.4244    8.4909 C.ar      1 MOL     0.0044
     10 C          16.8220   -2.3591    8.7958 C.ar      1 MOL     0.0037
     11 C          13.8372   -4.5729    8.5687 C.3       1 MOL     0.0614
     12 C          12.4419   -4.0666    8.2040 C.3       1 MOL     0.0185
     13 C          14.4583   -5.2570    7.3966 C.2       1 MOL     0.0489
     14 O          15.4040   -6.0441    7.5472 O.co2     1 MOL    -0.5492
     15 O          13.9643   -4.9995    6.1498 O.co2     1 MOL    -0.5492
     16 H          17.8722   -0.9088   13.0803 H         1 MOL     0.0232
     17 H          18.8573   -1.1760   11.6616 H         1 MOL     0.0232
     18 H          17.2993   -1.9547   11.8026 H         1 MOL     0.0232
     19 H          16.2039    0.2057   11.7081 H         1 MOL     0.0299
     20 H          18.9420    1.3053   11.3319 H         1 MOL     0.0232
     21 H          17.9275    1.5228   12.7374 H         1 MOL     0.0232
     22 H          17.4455    2.1974   11.1992 H         1 MOL     0.0232
     23 H          18.1860   -0.2985    9.5256 H         1 MOL     0.0316
     24 H          16.7766    0.7465    9.3944 H         1 MOL     0.0316
     25 H          14.6571   -0.5035   10.4648 H         1 MOL     0.0620
     26 H          13.2327   -2.3470    9.9390 H         1 MOL     0.0621
     27 H          16.3720   -4.2221    7.9502 H         1 MOL     0.0621
     28 H          17.8052   -2.3637    8.4822 H         1 MOL     0.0620
     29 H          13.7498   -5.2508    9.3921 H         1 MOL     0.0406
     30 H          12.5134   -3.3863    7.3810 H         1 MOL     0.0239
     31 H          12.0148   -3.5633    9.0465 H         1 MOL     0.0239
     32 H          11.8223   -4.8947    7.9311 H         1 MOL     0.0239
@<TRIPOS>BOND
     1    1    2 1 
     2    1   16 1 
     3    1   17 1 
     4    1   18 1 
     5    2    3 1 
     6    2    4 1 
     7    2   19 1 
     8    3   20 1 
     9    3   21 1 
    10    3   22 1 
    11    4    5 1 
    12    4   23 1 
    13    4   24 1 
    14    5    6 ar
    15    5   10 ar
    16    6    7 ar
    17    6   25 1 
    18    7    8 ar
    19    7   26 1 
    20    8    9 ar
    21    8   11 1 
    22    9   10 ar
    23    9   27 1 
    24   10   28 1 
    25   11   12 1 
    26   11   13 1 
    27   11   29 1 
    28   12   30 1 
    29   12   31 1 
    30   12   32 1 
    31   13   14 ar
    32   13   15 ar
@<TRIPOS>SUBSTRUCTURE
1 MOL         1
@<TRIPOS>MOLECULE
query molecule
   32    32     1     0     0
SMALL
NO_CHARGE

@<TRIPOS>ATOM
      1 C          21.0905   15.1556   30.5549 C.3       1 MOL     0.0072
      2 C          19.8200   15.3269   31.3336 C.3       1 MOL    -0.0128
      3 C          18.6719   14.6785   30.6279 C.3       1 MOL     0.0072
      4 C          19.9982   14.7379   32.7050 C.3       1 MOL     0.0379
      5 C          20.4535   13.3283   32.6283 C.ar      1 MOL    -0.0471
      6 C          19.5572   12.3691   32.2174 C.ar      1 MOL     0.0037
      7 C          19.9321   11.0587   32.1320 C.ar      1 MOL     0.0044
      8 C          21.2109   10.6756   32.4549 C.ar      1 MOL    -0.0391
      9 C          22.1142   11.6242   32.8657 C.ar      1 MOL     0.0044
     10 C          21.7332   12.9462   32.9514 C.ar      1 MOL     0.0037
     11 C          21.6414    9.2697   32.3716 C.3       1 MOL     0.0614
     12 C          22.9016    9.1831   31.5111 C.3       1 MOL     0.0185
     13 C          21.9362    8.8151   33.7622 C.2       1 MOL     0.0489
     14 O          21.6027    9.5004   34.7397 O.co2     1 MOL    -0.5492
     15 O          22.5830    7.6255   33.9396 O.co2     1 MOL    -0.5492
     16 H          20.9681   15.5737   29.5769 H         1 MOL     0.0232
     17 H          21.3202   14.1139   30.4712 H         1 MOL     0.0232
     18 H          21.8884   15.6579   31.0603 H         1 MOL     0.0232
     19 H          19.5994   16.3697   31.4211 H         1 MOL     0.0299
     20 H          18.8632   13.6306   30.5246 H         1 MOL     0.0232
     21 H          18.5560   15.1165   29.6587 H         1 MOL     0.0232
     22 H          17.7761   14.8232   31.1946 H         1 MOL     0.0232
     23 H          19.0643   14.7754   33.2253 H         1 MOL     0.0316
     24 H          20.7417   15.3063   33.2235 H         1 MOL     0.0316
     25 H          18.5925   12.6420   31.9721 H         1 MOL     0.0620
     26 H          19.2479   10.3503   31.8221 H         1 MOL     0.0621
     27 H          23.0784   11.3483   33.1101 H         1 MOL     0.0621
     28 H          22.4149   13.6565   33.2611 H         1 MOL     0.0620
     29 H          20.8846    8.6543   31.9313 H         1 MOL     0.0406
     30 H          23.6684    9.7946   31.9393 H         1 MOL     0.0239
     31 H          22.6814    9.5280   30.5221 H         1 MOL     0.0239
     32 H          23.2354    8.1677   31.4690 H         1 MOL     0.0239
@<TRIPOS>BOND
     1    1    2 1 
     2    1   16 1 
     3    1   17 1 
     4    1   18 1 
     5    2    3 1 
     6    2    4 1 
     7    2   19 1 
     8    3   20 1 
     9    3   21 1 
    10    3   22 1 
    11    4    5 1 
    12    4   23 1 
    13    4   24 1 
    14    5    6 ar
    15    5   10 ar
    16    6    7 ar
    17    6   25 1 
    18    7    8 ar
    19    7   26 1 
    20    8    9 ar
    21    8   11 1 
    22    9   10 ar
    23    9   27 1 
    24   10   28 1 
    25   11   12 1 
    26   11   13 1 
    27   11   29 1 
    28   12   30 1 
    29   12   31 1 
    30   12   32 1 
    31   13   14 ar
    32   13   15 ar
@<TRIPOS>SUBSTRUCTURE
1 MOL         1
@<TRIPOS>MOLECULE
query molecule
   32    32     1     0     0
SMALL
NO_CHARGE

@<TRIPOS>ATOM
      1 C          -1.1687   21.1676   -7.3248 C.3       1 MOL     0.0072
      2 C          -0.5244   22.4552   -6.9042 C.3       1 MOL    -0.0128
      3 C          -0.9621   22.8446   -5.5282 C.3       1 MOL     0.0072
      4 C           0.9698   22.3009   -6.9597 C.3       1 MOL     0.0379
      5 C           1.4190   21.1373   -6.1568 C.ar      1 MOL    -0.0471
      6 C           1.8499   20.0099   -6.8167 C.ar      1 MOL     0.0037
      7 C           2.2721   18.9148   -6.1187 C.ar      1 MOL     0.0044
      8 C           2.2741   18.9200   -4.7452 C.ar      1 MOL    -0.0391
      9 C           1.8468   20.0397   -4.0758 C.ar      1 MOL     0.0044
     10 C           1.4207   21.1438   -4.7828 C.ar      1 MOL     0.0037
     11 C           2.7243   17.7529   -3.9680 C.3       1 MOL     0.0614
     12 C           2.5057   18.0285   -2.4806 C.3       1 MOL     0.0185
     13 C           1.8981   16.5881   -4.4018 C.2       1 MOL     0.0489
     14 O           1.2793   15.9037   -3.5741 O.co2     1 MOL    -0.5492
     15 O           1.8356   16.2882   -5.7326 O.co2     1 MOL    -0.5492
     16 H          -2.2335   21.2729   -7.2865 H         1 MOL     0.0232
     17 H          -0.8640   20.3834   -6.6637 H         1 MOL     0.0232
     18 H          -0.8694   20.9293   -8.3237 H         1 MOL     0.0232
     19 H          -0.8258   23.2337   -7.5726 H         1 MOL     0.0299
     20 H          -0.6739   22.0829   -4.8338 H         1 MOL     0.0232
     21 H          -2.0258   22.9578   -5.5112 H         1 MOL     0.0232
     22 H          -0.5000   23.7699   -5.2545 H         1 MOL     0.0232
     23 H           1.4272   23.1880   -6.5750 H         1 MOL     0.0316
     24 H           1.2559   22.1404   -7.9781 H         1 MOL     0.0316
     25 H           1.8533   19.9911   -7.8486 H         1 MOL     0.0620
     26 H           2.5924   18.0759   -6.6282 H         1 MOL     0.0621
     27 H           1.8447   20.0557   -3.0437 H         1 MOL     0.0621
     28 H           1.0997   21.9836   -4.2761 H         1 MOL     0.0620
     29 H           3.7632   17.5529   -4.1290 H         1 MOL     0.0406
     30 H           1.4698   18.2308   -2.3041 H         1 MOL     0.0239
     31 H           3.0896   18.8758   -2.1863 H         1 MOL     0.0239
     32 H           2.8054   17.1735   -1.9119 H         1 MOL     0.0239
@<TRIPOS>BOND
     1    1    2 1 
     2    1   16 1 
     3    1   17 1 
     4    1   18 1 
     5    2    3 1 
     6    2    4 1 
     7    2   19 1 
     8    3   20 1 
     9    3   21 1 
    10    3   22 1 
    11    4    5 1 
    12    4   23 1 
    13    4   24 1 
    14    5    6 ar
    15    5   10 ar
    16    6    7 ar
    17    6   25 1 
    18    7    8 ar
    19    7   26 1 
    20    8    9 ar
    21    8   11 1 
    22    9   10 ar
    23    9   27 1 
    24   10   28 1 
    25   11   12 1 
    26   11   13 1 
    27   11   29 1 
    28   12   30 1 
    29   12   31 1 
    30   12   32 1 
    31   13   14 ar
    32   13   15 ar
@<TRIPOS>SUBSTRUCTURE
1 MOL         1
@<TRIPOS>MOLECULE
query molecule
   32    32     1     0     0
SMALL
NO_CHARGE

@<TRIPOS>ATOM
      1 C           0.7925   26.0932   -3.2592 C.3       1 MOL     0.0072
      2 C           0.4683   24.9590   -4.1857 C.3       1 MOL    -0.0128
      3 C          -0.0299   23.7738   -3.4218 C.3       1 MOL     0.0072
      4 C          -0.5595   25.4150   -5.1834 C.3       1 MOL     0.0379
      5 C          -1.2458   24.2601   -5.8123 C.ar      1 MOL    -0.0471
      6 C          -2.5675   24.0338   -5.5056 C.ar      1 MOL     0.0037
      7 C          -3.2396   22.9825   -6.0606 C.ar      1 MOL     0.0044
      8 C          -2.6074   22.1326   -6.9349 C.ar      1 MOL    -0.0391
      9 C          -1.2886   22.3489   -7.2488 C.ar      1 MOL     0.0044
     10 C          -0.6123   23.4106   -6.6869 C.ar      1 MOL     0.0037
     11 C          -3.3084   20.9916   -7.5476 C.3       1 MOL     0.0614
     12 C          -4.2318   20.3560   -6.5085 C.3       1 MOL     0.0185
     13 C          -4.1090   21.5261   -8.6882 C.2       1 MOL     0.0489
     14 O          -4.9272   20.8090   -9.2822 O.co2     1 MOL    -0.5492
     15 O          -3.9234   22.8247   -9.0676 O.co2     1 MOL    -0.5492
     16 H           1.5244   25.7728   -2.5463 H         1 MOL     0.0232
     17 H          -0.0948   26.3997   -2.7459 H         1 MOL     0.0232
     18 H           1.1804   26.9147   -3.8240 H         1 MOL     0.0232
     19 H           1.3565   24.6620   -4.7018 H         1 MOL     0.0299
     20 H          -0.9213   24.0400   -2.8927 H         1 MOL     0.0232
     21 H           0.7178   23.4595   -2.7241 H         1 MOL     0.0232
     22 H          -0.2433   22.9749   -4.1006 H         1 MOL     0.0232
     23 H          -0.0762   25.9907   -5.9444 H         1 MOL     0.0316
     24 H          -1.2902   26.0051   -4.6709 H         1 MOL     0.0316
     25 H          -3.0555   24.6637   -4.8496 H         1 MOL     0.0620
     26 H          -4.2313   22.8256   -5.8205 H         1 MOL     0.0621
     27 H          -0.8032   21.7173   -7.9053 H         1 MOL     0.0621
     28 H           0.3792   23.5697   -6.9249 H         1 MOL     0.0620
     29 H          -2.6197   20.2485   -7.8921 H         1 MOL     0.0406
     30 H          -4.9270   21.0883   -6.1541 H         1 MOL     0.0239
     31 H          -3.6478   19.9926   -5.6886 H         1 MOL     0.0239
     32 H          -4.7648   19.5431   -6.9551 H         1 MOL     0.0239
@<TRIPOS>BOND
     1    1    2 1 
     2    1   16 1 
     3    1   17 1 
     4    1   18 1 
     5    2    3 1 
     6    2    4 1 
     7    2   19 1 
     8    3   20 1 
     9    3   21 1 
    10    3   22 1 
    11    4    5 1 
    12    4   23 1 
    13    4   24 1 
    14    5    6 ar
    15    5   10 ar
    16    6    7 ar
    17    6   25 1 
    18    7    8 ar
    19    7   26 1 
    20    8    9 ar
    21    8   11 1 
    22    9   10 ar
    23    9   27 1 
    24   10   28 1 
    25   11   12 1 
    26   11   13 1 
    27   11   29 1 
    28   12   30 1 
    29   12   31 1 
    30   12   32 1 
    31   13   14 ar
    32   13   15 ar
@<TRIPOS>SUBSTRUCTURE
1 MOL         1
@<TRIPOS>MOLECULE
query molecule
   32    32     1     0     0
SMALL
NO_CHARGE

@<TRIPOS>ATOM
      1 C           8.9391   10.5197   36.3835 C.3       1 MOL     0.0072
      2 C           9.2436   11.6090   37.3687 C.3       1 MOL    -0.0128
      3 C          10.3150   11.1814   38.3204 C.3       1 MOL     0.0072
      4 C           9.6614   12.8459   36.6236 C.3       1 MOL     0.0379
      5 C           8.5539   13.8303   36.5548 C.ar      1 MOL    -0.0471
      6 C           8.8251   15.1468   36.8474 C.ar      1 MOL     0.0037
      7 C           7.8367   16.0877   36.7973 C.ar      1 MOL     0.0044
      8 C           6.5542   15.7360   36.4537 C.ar      1 MOL    -0.0391
      9 C           6.2719   14.4252   36.1590 C.ar      1 MOL     0.0044
     10 C           7.2714   13.4772   36.2107 C.ar      1 MOL     0.0037
     11 C           5.4697   16.7303   36.3919 C.3       1 MOL     0.0614
     12 C           5.3208   17.2185   34.9512 C.3       1 MOL     0.0185
     13 C           4.2188   16.0475   36.8351 C.2       1 MOL     0.0489
     14 O           3.1094   16.4314   36.4373 O.co2     1 MOL    -0.5492
     15 O           4.3183   14.9877   37.6905 O.co2     1 MOL    -0.5492
     16 H           8.6412    9.6363   36.9100 H         1 MOL     0.0232
     17 H           9.8122   10.3105   35.8015 H         1 MOL     0.0232
     18 H           8.1464   10.8347   35.7380 H         1 MOL     0.0232
     19 H           8.3658   11.8197   37.9421 H         1 MOL     0.0299
     20 H          11.2094   10.9629   37.7750 H         1 MOL     0.0232
     21 H           9.9958   10.3062   38.8465 H         1 MOL     0.0232
     22 H          10.5070   11.9681   39.0196 H         1 MOL     0.0232
     23 H           9.9495   12.5744   35.6298 H         1 MOL     0.0316
     24 H          10.4812   13.2943   37.1447 H         1 MOL     0.0316
     25 H           9.7840   15.4259   37.1079 H         1 MOL     0.0620
     26 H           8.0557   17.0718   37.0199 H         1 MOL     0.0621
     27 H           5.3120   14.1491   35.8986 H         1 MOL     0.0621
     28 H           7.0552   12.4928   35.9890 H         1 MOL     0.0620
     29 H           5.6757   17.5732   37.0183 H         1 MOL     0.0406
     30 H           5.1146   16.3854   34.3120 H         1 MOL     0.0239
     31 H           6.2296   17.6903   34.6398 H         1 MOL     0.0239
     32 H           4.5163   17.9211   34.8943 H         1 MOL     0.0239
@<TRIPOS>BOND
     1    1    2 1 
     2    1   16 1 
     3    1   17 1 
     4    1   18 1 
     5    2    3 1 
     6    2    4 1 
     7    2   19 1 
     8    3   20 1 
     9    3   21 1 
    10    3   22 1 
    11    4    5 1 
    12    4   23 1 
    13    4   24 1 
    14    5    6 ar
    15    5   10 ar
    16    6    7 ar
    17    6   25 1 
    18    7    8 ar
    19    7   26 1 
    20    8    9 ar
    21    8   11 1 
    22    9   10 ar
    23    9   27 1 
    24   10   28 1 
    25   11   12 1 
    26   11   13 1 
    27   11   29 1 
    28   12   30 1 
    29   12   31 1 
    30   12   32 1 
    31   13   14 ar
    32   13   15 ar
@<TRIPOS>SUBSTRUCTURE
1 MOL         1
@<TRIPOS>MOLECULE
query molecule
   32    32     1     0     0
SMALL
NO_CHARGE

@<TRIPOS>ATOM
      1 C           5.1580   11.1105   32.0531 C.3       1 MOL     0.0072
      2 C           4.7525   10.4738   30.7569 C.3       1 MOL    -0.0128
      3 C           3.5153    9.6521   30.9320 C.3       1 MOL     0.0072
      4 C           4.5332   11.5466   29.7271 C.3       1 MOL     0.0379
      5 C           3.7064   12.6514   30.2713 C.ar      1 MOL    -0.0471
      6 C           4.3030   13.8703   30.4959 C.ar      1 MOL     0.0037
      7 C           3.5809   14.9158   30.9961 C.ar      1 MOL     0.0044
      8 C           2.2460   14.7686   31.2837 C.ar      1 MOL    -0.0391
      9 C           1.6396   13.5569   31.0630 C.ar      1 MOL     0.0044
     10 C           2.3709   12.5029   30.5583 C.ar      1 MOL     0.0037
     11 C           1.4440   15.8795   31.8237 C.3       1 MOL     0.0614
     12 C           0.0005   15.7336   31.3429 C.3       1 MOL     0.0185
     13 C           1.5023   15.7834   33.3119 C.2       1 MOL     0.0489
     14 O           0.8902   16.5909   34.0259 O.co2     1 MOL    -0.5492
     15 O           2.2452   14.7860   33.8758 O.co2     1 MOL    -0.5492
     16 H           5.3151   10.3498   32.7900 H         1 MOL     0.0232
     17 H           4.3846   11.7722   32.3831 H         1 MOL     0.0232
     18 H           6.0635   11.6620   31.9110 H         1 MOL     0.0232
     19 H           5.5320    9.8198   30.4277 H         1 MOL     0.0299
     20 H           2.7142   10.2802   31.2620 H         1 MOL     0.0232
     21 H           3.6938    8.8899   31.6612 H         1 MOL     0.0232
     22 H           3.2520    9.1991   29.9992 H         1 MOL     0.0232
     23 H           4.0354   11.1220   28.8809 H         1 MOL     0.0316
     24 H           5.4855   11.9439   29.4442 H         1 MOL     0.0316
     25 H           5.3056   13.9956   30.2853 H         1 MOL     0.0620
     26 H           4.0429   15.8245   31.1596 H         1 MOL     0.0621
     27 H           0.6367   13.4346   31.2744 H         1 MOL     0.0621
     28 H           1.9118   11.5933   30.3942 H         1 MOL     0.0620
     29 H           1.8185   16.8272   31.4969 H         1 MOL     0.0406
     30 H          -0.3879   14.7890   31.6624 H         1 MOL     0.0239
     31 H          -0.0255   15.7867   30.2742 H         1 MOL     0.0239
     32 H          -0.5935   16.5224   31.7540 H         1 MOL     0.0239
@<TRIPOS>BOND
     1    1    2 1 
     2    1   16 1 
     3    1   17 1 
     4    1   18 1 
     5    2    3 1 
     6    2    4 1 
     7    2   19 1 
     8    3   20 1 
     9    3   21 1 
    10    3   22 1 
    11    4    5 1 
    12    4   23 1 
    13    4   24 1 
    14    5    6 ar
    15    5   10 ar
    16    6    7 ar
    17    6   25 1 
    18    7    8 ar
    19    7   26 1 
    20    8    9 ar
    21    8   11 1 
    22    9   10 ar
    23    9   27 1 
    24   10   28 1 
    25   11   12 1 
    26   11   13 1 
    27   11   29 1 
    28   12   30 1 
    29   12   31 1 
    30   12   32 1 
    31   13   14 ar
    32   13   15 ar
@<TRIPOS>SUBSTRUCTURE
1 MOL         1
@<TRIPOS>MOLECULE
query molecule
   32    32     1     0     0
SMALL
NO_CHARGE

@<TRIPOS>ATOM
      1 C           3.9270   -0.1565   -4.2236 C.3       1 MOL     0.0072
      2 C           3.3358   -0.8114   -3.0106 C.3       1 MOL    -0.0128
      3 C           1.8419   -0.8107   -3.0805 C.3       1 MOL     0.0072
      4 C           3.8593   -2.2164   -2.9034 C.3       1 MOL     0.0379
      5 C           3.8791   -2.8838   -4.2279 C.ar      1 MOL    -0.0471
      6 C           5.0754   -3.3712   -4.7009 C.ar      1 MOL     0.0037
      7 C           5.1412   -3.9927   -5.9151 C.ar      1 MOL     0.0044
      8 C           4.0139   -4.1421   -6.6854 C.ar      1 MOL    -0.0391
      9 C           2.8144   -3.6601   -6.2234 C.ar      1 MOL     0.0044
     10 C           2.7507   -3.0328   -4.9975 C.ar      1 MOL     0.0037
     11 C           4.0568   -4.8082   -7.9981 C.3       1 MOL     0.0614
     12 C           2.6290   -5.1110   -8.4517 C.3       1 MOL     0.0185
     13 C           4.7096   -3.8635   -8.9515 C.2       1 MOL     0.0489
     14 O           5.6983   -4.2102   -9.6139 O.co2     1 MOL    -0.5492
     15 O           4.1964   -2.6048   -9.0817 O.co2     1 MOL    -0.5492
     16 H           3.5566    0.8449   -4.3041 H         1 MOL     0.0232
     17 H           3.6525   -0.7095   -5.0974 H         1 MOL     0.0232
     18 H           4.9927   -0.1364   -4.1337 H         1 MOL     0.0232
     19 H           3.6197   -0.2595   -2.1397 H         1 MOL     0.0299
     20 H           1.5255   -1.3573   -3.9444 H         1 MOL     0.0232
     21 H           1.4887    0.1969   -3.1475 H         1 MOL     0.0232
     22 H           1.4426   -1.2713   -2.2013 H         1 MOL     0.0232
     23 H           3.2310   -2.7737   -2.2409 H         1 MOL     0.0316
     24 H           4.8608   -2.1768   -2.5290 H         1 MOL     0.0316
     25 H           5.9310   -3.2656   -4.1334 H         1 MOL     0.0620
     26 H           6.0464   -4.3531   -6.2566 H         1 MOL     0.0621
     27 H           1.9603   -3.7674   -6.7931 H         1 MOL     0.0621
     28 H           1.8472   -2.6713   -4.6538 H         1 MOL     0.0620
     29 H           4.6027   -5.7275   -7.9526 H         1 MOL     0.0406
     30 H           2.0701   -4.1998   -8.5017 H         1 MOL     0.0239
     31 H           2.1665   -5.7749   -7.7512 H         1 MOL     0.0239
     32 H           2.6518   -5.5704   -9.4175 H         1 MOL     0.0239
@<TRIPOS>BOND
     1    1    2 1 
     2    1   16 1 
     3    1   17 1 
     4    1   18 1 
     5    2    3 1 
     6    2    4 1 
     7    2   19 1 
     8    3   20 1 
     9    3   21 1 
    10    3   22 1 
    11    4    5 1 
    12    4   23 1 
    13    4   24 1 
    14    5    6 ar
    15    5   10 ar
    16    6    7 ar
    17    6   25 1 
    18    7    8 ar
    19    7   26 1 
    20    8    9 ar
    21    8   11 1 
    22    9   10 ar
    23    9   27 1 
    24   10   28 1 
    25   11   12 1 
    26   11   13 1 
    27   11   29 1 
    28   12   30 1 
    29   12   31 1 
    30   12   32 1 
    31   13   14 ar
    32   13   15 ar
@<TRIPOS>SUBSTRUCTURE
1 MOL         1
@<TRIPOS>MOLECULE
query molecule
   32    32     1     0     0
SMALL
NO_CHARGE

@<TRIPOS>ATOM
      1 C          17.8524   27.6367   32.1538 C.3       1 MOL     0.0072
      2 C          19.1246   27.0414   31.6273 C.3       1 MOL    -0.0128
      3 C          18.9530   25.5825   31.3465 C.3       1 MOL     0.0072
      4 C          19.5342   27.7750   30.3809 C.3       1 MOL     0.0379
      5 C          18.4358   27.7940   29.3842 C.ar      1 MOL    -0.0471
      6 C          17.7237   28.9584   29.2125 C.ar      1 MOL     0.0037
      7 C          16.7039   29.0221   28.3065 C.ar      1 MOL     0.0044
      8 C          16.3713   27.9244   27.5508 C.ar      1 MOL    -0.0391
      9 C          17.0754   26.7572   27.7132 C.ar      1 MOL     0.0044
     10 C          18.1042   26.6954   28.6287 C.ar      1 MOL     0.0037
     11 C          15.2764   27.9659   26.5669 C.3       1 MOL     0.0614
     12 C          14.2590   29.0229   26.9956 C.3       1 MOL     0.0185
     13 C          15.8781   28.3350   25.2519 C.2       1 MOL     0.0489
     14 O          16.4461   27.4848   24.5511 O.co2     1 MOL    -0.5492
     15 O          15.7916   29.6317   24.8324 O.co2     1 MOL    -0.5492
     16 H          17.5567   27.1168   33.0418 H         1 MOL     0.0232
     17 H          17.0837   27.5465   31.4151 H         1 MOL     0.0232
     18 H          18.0102   28.6700   32.3810 H         1 MOL     0.0232
     19 H          19.8914   27.1412   32.3660 H         1 MOL     0.0299
     20 H          18.1898   25.4493   30.6082 H         1 MOL     0.0232
     21 H          18.6704   25.0772   32.2461 H         1 MOL     0.0232
     22 H          19.8744   25.1775   30.9837 H         1 MOL     0.0232
     23 H          20.3855   27.2886   29.9531 H         1 MOL     0.0316
     24 H          19.7699   28.7848   30.6445 H         1 MOL     0.0316
     25 H          17.9618   29.7911   29.7738 H         1 MOL     0.0620
     26 H          16.1785   29.9030   28.1891 H         1 MOL     0.0621
     27 H          16.8351   25.9260   27.1502 H         1 MOL     0.0621
     28 H          18.6309   25.8159   28.7483 H         1 MOL     0.0620
     29 H          14.7780   27.0214   26.4962 H         1 MOL     0.0406
     30 H          14.7436   29.9741   27.0709 H         1 MOL     0.0239
     31 H          13.8481   28.7558   27.9470 H         1 MOL     0.0239
     32 H          13.4745   29.0773   26.2705 H         1 MOL     0.0239
@<TRIPOS>BOND
     1    1    2 1 
     2    1   16 1 
     3    1   17 1 
     4    1   18 1 
     5    2    3 1 
     6    2    4 1 
     7    2   19 1 
     8    3   20 1 
     9    3   21 1 
    10    3   22 1 
    11    4    5 1 
    12    4   23 1 
    13    4   24 1 
    14    5    6 ar
    15    5   10 ar
    16    6    7 ar
    17    6   25 1 
    18    7    8 ar
    19    7   26 1 
    20    8    9 ar
    21    8   11 1 
    22    9   10 ar
    23    9   27 1 
    24   10   28 1 
    25   11   12 1 
    26   11   13 1 
    27   11   29 1 
    28   12   30 1 
    29   12   31 1 
    30   12   32 1 
    31   13   14 ar
    32   13   15 ar
@<TRIPOS>SUBSTRUCTURE
1 MOL         1
@<TRIPOS>MOLECULE
query molecule
   32    32     1     0     0
SMALL
NO_CHARGE

@<TRIPOS>ATOM
      1 C          14.9452   19.9958    2.3541 C.3       1 MOL     0.0072
      2 C          15.0712   19.7173    0.8856 C.3       1 MOL    -0.0128
      3 C          13.8692   18.9867    0.3776 C.3       1 MOL     0.0072
      4 C          15.2503   21.0161    0.1503 C.3       1 MOL     0.0379
      5 C          14.1482   21.9611    0.4547 C.ar      1 MOL    -0.0471
      6 C          14.3317   23.2962    0.1787 C.ar      1 MOL     0.0037
      7 C          13.3448   24.2023    0.4426 C.ar      1 MOL     0.0044
      8 C          12.1514   23.7965    0.9882 C.ar      1 MOL    -0.0391
      9 C          11.9567   22.4665    1.2673 C.ar      1 MOL     0.0044
     10 C          12.9548   21.5538    1.0004 C.ar      1 MOL     0.0037
     11 C          11.0707   24.7525    1.2825 C.3       1 MOL     0.0614
     12 C           9.7294   24.0212    1.2336 C.3       1 MOL     0.0185
     13 C          11.3151   25.2866    2.6545 C.2       1 MOL     0.0489
     14 O          12.4498   25.6402    3.0067 O.co2     1 MOL    -0.5492
     15 O          10.2621   25.3794    3.5191 O.co2     1 MOL    -0.5492
     16 H          14.8171   19.0731    2.8820 H         1 MOL     0.0232
     17 H          14.0977   20.6258    2.5265 H         1 MOL     0.0232
     18 H          15.8307   20.4854    2.7010 H         1 MOL     0.0232
     19 H          15.9240   19.0941    0.7181 H         1 MOL     0.0299
     20 H          12.9964   19.5866    0.5314 H         1 MOL     0.0232
     21 H          13.7639   18.0627    0.9063 H         1 MOL     0.0232
     22 H          13.9862   18.7890   -0.6673 H         1 MOL     0.0232
     23 H          15.2640   20.8228   -0.9017 H         1 MOL     0.0316
     24 H          16.1724   21.4585    0.4645 H         1 MOL     0.0316
     25 H          15.2234   23.6160   -0.2307 H         1 MOL     0.0620
     26 H          13.4974   25.2011    0.2301 H         1 MOL     0.0621
     27 H          11.0637   22.1495    1.6766 H         1 MOL     0.0621
     28 H          12.8050   20.5549    1.2120 H         1 MOL     0.0620
     29 H          11.0501   25.5511    0.5704 H         1 MOL     0.0406
     30 H           9.7351   23.2184    1.9413 H         1 MOL     0.0239
     31 H           9.5742   23.6283    0.2502 H         1 MOL     0.0239
     32 H           8.9420   24.7042    1.4736 H         1 MOL     0.0239
@<TRIPOS>BOND
     1    1    2 1 
     2    1   16 1 
     3    1   17 1 
     4    1   18 1 
     5    2    3 1 
     6    2    4 1 
     7    2   19 1 
     8    3   20 1 
     9    3   21 1 
    10    3   22 1 
    11    4    5 1 
    12    4   23 1 
    13    4   24 1 
    14    5    6 ar
    15    5   10 ar
    16    6    7 ar
    17    6   25 1 
    18    7    8 ar
    19    7   26 1 
    20    8    9 ar
    21    8   11 1 
    22    9   10 ar
    23    9   27 1 
    24   10   28 1 
    25   11   12 1 
    26   11   13 1 
    27   11   29 1 
    28   12   30 1 
    29   12   31 1 
    30   12   32 1 
    31   13   14 ar
    32   13   15 ar
@<TRIPOS>SUBSTRUCTURE
1 MOL         1
@<TRIPOS>MOLECULE
query molecule
   32    32     1     0     0
SMALL
NO_CHARGE

@<TRIPOS>ATOM
      1 C           3.1933   -2.5975   -2.2047 C.3       1 MOL     0.0072
      2 C           3.8369   -1.5437   -3.0563 C.3       1 MOL    -0.0128
      3 C           5.0971   -2.0572   -3.6764 C.3       1 MOL     0.0072
      4 C           2.8663   -1.1053   -4.1171 C.3       1 MOL     0.0379
      5 C           2.2555   -2.2717   -4.8002 C.ar      1 MOL    -0.0471
      6 C           0.9519   -2.5977   -4.5061 C.ar      1 MOL     0.0037
      7 C           0.3487   -3.6634   -5.1106 C.ar      1 MOL     0.0044
      8 C           1.0333   -4.4285   -6.0229 C.ar      1 MOL    -0.0391
      9 C           2.3346   -4.1123   -6.3248 C.ar      1 MOL     0.0044
     10 C           2.9414   -3.0362   -5.7129 C.ar      1 MOL     0.0037
     11 C           0.4069   -5.5827   -6.6893 C.3       1 MOL     0.0614
     12 C          -0.4631   -6.3311   -5.6796 C.3       1 MOL     0.0185
     13 C          -0.4369   -5.0480   -7.7981 C.2       1 MOL     0.0489
     14 O          -0.5382   -3.8274   -7.9887 O.co2     1 MOL    -0.5492
     15 O          -1.0985   -5.9311   -8.6028 O.co2     1 MOL    -0.5492
     16 H           3.8814   -2.9130   -1.4475 H         1 MOL     0.0232
     17 H           2.9256   -3.4349   -2.8146 H         1 MOL     0.0232
     18 H           2.3154   -2.1959   -1.7440 H         1 MOL     0.0232
     19 H           4.0951   -0.7061   -2.4435 H         1 MOL     0.0299
     20 H           4.8712   -2.8986   -4.2978 H         1 MOL     0.0232
     21 H           5.7773   -2.3556   -2.9064 H         1 MOL     0.0232
     22 H           5.5440   -1.2864   -4.2686 H         1 MOL     0.0232
     23 H           3.3836   -0.5093   -4.8391 H         1 MOL     0.0316
     24 H           2.0870   -0.5400   -3.6501 H         1 MOL     0.0316
     25 H           0.4251   -2.0323   -3.8220 H         1 MOL     0.0620
     26 H          -0.6303   -3.8957   -4.8793 H         1 MOL     0.0621
     27 H           2.8589   -4.6794   -7.0096 H         1 MOL     0.0621
     28 H           3.9200   -2.8019   -5.9420 H         1 MOL     0.0620
     29 H           1.1420   -6.2589   -7.0737 H         1 MOL     0.0406
     30 H          -1.2038   -5.6666   -5.2858 H         1 MOL     0.0239
     31 H           0.1506   -6.6941   -4.8815 H         1 MOL     0.0239
     32 H          -0.9428   -7.1552   -6.1643 H         1 MOL     0.0239
@<TRIPOS>BOND
     1    1    2 1 
     2    1   16 1 
     3    1   17 1 
     4    1   18 1 
     5    2    3 1 
     6    2    4 1 
     7    2   19 1 
     8    3   20 1 
     9    3   21 1 
    10    3   22 1 
    11    4    5 1 
    12    4   23 1 
    13    4   24 1 
    14    5    6 ar
    15    5   10 ar
    16    6    7 ar
    17    6   25 1 
    18    7    8 ar
    19    7   26 1 
    20    8    9 ar
    21    8   11 1 
    22    9   10 ar
    23    9   27 1 
    24   10   28 1 
    25   11   12 1 
    26   11   13 1 
    27   11   29 1 
    28   12   30 1 
    29   12   31 1 
    30   12   32 1 
    31   13   14 ar
    32   13   15 ar
@<TRIPOS>SUBSTRUCTURE
1 MOL         1
@<TRIPOS>MOLECULE
query molecule
   32    32     1     0     0
SMALL
NO_CHARGE

@<TRIPOS>ATOM
      1 C          17.4740    7.6313   -4.3976 C.3       1 MOL     0.0072
      2 C          16.2396    7.3585   -3.5903 C.3       1 MOL    -0.0128
      3 C          15.0235    7.8848   -4.2835 C.3       1 MOL     0.0072
      4 C          16.1175    5.8781   -3.3599 C.3       1 MOL     0.0379
      5 C          14.7874    5.3771   -3.7842 C.ar      1 MOL    -0.0471
      6 C          13.7304    5.4975   -2.9122 C.ar      1 MOL     0.0037
      7 C          12.4880    5.0500   -3.2600 C.ar      1 MOL     0.0044
      8 C          12.2721    4.4718   -4.4871 C.ar      1 MOL    -0.0391
      9 C          13.3193    4.3468   -5.3659 C.ar      1 MOL     0.0044
     10 C          14.5726    4.7990   -5.0121 C.ar      1 MOL     0.0037
     11 C          10.9426    3.9809   -4.8875 C.3       1 MOL     0.0614
     12 C          10.0243    5.1760   -5.1414 C.3       1 MOL     0.0185
     13 C          11.1221    3.1946   -6.1433 C.2       1 MOL     0.0489
     14 O          12.1825    3.2506   -6.7828 O.co2     1 MOL    -0.5492
     15 O          10.0930    2.4090   -6.5775 O.co2     1 MOL    -0.5492
     16 H          17.5649    8.6850   -4.5644 H         1 MOL     0.0232
     17 H          17.4043    7.1261   -5.3382 H         1 MOL     0.0232
     18 H          18.3325    7.2789   -3.8656 H         1 MOL     0.0232
     19 H          16.3179    7.8589   -2.6485 H         1 MOL     0.0299
     20 H          14.9171    7.4016   -5.2324 H         1 MOL     0.0232
     21 H          15.1255    8.9396   -4.4305 H         1 MOL     0.0232
     22 H          14.1583    7.6896   -3.6852 H         1 MOL     0.0232
     23 H          16.2513    5.6745   -2.3183 H         1 MOL     0.0316
     24 H          16.8672    5.3822   -3.9403 H         1 MOL     0.0316
     25 H          13.8777    5.9292   -1.9864 H         1 MOL     0.0620
     26 H          11.7047    5.1471   -2.5946 H         1 MOL     0.0621
     27 H          13.1689    3.9148   -6.2912 H         1 MOL     0.0621
     28 H          15.3576    4.7028   -5.6752 H         1 MOL     0.0620
     29 H          10.5052    3.3702   -4.1253 H         1 MOL     0.0406
     30 H          10.4495    5.7970   -5.9023 H         1 MOL     0.0239
     31 H           9.9178    5.7409   -4.2386 H         1 MOL     0.0239
     32 H           9.0645    4.8268   -5.4593 H         1 MOL     0.0239
@<TRIPOS>BOND
     1    1    2 1 
     2    1   16 1 
     3    1   17 1 
     4    1   18 1 
     5    2    3 1 
     6    2    4 1 
     7    2   19 1 
     8    3   20 1 
     9    3   21 1 
    10    3   22 1 
    11    4    5 1 
    12    4   23 1 
    13    4   24 1 
    14    5    6 ar
    15    5   10 ar
    16    6    7 ar
    17    6   25 1 
    18    7    8 ar
    19    7   26 1 
    20    8    9 ar
    21    8   11 1 
    22    9   10 ar
    23    9   27 1 
    24   10   28 1 
    25   11   12 1 
    26   11   13 1 
    27   11   29 1 
    28   12   30 1 
    29   12   31 1 
    30   12   32 1 
    31   13   14 ar
    32   13   15 ar
@<TRIPOS>SUBSTRUCTURE
1 MOL         1
@<TRIPOS>MOLECULE
query molecule
   32    32     1     0     0
SMALL
NO_CHARGE

@<TRIPOS>ATOM
      1 C          10.9744   27.4541    5.3190 C.3       1 MOL     0.0072
      2 C          11.6935   26.2221    4.8552 C.3       1 MOL    -0.0128
      3 C          12.6191   25.7156    5.9150 C.3       1 MOL     0.0072
      4 C          10.6843   25.1703    4.4881 C.3       1 MOL     0.0379
      5 C          11.0296   24.5223    3.1993 C.ar      1 MOL    -0.0471
      6 C          12.1069   25.0010    2.4903 C.ar      1 MOL     0.0037
      7 C          12.4615   24.4357    1.2989 C.ar      1 MOL     0.0044
      8 C          11.7485   23.3790    0.7875 C.ar      1 MOL    -0.0391
      9 C          10.6718   22.8924    1.4865 C.ar      1 MOL     0.0044
     10 C          10.3157   23.4651    2.6888 C.ar      1 MOL     0.0037
     11 C          12.1092   22.7509   -0.4947 C.3       1 MOL     0.0614
     12 C          12.5234   21.3015   -0.2421 C.3       1 MOL     0.0185
     13 C          10.8971   22.7950   -1.3645 C.2       1 MOL     0.0489
     14 O          10.2037   21.7829   -1.5411 O.co2     1 MOL    -0.5492
     15 O          10.5639   23.9753   -1.9651 O.co2     1 MOL    -0.5492
     16 H          11.6897   28.2063    5.5820 H         1 MOL     0.0232
     17 H          10.3755   27.2175    6.1735 H         1 MOL     0.0232
     18 H          10.3472   27.8177    4.5325 H         1 MOL     0.0232
     19 H          12.2842   26.4622    3.9967 H         1 MOL     0.0299
     20 H          12.0560   25.4658    6.7901 H         1 MOL     0.0232
     21 H          13.3340   26.4742    6.1561 H         1 MOL     0.0232
     22 H          13.1286   24.8451    5.5585 H         1 MOL     0.0232
     23 H           9.7203   25.6259    4.4026 H         1 MOL     0.0316
     24 H          10.6813   24.4223    5.2532 H         1 MOL     0.0316
     25 H          12.6517   25.7950    2.8618 H         1 MOL     0.0620
     26 H          13.2724   24.8063    0.7783 H         1 MOL     0.0621
     27 H          10.1290   22.0981    1.1125 H         1 MOL     0.0621
     28 H           9.5054   23.0969    3.2111 H         1 MOL     0.0620
     29 H          12.9236   23.2616   -0.9650 H         1 MOL     0.0406
     30 H          11.7178   20.7775    0.2288 H         1 MOL     0.0239
     31 H          13.3822   21.2831    0.3963 H         1 MOL     0.0239
     32 H          12.7605   20.8312   -1.1731 H         1 MOL     0.0239
@<TRIPOS>BOND
     1    1    2 1 
     2    1   16 1 
     3    1   17 1 
     4    1   18 1 
     5    2    3 1 
     6    2    4 1 
     7    2   19 1 
     8    3   20 1 
     9    3   21 1 
    10    3   22 1 
    11    4    5 1 
    12    4   23 1 
    13    4   24 1 
    14    5    6 ar
    15    5   10 ar
    16    6    7 ar
    17    6   25 1 
    18    7    8 ar
    19    7   26 1 
    20    8    9 ar
    21    8   11 1 
    22    9   10 ar
    23    9   27 1 
    24   10   28 1 
    25   11   12 1 
    26   11   13 1 
    27   11   29 1 
    28   12   30 1 
    29   12   31 1 
    30   12   32 1 
    31   13   14 ar
    32   13   15 ar
@<TRIPOS>SUBSTRUCTURE
1 MOL         1
@<TRIPOS>MOLECULE
query molecule
   32    32     1     0     0
SMALL
NO_CHARGE

@<TRIPOS>ATOM
      1 C          -1.8767   12.2260   -1.0337 C.3       1 MOL     0.0072
      2 C          -1.1687   12.4017   -2.3444 C.3       1 MOL    -0.0128
      3 C          -0.8200   13.8380   -2.5723 C.3       1 MOL     0.0072
      4 C           0.0693   11.5492   -2.3550 C.3       1 MOL     0.0379
      5 C          -0.2734   10.1062   -2.3823 C.ar      1 MOL    -0.0471
      6 C          -1.2018    9.6680   -3.2978 C.ar      1 MOL     0.0037
      7 C          -1.5484    8.3486   -3.3590 C.ar      1 MOL     0.0044
      8 C          -0.9759    7.4358   -2.5072 C.ar      1 MOL    -0.0391
      9 C          -0.0476    7.8614   -1.5897 C.ar      1 MOL     0.0044
     10 C           0.3002    9.1940   -1.5298 C.ar      1 MOL     0.0037
     11 C          -1.3314    6.0074   -2.5518 C.3       1 MOL     0.0614
     12 C          -0.2667    5.2038   -1.8056 C.3       1 MOL     0.0185
     13 C          -2.6539    5.8602   -1.8760 C.2       1 MOL     0.0489
     14 O          -3.0759    4.7442   -1.5399 O.co2     1 MOL    -0.5492
     15 O          -3.3945    6.9816   -1.6333 O.co2     1 MOL    -0.5492
     16 H          -2.7594   12.8319   -1.0216 H         1 MOL     0.0232
     17 H          -1.2291   12.5233   -0.2355 H         1 MOL     0.0232
     18 H          -2.1475   11.1986   -0.9102 H         1 MOL     0.0232
     19 H          -1.8171   12.0957   -3.1378 H         1 MOL     0.0299
     20 H          -0.1696   14.1749   -1.7921 H         1 MOL     0.0232
     21 H          -1.7135   14.4264   -2.5699 H         1 MOL     0.0232
     22 H          -0.3273   13.9408   -3.5164 H         1 MOL     0.0232
     23 H           0.6429   11.7553   -1.4759 H         1 MOL     0.0316
     24 H           0.6320   11.7804   -3.2351 H         1 MOL     0.0316
     25 H          -1.6410   10.3425   -3.9439 H         1 MOL     0.0620
     26 H          -2.2470    8.0349   -4.0514 H         1 MOL     0.0621
     27 H           0.3901    7.1845   -0.9450 H         1 MOL     0.0621
     28 H           0.9980    9.5104   -0.8384 H         1 MOL     0.0620
     29 H          -1.3860    5.6491   -3.5588 H         1 MOL     0.0406
     30 H          -0.2003    5.5516   -0.7957 H         1 MOL     0.0239
     31 H           0.6794    5.3316   -2.2895 H         1 MOL     0.0239
     32 H          -0.5332    4.1679   -1.8107 H         1 MOL     0.0239
@<TRIPOS>BOND
     1    1    2 1 
     2    1   16 1 
     3    1   17 1 
     4    1   18 1 
     5    2    3 1 
     6    2    4 1 
     7    2   19 1 
     8    3   20 1 
     9    3   21 1 
    10    3   22 1 
    11    4    5 1 
    12    4   23 1 
    13    4   24 1 
    14    5    6 ar
    15    5   10 ar
    16    6    7 ar
    17    6   25 1 
    18    7    8 ar
    19    7   26 1 
    20    8    9 ar
    21    8   11 1 
    22    9   10 ar
    23    9   27 1 
    24   10   28 1 
    25   11   12 1 
    26   11   13 1 
    27   11   29 1 
    28   12   30 1 
    29   12   31 1 
    30   12   32 1 
    31   13   14 ar
    32   13   15 ar
@<TRIPOS>SUBSTRUCTURE
1 MOL         1
@<TRIPOS>MOLECULE
query molecule
   32    32     1     0     0
SMALL
NO_CHARGE

@<TRIPOS>ATOM
      1 C          -6.0083   23.0200   29.2815 C.3       1 MOL     0.0072
      2 C          -6.1257   23.0773   27.7872 C.3       1 MOL    -0.0128
      3 C          -7.5470   22.8979   27.3580 C.3       1 MOL     0.0072
      4 C          -5.5885   24.3938   27.2998 C.3       1 MOL     0.0379
      5 C          -4.1594   24.2819   26.9185 C.ar      1 MOL    -0.0471
      6 C          -3.8493   23.8618   25.6459 C.ar      1 MOL     0.0037
      7 C          -2.5474   23.7437   25.2510 C.ar      1 MOL     0.0044
      8 C          -1.5247   24.0425   26.1178 C.ar      1 MOL    -0.0391
      9 C          -1.8221   24.4634   27.3902 C.ar      1 MOL     0.0044
     10 C          -3.1372   24.5814   27.7865 C.ar      1 MOL     0.0037
     11 C          -0.1123   23.9240   25.7177 C.3       1 MOL     0.0614
     12 C           0.7229   24.9091   26.5351 C.3       1 MOL     0.0185
     13 C           0.3132   22.5236   26.0096 C.2       1 MOL     0.0489
     14 O           1.4799   22.1577   25.8060 O.co2     1 MOL    -0.5492
     15 O          -0.6095   21.6483   26.5070 O.co2     1 MOL    -0.5492
     16 H          -6.3901   22.0836   29.6332 H         1 MOL     0.0232
     17 H          -6.5714   23.8200   29.7148 H         1 MOL     0.0232
     18 H          -4.9802   23.1140   29.5617 H         1 MOL     0.0232
     19 H          -5.5549   22.2807   27.3591 H         1 MOL     0.0299
     20 H          -8.1458   23.6825   27.7717 H         1 MOL     0.0232
     21 H          -7.9080   21.9530   27.7064 H         1 MOL     0.0232
     22 H          -7.6049   22.9306   26.2902 H         1 MOL     0.0232
     23 H          -5.6863   25.1208   28.0785 H         1 MOL     0.0316
     24 H          -6.1474   24.6887   26.4364 H         1 MOL     0.0316
     25 H          -4.6072   23.6329   24.9838 H         1 MOL     0.0620
     26 H          -2.3305   23.4268   24.2927 H         1 MOL     0.0621
     27 H          -1.0619   24.6917   28.0500 H         1 MOL     0.0621
     28 H          -3.3569   24.8976   28.7440 H         1 MOL     0.0620
     29 H           0.0198   24.1443   24.6789 H         1 MOL     0.0406
     30 H           0.6005   24.7010   27.5776 H         1 MOL     0.0239
     31 H           0.3967   25.9076   26.3302 H         1 MOL     0.0239
     32 H           1.7540   24.8088   26.2688 H         1 MOL     0.0239
@<TRIPOS>BOND
     1    1    2 1 
     2    1   16 1 
     3    1   17 1 
     4    1   18 1 
     5    2    3 1 
     6    2    4 1 
     7    2   19 1 
     8    3   20 1 
     9    3   21 1 
    10    3   22 1 
    11    4    5 1 
    12    4   23 1 
    13    4   24 1 
    14    5    6 ar
    15    5   10 ar
    16    6    7 ar
    17    6   25 1 
    18    7    8 ar
    19    7   26 1 
    20    8    9 ar
    21    8   11 1 
    22    9   10 ar
    23    9   27 1 
    24   10   28 1 
    25   11   12 1 
    26   11   13 1 
    27   11   29 1 
    28   12   30 1 
    29   12   31 1 
    30   12   32 1 
    31   13   14 ar
    32   13   15 ar
@<TRIPOS>SUBSTRUCTURE
1 MOL         1
@<TRIPOS>MOLECULE
query molecule
   32    32     1     0     0
SMALL
NO_CHARGE

@<TRIPOS>ATOM
      1 C           0.1451   23.1460   28.4606 C.3       1 MOL     0.0072
      2 C          -0.9071   22.6098   27.5357 C.3       1 MOL    -0.0128
      3 C          -2.2091   22.4412   28.2518 C.3       1 MOL     0.0072
      4 C          -1.0625   23.5455   26.3695 C.3       1 MOL     0.0379
      5 C          -2.0869   23.0506   25.4177 C.ar      1 MOL    -0.0471
      6 C          -3.0490   23.9272   24.9725 C.ar      1 MOL     0.0037
      7 C          -4.0120   23.5157   24.0960 C.ar      1 MOL     0.0044
      8 C          -4.0367   22.2191   23.6436 C.ar      1 MOL    -0.0391
      9 C          -3.0813   21.3355   24.0806 C.ar      1 MOL     0.0044
     10 C          -2.1105   21.7533   24.9657 C.ar      1 MOL     0.0037
     11 C          -5.0637   21.7493   22.6985 C.3       1 MOL     0.0614
     12 C          -5.9938   20.7716   23.4164 C.3       1 MOL     0.0185
     13 C          -5.8286   22.9481   22.2456 C.2       1 MOL     0.0489
     14 O          -5.2418   23.9822   21.8954 O.co2     1 MOL    -0.5492
     15 O          -7.1926   22.8856   22.2239 O.co2     1 MOL    -0.5492
     16 H           0.2591   22.4825   29.2932 H         1 MOL     0.0232
     17 H          -0.1481   24.1128   28.8127 H         1 MOL     0.0232
     18 H           1.0743   23.2233   27.9362 H         1 MOL     0.0232
     19 H          -0.6054   21.6472   27.1806 H         1 MOL     0.0299
     20 H          -2.5385   23.3904   28.6202 H         1 MOL     0.0232
     21 H          -2.0800   21.7663   29.0718 H         1 MOL     0.0232
     22 H          -2.9399   22.0475   27.5769 H         1 MOL     0.0232
     23 H          -0.1250   23.6289   25.8613 H         1 MOL     0.0316
     24 H          -1.3768   24.4988   26.7400 H         1 MOL     0.0316
     25 H          -3.0435   24.9045   25.3043 H         1 MOL     0.0620
     26 H          -4.7275   24.1853   23.7711 H         1 MOL     0.0621
     27 H          -3.0892   20.3588   23.7468 H         1 MOL     0.0621
     28 H          -1.3942   21.0860   25.2924 H         1 MOL     0.0620
     29 H          -4.6245   21.2494   21.8603 H         1 MOL     0.0406
     30 H          -6.4407   21.2579   24.2584 H         1 MOL     0.0239
     31 H          -5.4304   19.9254   23.7511 H         1 MOL     0.0239
     32 H          -6.7587   20.4474   22.7427 H         1 MOL     0.0239
@<TRIPOS>BOND
     1    1    2 1 
     2    1   16 1 
     3    1   17 1 
     4    1   18 1 
     5    2    3 1 
     6    2    4 1 
     7    2   19 1 
     8    3   20 1 
     9    3   21 1 
    10    3   22 1 
    11    4    5 1 
    12    4   23 1 
    13    4   24 1 
    14    5    6 ar
    15    5   10 ar
    16    6    7 ar
    17    6   25 1 
    18    7    8 ar
    19    7   26 1 
    20    8    9 ar
    21    8   11 1 
    22    9   10 ar
    23    9   27 1 
    24   10   28 1 
    25   11   12 1 
    26   11   13 1 
    27   11   29 1 
    28   12   30 1 
    29   12   31 1 
    30   12   32 1 
    31   13   14 ar
    32   13   15 ar
@<TRIPOS>SUBSTRUCTURE
1 MOL         1
@<TRIPOS>MOLECULE
query molecule
   32    32     1     0     0
SMALL
NO_CHARGE

@<TRIPOS>ATOM
      1 C           2.9751   15.5492   38.2603 C.3       1 MOL     0.0072
      2 C           4.3010   15.8245   37.6152 C.3       1 MOL    -0.0128
      3 C           4.8915   14.5693   37.0563 C.3       1 MOL     0.0072
      4 C           4.1195   16.8511   36.5323 C.3       1 MOL     0.0379
      5 C           4.4178   16.2799   35.1963 C.ar      1 MOL    -0.0471
      6 C           3.4168   15.6149   34.5269 C.ar      1 MOL     0.0037
      7 C           3.6459   15.0726   33.2948 C.ar      1 MOL     0.0044
      8 C           4.8801   15.1818   32.7021 C.ar      1 MOL    -0.0391
      9 C           5.8867   15.8438   33.3604 C.ar      1 MOL     0.0044
     10 C           5.6528   16.3899   34.6043 C.ar      1 MOL     0.0037
     11 C           5.1542   14.6065   31.3744 C.3       1 MOL     0.0614
     12 C           3.8368   14.4529   30.6148 C.3       1 MOL     0.0185
     13 C           6.0528   15.5585   30.6577 C.2       1 MOL     0.0489
     14 O           7.2275   15.7191   31.0193 O.co2     1 MOL    -0.5492
     15 O           5.5561   16.2525   29.5917 O.co2     1 MOL    -0.5492
     16 H           3.0996   14.8180   39.0325 H         1 MOL     0.0232
     17 H           2.2907   15.1790   37.5258 H         1 MOL     0.0232
     18 H           2.5905   16.4531   38.6836 H         1 MOL     0.0232
     19 H           4.9785   16.2015   38.3517 H         1 MOL     0.0299
     20 H           4.2346   14.1664   36.3138 H         1 MOL     0.0232
     21 H           5.0208   13.8554   37.8425 H         1 MOL     0.0232
     22 H           5.8402   14.7874   36.6124 H         1 MOL     0.0232
     23 H           4.7792   17.6729   36.7159 H         1 MOL     0.0316
     24 H           3.1002   17.1764   36.5417 H         1 MOL     0.0316
     25 H           2.4843   15.5243   34.9601 H         1 MOL     0.0620
     26 H           2.8846   14.5762   32.8049 H         1 MOL     0.0621
     27 H           6.8180   15.9330   32.9245 H         1 MOL     0.0621
     28 H           6.4121   16.8864   35.0964 H         1 MOL     0.0620
     29 H           5.6171   13.6449   31.4527 H         1 MOL     0.0406
     30 H           3.3615   15.4079   30.5287 H         1 MOL     0.0239
     31 H           3.1951   13.7821   31.1475 H         1 MOL     0.0239
     32 H           4.0318   14.0609   29.6388 H         1 MOL     0.0239
@<TRIPOS>BOND
     1    1    2 1 
     2    1   16 1 
     3    1   17 1 
     4    1   18 1 
     5    2    3 1 
     6    2    4 1 
     7    2   19 1 
     8    3   20 1 
     9    3   21 1 
    10    3   22 1 
    11    4    5 1 
    12    4   23 1 
    13    4   24 1 
    14    5    6 ar
    15    5   10 ar
    16    6    7 ar
    17    6   25 1 
    18    7    8 ar
    19    7   26 1 
    20    8    9 ar
    21    8   11 1 
    22    9   10 ar
    23    9   27 1 
    24   10   28 1 
    25   11   12 1 
    26   11   13 1 
    27   11   29 1 
    28   12   30 1 
    29   12   31 1 
    30   12   32 1 
    31   13   14 ar
    32   13   15 ar
@<TRIPOS>SUBSTRUCTURE
1 MOL         1
@<TRIPOS>MOLECULE
query molecule
   32    32     1     0     0
SMALL
NO_CHARGE

@<TRIPOS>ATOM
      1 C          14.5647   13.3837   -6.9453 C.3       1 MOL     0.0072
      2 C          15.0122   14.4686   -6.0111 C.3       1 MOL    -0.0128
      3 C          14.0679   14.6019   -4.8592 C.3       1 MOL     0.0072
      4 C          16.4001   14.1590   -5.5237 C.3       1 MOL     0.0379
      5 C          17.1331   15.3988   -5.1691 C.ar      1 MOL    -0.0471
      6 C          17.1739   16.4237   -6.0857 C.ar      1 MOL     0.0037
      7 C          17.8371   17.5833   -5.8025 C.ar      1 MOL     0.0044
      8 C          18.4751   17.7467   -4.5972 C.ar      1 MOL    -0.0391
      9 C          18.4406   16.7309   -3.6743 C.ar      1 MOL     0.0044
     10 C          17.7708   15.5611   -3.9629 C.ar      1 MOL     0.0037
     11 C          19.1973   18.9866   -4.2662 C.3       1 MOL     0.0614
     12 C          20.7012   18.7230   -4.3366 C.3       1 MOL     0.0185
     13 C          18.8067   20.0094   -5.2805 C.2       1 MOL     0.0489
     14 O          17.6322   20.1087   -5.6641 O.co2     1 MOL    -0.5492
     15 O          19.7702   20.8375   -5.7810 O.co2     1 MOL    -0.5492
     16 H          13.5761   13.6001   -7.2949 H         1 MOL     0.0232
     17 H          14.5632   12.4464   -6.4293 H         1 MOL     0.0232
     18 H          15.2342   13.3321   -7.7779 H         1 MOL     0.0232
     19 H          15.0196   15.4015   -6.5338 H         1 MOL     0.0299
     20 H          14.0384   13.6813   -4.3144 H         1 MOL     0.0232
     21 H          13.0890   14.8304   -5.2254 H         1 MOL     0.0232
     22 H          14.4000   15.3877   -4.2136 H         1 MOL     0.0232
     23 H          16.9348   13.6458   -6.2951 H         1 MOL     0.0316
     24 H          16.3231   13.5488   -4.6482 H         1 MOL     0.0316
     25 H          16.6997   16.3151   -6.9959 H         1 MOL     0.0620
     26 H          17.8590   18.3435   -6.5008 H         1 MOL     0.0621
     27 H          18.9156   16.8425   -2.7648 H         1 MOL     0.0621
     28 H          17.7474   14.7995   -3.2668 H         1 MOL     0.0620
     29 H          18.9566   19.3285   -3.2811 H         1 MOL     0.0406
     30 H          20.9574   18.3797   -5.3173 H         1 MOL     0.0239
     31 H          20.9655   17.9760   -3.6171 H         1 MOL     0.0239
     32 H          21.2319   19.6271   -4.1239 H         1 MOL     0.0239
@<TRIPOS>BOND
     1    1    2 1 
     2    1   16 1 
     3    1   17 1 
     4    1   18 1 
     5    2    3 1 
     6    2    4 1 
     7    2   19 1 
     8    3   20 1 
     9    3   21 1 
    10    3   22 1 
    11    4    5 1 
    12    4   23 1 
    13    4   24 1 
    14    5    6 ar
    15    5   10 ar
    16    6    7 ar
    17    6   25 1 
    18    7    8 ar
    19    7   26 1 
    20    8    9 ar
    21    8   11 1 
    22    9   10 ar
    23    9   27 1 
    24   10   28 1 
    25   11   12 1 
    26   11   13 1 
    27   11   29 1 
    28   12   30 1 
    29   12   31 1 
    30   12   32 1 
    31   13   14 ar
    32   13   15 ar
@<TRIPOS>SUBSTRUCTURE
1 MOL         1
@<TRIPOS>MOLECULE
query molecule
   32    32     1     0     0
SMALL
NO_CHARGE

@<TRIPOS>ATOM
      1 C          16.5432   -3.5302    7.5560 C.3       1 MOL     0.0072
      2 C          15.9222   -4.0043    6.2755 C.3       1 MOL    -0.0128
      3 C          15.6782   -5.4792    6.3167 C.3       1 MOL     0.0072
      4 C          14.6354   -3.2618    6.0463 C.3       1 MOL     0.0379
      5 C          13.9606   -3.7271    4.8101 C.ar      1 MOL    -0.0471
      6 C          12.7887   -4.4378    4.9281 C.ar      1 MOL     0.0037
      7 C          12.1331   -4.8863    3.8174 C.ar      1 MOL     0.0044
      8 C          12.6323   -4.6356    2.5627 C.ar      1 MOL    -0.0391
      9 C          13.8008   -3.9268    2.4325 C.ar      1 MOL     0.0044
     10 C          14.4610   -3.4755    3.5554 C.ar      1 MOL     0.0037
     11 C          11.9455   -5.1075    1.3485 C.3       1 MOL     0.0614
     12 C          12.1542   -4.0887    0.2283 C.3       1 MOL     0.0185
     13 C          12.5589   -6.4156    0.9744 C.2       1 MOL     0.0489
     14 O          12.3936   -6.8955   -0.1565 O.co2     1 MOL    -0.5492
     15 O          13.3087   -7.0777    1.9040 O.co2     1 MOL    -0.5492
     16 H          17.4603   -4.0567    7.7235 H         1 MOL     0.0232
     17 H          15.8721   -3.7157    8.3683 H         1 MOL     0.0232
     18 H          16.7413   -2.4812    7.4886 H         1 MOL     0.0232
     19 H          16.5934   -3.8093    5.4661 H         1 MOL     0.0299
     20 H          15.0077   -5.7070    7.1191 H         1 MOL     0.0232
     21 H          16.6055   -5.9897    6.4718 H         1 MOL     0.0232
     22 H          15.2465   -5.7961    5.3906 H         1 MOL     0.0232
     23 H          14.8463   -2.2169    5.9569 H         1 MOL     0.0316
     24 H          13.9860   -3.4458    6.8765 H         1 MOL     0.0316
     25 H          12.4019   -4.6344    5.8646 H         1 MOL     0.0620
     26 H          11.2547   -5.4185    3.9222 H         1 MOL     0.0621
     27 H          14.1851   -3.7315    1.4946 H         1 MOL     0.0621
     28 H          15.3394   -2.9434    3.4535 H         1 MOL     0.0620
     29 H          10.8944   -5.2228    1.5134 H         1 MOL     0.0406
     30 H          13.2021   -3.9624    0.0520 H         1 MOL     0.0239
     31 H          11.7255   -3.1511    0.5159 H         1 MOL     0.0239
     32 H          11.6806   -4.4388   -0.6646 H         1 MOL     0.0239
@<TRIPOS>BOND
     1    1    2 1 
     2    1   16 1 
     3    1   17 1 
     4    1   18 1 
     5    2    3 1 
     6    2    4 1 
     7    2   19 1 
     8    3   20 1 
     9    3   21 1 
    10    3   22 1 
    11    4    5 1 
    12    4   23 1 
    13    4   24 1 
    14    5    6 ar
    15    5   10 ar
    16    6    7 ar
    17    6   25 1 
    18    7    8 ar
    19    7   26 1 
    20    8    9 ar
    21    8   11 1 
    22    9   10 ar
    23    9   27 1 
    24   10   28 1 
    25   11   12 1 
    26   11   13 1 
    27   11   29 1 
    28   12   30 1 
    29   12   31 1 
    30   12   32 1 
    31   13   14 ar
    32   13   15 ar
@<TRIPOS>SUBSTRUCTURE
1 MOL         1
@<TRIPOS>MOLECULE
query molecule
   32    32     1     0     0
SMALL
NO_CHARGE

@<TRIPOS>ATOM
      1 C          21.3701   -2.1152   34.2090 C.3       1 MOL     0.0072
      2 C          20.1353   -1.9552   35.0455 C.3       1 MOL    -0.0128
      3 C          19.9447   -0.5267   35.4449 C.3       1 MOL     0.0072
      4 C          18.9464   -2.4505   34.2704 C.3       1 MOL     0.0379
      5 C          18.6726   -3.8787   34.5629 C.ar      1 MOL    -0.0471
      6 C          19.1295   -4.8300   33.6805 C.ar      1 MOL     0.0037
      7 C          18.9006   -6.1567   33.9089 C.ar      1 MOL     0.0044
      8 C          18.2100   -6.5646   35.0239 C.ar      1 MOL    -0.0391
      9 C          17.7497   -5.6242   35.9119 C.ar      1 MOL     0.0044
     10 C          17.9818   -4.2855   35.6788 C.ar      1 MOL     0.0037
     11 C          17.9493   -7.9885   35.2943 C.3       1 MOL     0.0614
     12 C          18.2296   -8.2766   36.7690 C.3       1 MOL     0.0185
     13 C          16.5110   -8.2405   34.9857 C.2       1 MOL     0.0489
     14 O          15.9902   -9.3379   35.2328 O.co2     1 MOL    -0.5492
     15 O          15.7755   -7.2365   34.4238 O.co2     1 MOL    -0.5492
     16 H          22.2198   -1.7633   34.7572 H         1 MOL     0.0232
     17 H          21.2670   -1.5474   33.3080 H         1 MOL     0.0232
     18 H          21.5047   -3.1484   33.9667 H         1 MOL     0.0232
     19 H          20.2403   -2.5308   35.9406 H         1 MOL     0.0299
     20 H          19.8362    0.0770   34.5679 H         1 MOL     0.0232
     21 H          20.7961   -0.1957   36.0019 H         1 MOL     0.0232
     22 H          19.0663   -0.4386   36.0492 H         1 MOL     0.0232
     23 H          19.1403   -2.3392   33.2244 H         1 MOL     0.0316
     24 H          18.0911   -1.8758   34.5586 H         1 MOL     0.0316
     25 H          19.6494   -4.5384   32.8379 H         1 MOL     0.0620
     26 H          19.2496   -6.8589   33.2373 H         1 MOL     0.0621
     27 H          17.2302   -5.9188   36.7538 H         1 MOL     0.0621
     28 H          17.6338   -3.5814   36.3483 H         1 MOL     0.0620
     29 H          18.5742   -8.6207   34.6984 H         1 MOL     0.0406
     30 H          17.6113   -7.6507   37.3782 H         1 MOL     0.0239
     31 H          19.2591   -8.0756   36.9813 H         1 MOL     0.0239
     32 H          18.0159   -9.3036   36.9784 H         1 MOL     0.0239
@<TRIPOS>BOND
     1    1    2 1 
     2    1   16 1 
     3    1   17 1 
     4    1   18 1 
     5    2    3 1 
     6    2    4 1 
     7    2   19 1 
     8    3   20 1 
     9    3   21 1 
    10    3   22 1 
    11    4    5 1 
    12    4   23 1 
    13    4   24 1 
    14    5    6 ar
    15    5   10 ar
    16    6    7 ar
    17    6   25 1 
    18    7    8 ar
    19    7   26 1 
    20    8    9 ar
    21    8   11 1 
    22    9   10 ar
    23    9   27 1 
    24   10   28 1 
    25   11   12 1 
    26   11   13 1 
    27   11   29 1 
    28   12   30 1 
    29   12   31 1 
    30   12   32 1 
    31   13   14 ar
    32   13   15 ar
@<TRIPOS>SUBSTRUCTURE
1 MOL         1
@<TRIPOS>MOLECULE
query molecule
   32    32     1     0     0
SMALL
NO_CHARGE

@<TRIPOS>ATOM
      1 C           1.5119   26.1293   32.4549 C.3       1 MOL     0.0072
      2 C           2.7139   25.2798   32.1658 C.3       1 MOL    -0.0128
      3 C           2.3503   24.1246   31.2884 C.3       1 MOL     0.0072
      4 C           3.7716   26.1261   31.5143 C.3       1 MOL     0.0379
      5 C           5.0274   26.1169   32.3036 C.ar      1 MOL    -0.0471
      6 C           5.2792   27.1707   33.1513 C.ar      1 MOL     0.0037
      7 C           6.4225   27.2047   33.8972 C.ar      1 MOL     0.0044
      8 C           7.3413   26.1872   33.8142 C.ar      1 MOL    -0.0391
      9 C           7.1005   25.1300   32.9721 C.ar      1 MOL     0.0044
     10 C           5.9457   25.0983   32.2198 C.ar      1 MOL     0.0037
     11 C           8.5820   26.1988   34.6073 C.3       1 MOL     0.0614
     12 C           8.6885   24.8891   35.3879 C.3       1 MOL     0.0185
     13 C           9.7185   26.3189   33.6474 C.2       1 MOL     0.0489
     14 O           9.7397   27.2195   32.7960 O.co2     1 MOL    -0.5492
     15 O          10.7393   25.4149   33.7237 O.co2     1 MOL    -0.5492
     16 H           0.7555   25.5303   32.9190 H         1 MOL     0.0232
     17 H           1.1336   26.5356   31.5402 H         1 MOL     0.0232
     18 H           1.7890   26.9264   33.1122 H         1 MOL     0.0232
     19 H           3.0926   24.8828   33.0838 H         1 MOL     0.0299
     20 H           1.9668   24.4904   30.3586 H         1 MOL     0.0232
     21 H           1.6039   23.5305   31.7724 H         1 MOL     0.0232
     22 H           3.2189   23.5274   31.1054 H         1 MOL     0.0232
     23 H           3.4154   27.1318   31.4365 H         1 MOL     0.0316
     24 H           3.9779   25.7232   30.5448 H         1 MOL     0.0316
     25 H           4.5982   27.9429   33.2236 H         1 MOL     0.0620
     26 H           6.5975   28.0025   34.5287 H         1 MOL     0.0621
     27 H           7.7832   24.3591   32.9020 H         1 MOL     0.0621
     28 H           5.7683   24.3021   31.5875 H         1 MOL     0.0620
     29 H           8.5944   27.0124   35.3024 H         1 MOL     0.0406
     30 H           8.6771   24.0652   34.7051 H         1 MOL     0.0239
     31 H           7.8592   24.8069   36.0596 H         1 MOL     0.0239
     32 H           9.6014   24.8795   35.9452 H         1 MOL     0.0239
@<TRIPOS>BOND
     1    1    2 1 
     2    1   16 1 
     3    1   17 1 
     4    1   18 1 
     5    2    3 1 
     6    2    4 1 
     7    2   19 1 
     8    3   20 1 
     9    3   21 1 
    10    3   22 1 
    11    4    5 1 
    12    4   23 1 
    13    4   24 1 
    14    5    6 ar
    15    5   10 ar
    16    6    7 ar
    17    6   25 1 
    18    7    8 ar
    19    7   26 1 
    20    8    9 ar
    21    8   11 1 
    22    9   10 ar
    23    9   27 1 
    24   10   28 1 
    25   11   12 1 
    26   11   13 1 
    27   11   29 1 
    28   12   30 1 
    29   12   31 1 
    30   12   32 1 
    31   13   14 ar
    32   13   15 ar
@<TRIPOS>SUBSTRUCTURE
1 MOL         1
@<TRIPOS>MOLECULE
query molecule
   32    32     1     0     0
SMALL
NO_CHARGE

@<TRIPOS>ATOM
      1 C           3.0116   11.7252   -4.4068 C.3       1 MOL     0.0072
      2 C           4.4168   11.6511   -3.8872 C.3       1 MOL    -0.0128
      3 C           4.9000   13.0021   -3.4654 C.3       1 MOL     0.0072
      4 C           4.4666   10.6881   -2.7341 C.3       1 MOL     0.0379
      5 C           4.7059    9.3014   -3.2033 C.ar      1 MOL    -0.0471
      6 C           3.6389    8.4356   -3.2677 C.ar      1 MOL     0.0037
      7 C           3.8121    7.1497   -3.6934 C.ar      1 MOL     0.0044
      8 C           5.0550    6.6983   -4.0648 C.ar      1 MOL    -0.0391
      9 C           6.1272    7.5536   -4.0053 C.ar      1 MOL     0.0044
     10 C           5.9497    8.8511   -3.5748 C.ar      1 MOL     0.0037
     11 C           5.2697    5.3168   -4.5276 C.3       1 MOL     0.0614
     12 C           4.4055    4.3707   -3.6944 C.3       1 MOL     0.0185
     13 C           4.8569    5.2621   -5.9608 C.2       1 MOL     0.0489
     14 O           4.8042    4.1820   -6.5668 O.co2     1 MOL    -0.5492
     15 O           4.5369    6.4279   -6.5958 O.co2     1 MOL    -0.5492
     16 H           2.9713   12.4105   -5.2285 H         1 MOL     0.0232
     17 H           2.3605   12.0635   -3.6281 H         1 MOL     0.0232
     18 H           2.7019   10.7556   -4.7355 H         1 MOL     0.0232
     19 H           5.0619   11.3050   -4.6667 H         1 MOL     0.0299
     20 H           4.2726   13.3766   -2.6834 H         1 MOL     0.0232
     21 H           4.8652   13.6698   -4.3005 H         1 MOL     0.0232
     22 H           5.9063   12.9269   -3.1099 H         1 MOL     0.0232
     23 H           3.5353   10.7233   -2.2091 H         1 MOL     0.0316
     24 H           5.2730   10.9719   -2.0907 H         1 MOL     0.0316
     25 H           2.6991    8.7605   -2.9911 H         1 MOL     0.0620
     26 H           3.0016    6.5116   -3.7361 H         1 MOL     0.0621
     27 H           7.0659    7.2259   -4.2828 H         1 MOL     0.0621
     28 H           6.7582    9.4910   -3.5309 H         1 MOL     0.0620
     29 H           6.2938    5.0241   -4.4238 H         1 MOL     0.0406
     30 H           3.3771    4.6516   -3.7882 H         1 MOL     0.0239
     31 H           4.6995    4.4322   -2.6672 H         1 MOL     0.0239
     32 H           4.5360    3.3681   -4.0437 H         1 MOL     0.0239
@<TRIPOS>BOND
     1    1    2 1 
     2    1   16 1 
     3    1   17 1 
     4    1   18 1 
     5    2    3 1 
     6    2    4 1 
     7    2   19 1 
     8    3   20 1 
     9    3   21 1 
    10    3   22 1 
    11    4    5 1 
    12    4   23 1 
    13    4   24 1 
    14    5    6 ar
    15    5   10 ar
    16    6    7 ar
    17    6   25 1 
    18    7    8 ar
    19    7   26 1 
    20    8    9 ar
    21    8   11 1 
    22    9   10 ar
    23    9   27 1 
    24   10   28 1 
    25   11   12 1 
    26   11   13 1 
    27   11   29 1 
    28   12   30 1 
    29   12   31 1 
    30   12   32 1 
    31   13   14 ar
    32   13   15 ar
@<TRIPOS>SUBSTRUCTURE
1 MOL         1
@<TRIPOS>MOLECULE
query molecule
   32    32     1     0     0
SMALL
NO_CHARGE

@<TRIPOS>ATOM
      1 C          20.8682    2.1690   26.4837 C.3       1 MOL     0.0072
      2 C          22.2494    1.6091   26.3142 C.3       1 MOL    -0.0128
      3 C          22.9079    1.4065   27.6415 C.3       1 MOL     0.0072
      4 C          22.1669    0.3106   25.5614 C.3       1 MOL     0.0379
      5 C          20.8246   -0.3054   25.7000 C.ar      1 MOL    -0.0471
      6 C          20.1158   -0.0839   26.8579 C.ar      1 MOL     0.0037
      7 C          18.8765   -0.6310   27.0295 C.ar      1 MOL     0.0044
      8 C          18.3159   -1.4122   26.0487 C.ar      1 MOL    -0.0391
      9 C          19.0137   -1.6397   24.8886 C.ar      1 MOL     0.0044
     10 C          20.2648   -1.0865   24.7180 C.ar      1 MOL     0.0037
     11 C          16.9813   -2.0141   26.2078 C.3       1 MOL     0.0614
     12 C          16.9765   -2.8960   27.4563 C.3       1 MOL     0.0185
     13 C          16.0077   -0.8941   26.3659 C.2       1 MOL     0.0489
     14 O          15.7690   -0.4116   27.4825 O.co2     1 MOL    -0.5492
     15 O          15.3815   -0.4080   25.2540 O.co2     1 MOL    -0.5492
     16 H          20.9221    3.0942   27.0198 H         1 MOL     0.0232
     17 H          20.2661    1.4742   27.0311 H         1 MOL     0.0232
     18 H          20.4324    2.3389   25.5217 H         1 MOL     0.0232
     19 H          22.8445    2.3035   25.7598 H         1 MOL     0.0299
     20 H          22.3343    0.7140   28.2217 H         1 MOL     0.0232
     21 H          22.9650    2.3419   28.1575 H         1 MOL     0.0232
     22 H          23.8942    1.0182   27.4958 H         1 MOL     0.0232
     23 H          22.9021   -0.3640   25.9468 H         1 MOL     0.0316
     24 H          22.3433    0.5085   24.5248 H         1 MOL     0.0316
     25 H          20.5246    0.5004   27.6041 H         1 MOL     0.0620
     26 H          18.3568   -0.4559   27.9043 H         1 MOL     0.0621
     27 H          18.6022   -2.2243   24.1440 H         1 MOL     0.0621
     28 H          20.7866   -1.2601   23.8447 H         1 MOL     0.0620
     29 H          16.7209   -2.6172   25.3630 H         1 MOL     0.0406
     30 H          17.2358   -2.3058   28.3105 H         1 MOL     0.0239
     31 H          17.6905   -3.6843   27.3376 H         1 MOL     0.0239
     32 H          16.0018   -3.3148   27.5930 H         1 MOL     0.0239
@<TRIPOS>BOND
     1    1    2 1 
     2    1   16 1 
     3    1   17 1 
     4    1   18 1 
     5    2    3 1 
     6    2    4 1 
     7    2   19 1 
     8    3   20 1 
     9    3   21 1 
    10    3   22 1 
    11    4    5 1 
    12    4   23 1 
    13    4   24 1 
    14    5    6 ar
    15    5   10 ar
    16    6    7 ar
    17    6   25 1 
    18    7    8 ar
    19    7   26 1 
    20    8    9 ar
    21    8   11 1 
    22    9   10 ar
    23    9   27 1 
    24   10   28 1 
    25   11   12 1 
    26   11   13 1 
    27   11   29 1 
    28   12   30 1 
    29   12   31 1 
    30   12   32 1 
    31   13   14 ar
    32   13   15 ar
@<TRIPOS>SUBSTRUCTURE
1 MOL         1
@<TRIPOS>MOLECULE
query molecule
   32    32     1     0     0
SMALL
NO_CHARGE

@<TRIPOS>ATOM
      1 C           1.8765   17.7127   37.4038 C.3       1 MOL     0.0072
      2 C           1.3156   19.0289   36.9532 C.3       1 MOL    -0.0128
      3 C           1.8973   20.1549   37.7471 C.3       1 MOL     0.0072
      4 C           1.6011   19.2119   35.4888 C.3       1 MOL     0.0379
      5 C           0.5282   18.6173   34.6547 C.ar      1 MOL    -0.0471
      6 C          -0.7757   18.9762   34.9065 C.ar      1 MOL     0.0037
      7 C          -1.7960   18.4538   34.1643 C.ar      1 MOL     0.0044
      8 C          -1.5381   17.5609   33.1531 C.ar      1 MOL    -0.0391
      9 C          -0.2406   17.1958   32.8922 C.ar      1 MOL     0.0044
     10 C           0.7875   17.7242   33.6433 C.ar      1 MOL     0.0037
     11 C          -2.6193   16.9826   32.3374 C.3       1 MOL     0.0614
     12 C          -3.9483   17.1598   33.0713 C.3       1 MOL     0.0185
     13 C          -2.6431   17.7269   31.0440 C.2       1 MOL     0.0489
     14 O          -2.3642   18.9339   30.9994 O.co2     1 MOL    -0.5492
     15 O          -2.9791   17.0520   29.9054 O.co2     1 MOL    -0.5492
     16 H           1.6756   17.5782   38.4468 H         1 MOL     0.0232
     17 H           2.9337   17.7003   37.2398 H         1 MOL     0.0232
     18 H           1.4194   16.9217   36.8474 H         1 MOL     0.0232
     19 H           0.2580   19.0330   37.1118 H         1 MOL     0.0299
     20 H           2.9582   20.1775   37.6087 H         1 MOL     0.0232
     21 H           1.6764   20.0113   38.7840 H         1 MOL     0.0232
     22 H           1.4749   21.0807   37.4169 H         1 MOL     0.0232
     23 H           2.5304   18.7380   35.2522 H         1 MOL     0.0316
     24 H           1.6492   20.2605   35.2817 H         1 MOL     0.0316
     25 H          -0.9849   19.6456   35.6637 H         1 MOL     0.0620
     26 H          -2.7695   18.7327   34.3654 H         1 MOL     0.0621
     27 H          -0.0345   16.5262   32.1342 H         1 MOL     0.0621
     28 H           1.7615   17.4470   33.4446 H         1 MOL     0.0620
     29 H          -2.4623   15.9385   32.1632 H         1 MOL     0.0406
     30 H          -4.1191   18.2006   33.2530 H         1 MOL     0.0239
     31 H          -3.9121   16.6363   34.0041 H         1 MOL     0.0239
     32 H          -4.7418   16.7663   32.4716 H         1 MOL     0.0239
@<TRIPOS>BOND
     1    1    2 1 
     2    1   16 1 
     3    1   17 1 
     4    1   18 1 
     5    2    3 1 
     6    2    4 1 
     7    2   19 1 
     8    3   20 1 
     9    3   21 1 
    10    3   22 1 
    11    4    5 1 
    12    4   23 1 
    13    4   24 1 
    14    5    6 ar
    15    5   10 ar
    16    6    7 ar
    17    6   25 1 
    18    7    8 ar
    19    7   26 1 
    20    8    9 ar
    21    8   11 1 
    22    9   10 ar
    23    9   27 1 
    24   10   28 1 
    25   11   12 1 
    26   11   13 1 
    27   11   29 1 
    28   12   30 1 
    29   12   31 1 
    30   12   32 1 
    31   13   14 ar
    32   13   15 ar
@<TRIPOS>SUBSTRUCTURE
1 MOL         1
@<TRIPOS>MOLECULE
query molecule
   32    32     1     0     0
SMALL
NO_CHARGE

@<TRIPOS>ATOM
      1 C          15.2960   17.0722   -4.5720 C.3       1 MOL     0.0072
      2 C          15.8729   15.8711   -5.2611 C.3       1 MOL    -0.0128
      3 C          15.2073   14.6172   -4.7909 C.3       1 MOL     0.0072
      4 C          15.7118   16.0298   -6.7472 C.3       1 MOL     0.0379
      5 C          14.3182   15.7465   -7.1689 C.ar      1 MOL    -0.0471
      6 C          13.3619   16.7157   -6.9731 C.ar      1 MOL     0.0037
      7 C          12.0661   16.4987   -7.3455 C.ar      1 MOL     0.0044
      8 C          11.6950   15.3087   -7.9224 C.ar      1 MOL    -0.0391
      9 C          12.6409   14.3343   -8.1233 C.ar      1 MOL     0.0044
     10 C          13.9483   14.5557   -7.7461 C.ar      1 MOL     0.0037
     11 C          10.3050   15.0488   -8.3333 C.3       1 MOL     0.0614
     12 C           9.8607   13.6999   -7.7683 C.3       1 MOL     0.0185
     13 C           9.4649   16.1449   -7.7675 C.2       1 MOL     0.0489
     14 O           8.9248   16.0246   -6.6583 O.co2     1 MOL    -0.5492
     15 O           9.3008   17.2879   -8.4965 O.co2     1 MOL    -0.5492
     16 H          15.4083   16.9633   -3.5128 H         1 MOL     0.0232
     17 H          14.2571   17.1575   -4.8134 H         1 MOL     0.0232
     18 H          15.8117   17.9511   -4.8970 H         1 MOL     0.0232
     19 H          16.9126   15.7951   -5.0229 H         1 MOL     0.0299
     20 H          14.1620   14.6629   -5.0157 H         1 MOL     0.0232
     21 H          15.3401   14.5179   -3.7340 H         1 MOL     0.0232
     22 H          15.6419   13.7744   -5.2862 H         1 MOL     0.0232
     23 H          16.3720   15.3508   -7.2445 H         1 MOL     0.0316
     24 H          15.9453   17.0412   -7.0069 H         1 MOL     0.0316
     25 H          13.6258   17.6146   -6.5401 H         1 MOL     0.0620
     26 H          11.3597   17.2357   -7.1918 H         1 MOL     0.0621
     27 H          12.3741   13.4364   -8.5568 H         1 MOL     0.0621
     28 H          14.6565   13.8206   -7.8982 H         1 MOL     0.0620
     29 H          10.2110   15.0200   -9.3990 H         1 MOL     0.0406
     30 H           9.9496   13.7134   -6.7019 H         1 MOL     0.0239
     31 H          10.4815   12.9250   -8.1679 H         1 MOL     0.0239
     32 H           8.8425   13.5174   -8.0403 H         1 MOL     0.0239
@<TRIPOS>BOND
     1    1    2 1 
     2    1   16 1 
     3    1   17 1 
     4    1   18 1 
     5    2    3 1 
     6    2    4 1 
     7    2   19 1 
     8    3   20 1 
     9    3   21 1 
    10    3   22 1 
    11    4    5 1 
    12    4   23 1 
    13    4   24 1 
    14    5    6 ar
    15    5   10 ar
    16    6    7 ar
    17    6   25 1 
    18    7    8 ar
    19    7   26 1 
    20    8    9 ar
    21    8   11 1 
    22    9   10 ar
    23    9   27 1 
    24   10   28 1 
    25   11   12 1 
    26   11   13 1 
    27   11   29 1 
    28   12   30 1 
    29   12   31 1 
    30   12   32 1 
    31   13   14 ar
    32   13   15 ar
@<TRIPOS>SUBSTRUCTURE
1 MOL         1
@<TRIPOS>MOLECULE
query molecule
   32    32     1     0     0
SMALL
NO_CHARGE

@<TRIPOS>ATOM
      1 C           8.6581    0.7575   33.8094 C.3       1 MOL     0.0072
      2 C           7.8619    1.0297   35.0512 C.3       1 MOL    -0.0128
      3 C           6.4224    1.2634   34.7196 C.3       1 MOL     0.0072
      4 C           8.0052   -0.1321   35.9941 C.3       1 MOL     0.0379
      5 C           7.8368   -1.4233   35.2838 C.ar      1 MOL    -0.0471
      6 C           6.6147   -1.7098   34.7211 C.ar      1 MOL     0.0037
      7 C           6.4136   -2.8865   34.0580 C.ar      1 MOL     0.0044
      8 C           7.4284   -3.8047   33.9411 C.ar      1 MOL    -0.0391
      9 C           8.6526   -3.5294   34.4982 C.ar      1 MOL     0.0044
     10 C           8.8528   -2.3410   35.1675 C.ar      1 MOL     0.0037
     11 C           7.2387   -5.0810   33.2314 C.3       1 MOL     0.0614
     12 C           6.1161   -5.8670   33.9081 C.3       1 MOL     0.0185
     13 C           6.8610   -4.7525   31.8254 C.2       1 MOL     0.0489
     14 O           6.3762   -5.6151   31.0788 O.co2     1 MOL    -0.5492
     15 O           7.0597   -3.4792   31.3737 O.co2     1 MOL    -0.5492
     16 H           8.5587    1.5827   33.1344 H         1 MOL     0.0232
     17 H           8.2945   -0.1327   33.3402 H         1 MOL     0.0232
     18 H           9.6882    0.6301   34.0677 H         1 MOL     0.0232
     19 H           8.2344    1.9156   35.5203 H         1 MOL     0.0299
     20 H           6.0196    0.3917   34.2473 H         1 MOL     0.0232
     21 H           6.3406    2.0981   34.0555 H         1 MOL     0.0232
     22 H           5.8772    1.4666   35.6174 H         1 MOL     0.0232
     23 H           7.2616   -0.0548   36.7592 H         1 MOL     0.0316
     24 H           8.9871   -0.1045   36.4184 H         1 MOL     0.0316
     25 H           5.8425   -1.0298   34.8015 H         1 MOL     0.0620
     26 H           5.4907   -3.0873   33.6411 H         1 MOL     0.0621
     27 H           9.4230   -4.2113   34.4160 H         1 MOL     0.0621
     28 H           9.7743   -2.1377   35.5854 H         1 MOL     0.0620
     29 H           8.1292   -5.6743   33.2486 H         1 MOL     0.0406
     30 H           5.2178   -5.2853   33.8987 H         1 MOL     0.0239
     31 H           6.3916   -6.0811   34.9199 H         1 MOL     0.0239
     32 H           5.9545   -6.7835   33.3806 H         1 MOL     0.0239
@<TRIPOS>BOND
     1    1    2 1 
     2    1   16 1 
     3    1   17 1 
     4    1   18 1 
     5    2    3 1 
     6    2    4 1 
     7    2   19 1 
     8    3   20 1 
     9    3   21 1 
    10    3   22 1 
    11    4    5 1 
    12    4   23 1 
    13    4   24 1 
    14    5    6 ar
    15    5   10 ar
    16    6    7 ar
    17    6   25 1 
    18    7    8 ar
    19    7   26 1 
    20    8    9 ar
    21    8   11 1 
    22    9   10 ar
    23    9   27 1 
    24   10   28 1 
    25   11   12 1 
    26   11   13 1 
    27   11   29 1 
    28   12   30 1 
    29   12   31 1 
    30   12   32 1 
    31   13   14 ar
    32   13   15 ar
@<TRIPOS>SUBSTRUCTURE
1 MOL         1
@<TRIPOS>MOLECULE
query molecule
   32    32     1     0     0
SMALL
NO_CHARGE

@<TRIPOS>ATOM
      1 C          -0.7044   17.9046    1.2269 C.3       1 MOL     0.0072
      2 C          -1.4745   17.2604    0.1124 C.3       1 MOL    -0.0128
      3 C          -1.4024   18.0873   -1.1315 C.3       1 MOL     0.0072
      4 C          -0.9252   15.8833   -0.1357 C.3       1 MOL     0.0379
      5 C          -1.8342   14.8392    0.3971 C.ar      1 MOL    -0.0471
      6 C          -2.3930   15.0257    1.6402 C.ar      1 MOL     0.0037
      7 C          -3.2353   14.0910    2.1708 C.ar      1 MOL     0.0044
      8 C          -3.5394   12.9481    1.4724 C.ar      1 MOL    -0.0391
      9 C          -2.9881   12.7514    0.2306 C.ar      1 MOL     0.0044
     10 C          -2.1377   13.6964   -0.3026 C.ar      1 MOL     0.0037
     11 C          -4.4445   11.9242    2.0211 C.3       1 MOL     0.0614
     12 C          -5.3005   11.3557    0.8895 C.3       1 MOL     0.0185
     13 C          -3.5915   10.8503    2.6096 C.2       1 MOL     0.0489
     14 O          -4.0086   10.1444    3.5392 O.co2     1 MOL    -0.5492
     15 O          -2.3377   10.6581    2.1038 O.co2     1 MOL    -0.5492
     16 H          -1.0923   18.8861    1.4070 H         1 MOL     0.0232
     17 H           0.3279   17.9736    0.9541 H         1 MOL     0.0232
     18 H          -0.8009   17.3145    2.1139 H         1 MOL     0.0232
     19 H          -2.5037   17.1866    0.3933 H         1 MOL     0.0299
     20 H          -0.3815   18.1798   -1.4391 H         1 MOL     0.0232
     21 H          -1.8052   19.0592   -0.9372 H         1 MOL     0.0232
     22 H          -1.9672   17.6153   -1.9079 H         1 MOL     0.0232
     23 H           0.0268   15.7954    0.3440 H         1 MOL     0.0316
     24 H          -0.8296   15.7423   -1.1920 H         1 MOL     0.0316
     25 H          -2.1731   15.8794    2.1770 H         1 MOL     0.0620
     26 H          -3.6467   14.2451    3.1051 H         1 MOL     0.0621
     27 H          -3.2100   11.8968   -0.3040 H         1 MOL     0.0621
     28 H          -1.7248   13.5448   -1.2362 H         1 MOL     0.0620
     29 H          -5.0934   12.3347    2.7666 H         1 MOL     0.0406
     30 H          -4.6644   10.9414    0.1351 H         1 MOL     0.0239
     31 H          -5.8940   12.1385    0.4648 H         1 MOL     0.0239
     32 H          -5.9413   10.5918    1.2766 H         1 MOL     0.0239
@<TRIPOS>BOND
     1    1    2 1 
     2    1   16 1 
     3    1   17 1 
     4    1   18 1 
     5    2    3 1 
     6    2    4 1 
     7    2   19 1 
     8    3   20 1 
     9    3   21 1 
    10    3   22 1 
    11    4    5 1 
    12    4   23 1 
    13    4   24 1 
    14    5    6 ar
    15    5   10 ar
    16    6    7 ar
    17    6   25 1 
    18    7    8 ar
    19    7   26 1 
    20    8    9 ar
    21    8   11 1 
    22    9   10 ar
    23    9   27 1 
    24   10   28 1 
    25   11   12 1 
    26   11   13 1 
    27   11   29 1 
    28   12   30 1 
    29   12   31 1 
    30   12   32 1 
    31   13   14 ar
    32   13   15 ar
@<TRIPOS>SUBSTRUCTURE
1 MOL         1
@<TRIPOS>MOLECULE
query molecule
   32    32     1     0     0
SMALL
NO_CHARGE

@<TRIPOS>ATOM
      1 C          12.6778   22.8355   27.6240 C.3       1 MOL     0.0072
      2 C          13.4109   23.3433   28.8301 C.3       1 MOL    -0.0128
      3 C          13.0407   22.5577   30.0475 C.3       1 MOL     0.0072
      4 C          14.8907   23.2626   28.5786 C.3       1 MOL     0.0379
      5 C          15.2009   23.4436   27.1395 C.ar      1 MOL    -0.0471
      6 C          15.4114   22.3255   26.3663 C.ar      1 MOL     0.0037
      7 C          15.7000   22.4441   25.0369 C.ar      1 MOL     0.0044
      8 C          15.7851   23.6822   24.4483 C.ar      1 MOL    -0.0391
      9 C          15.5763   24.8052   25.2098 C.ar      1 MOL     0.0044
     10 C          15.2856   24.6827   26.5518 C.ar      1 MOL     0.0037
     11 C          16.0946   23.8385   23.0171 C.3       1 MOL     0.0614
     12 C          14.9709   24.6279   22.3460 C.3       1 MOL     0.0185
     13 C          17.3794   24.5922   22.9229 C.2       1 MOL     0.0489
     14 O          17.5647   25.4235   22.0223 O.co2     1 MOL    -0.5492
     15 O          18.3516   24.3489   23.8505 O.co2     1 MOL    -0.5492
     16 H          11.6230   22.8910   27.7987 H         1 MOL     0.0232
     17 H          12.9556   21.8189   27.4392 H         1 MOL     0.0232
     18 H          12.9308   23.4349   26.7749 H         1 MOL     0.0232
     19 H          13.1358   24.3617   29.0055 H         1 MOL     0.0299
     20 H          13.3045   21.5307   29.9026 H         1 MOL     0.0232
     21 H          11.9868   22.6345   30.2144 H         1 MOL     0.0232
     22 H          13.5657   22.9443   30.8958 H         1 MOL     0.0232
     23 H          15.2470   22.3048   28.8948 H         1 MOL     0.0316
     24 H          15.3708   24.0441   29.1296 H         1 MOL     0.0316
     25 H          15.3515   21.3885   26.7950 H         1 MOL     0.0620
     26 H          15.8557   21.5956   24.4697 H         1 MOL     0.0621
     27 H          15.6367   25.7409   24.7783 H         1 MOL     0.0621
     28 H          15.1298   25.5292   27.1212 H         1 MOL     0.0620
     29 H          16.1831   22.8897   22.5301 H         1 MOL     0.0406
     30 H          14.8702   25.5804   22.8233 H         1 MOL     0.0239
     31 H          14.0526   24.0854   22.4356 H         1 MOL     0.0239
     32 H          15.2029   24.7687   21.3114 H         1 MOL     0.0239
@<TRIPOS>BOND
     1    1    2 1 
     2    1   16 1 
     3    1   17 1 
     4    1   18 1 
     5    2    3 1 
     6    2    4 1 
     7    2   19 1 
     8    3   20 1 
     9    3   21 1 
    10    3   22 1 
    11    4    5 1 
    12    4   23 1 
    13    4   24 1 
    14    5    6 ar
    15    5   10 ar
    16    6    7 ar
    17    6   25 1 
    18    7    8 ar
    19    7   26 1 
    20    8    9 ar
    21    8   11 1 
    22    9   10 ar
    23    9   27 1 
    24   10   28 1 
    25   11   12 1 
    26   11   13 1 
    27   11   29 1 
    28   12   30 1 
    29   12   31 1 
    30   12   32 1 
    31   13   14 ar
    32   13   15 ar
@<TRIPOS>SUBSTRUCTURE
1 MOL         1
@<TRIPOS>MOLECULE
query molecule
   32    32     1     0     0
SMALL
NO_CHARGE

@<TRIPOS>ATOM
      1 C          14.2815   -2.0197    8.7093 C.3       1 MOL     0.0072
      2 C          14.3574   -1.3692    7.3598 C.3       1 MOL    -0.0128
      3 C          15.5445   -1.8639    6.5966 C.3       1 MOL     0.0072
      4 C          13.0886   -1.6504    6.6042 C.3       1 MOL     0.0379
      5 C          12.8453   -3.1090    6.4886 C.ar      1 MOL    -0.0471
      6 C          13.8503   -3.9061    5.9918 C.ar      1 MOL     0.0037
      7 C          13.6709   -5.2541    5.8673 C.ar      1 MOL     0.0044
      8 C          12.4835   -5.8377    6.2361 C.ar      1 MOL    -0.0391
      9 C          11.4735   -5.0523    6.7337 C.ar      1 MOL     0.0044
     10 C          11.6571   -3.6917    6.8580 C.ar      1 MOL     0.0037
     11 C          12.2636   -7.2886    6.1124 C.3       1 MOL     0.0614
     12 C          10.8642   -7.6275    6.6253 C.3       1 MOL     0.0185
     13 C          12.3769   -7.6305    4.6640 C.2       1 MOL     0.0489
     14 O          13.1878   -8.4826    4.2731 O.co2     1 MOL    -0.5492
     15 O          11.5680   -6.9851    3.7729 O.co2     1 MOL    -0.5492
     16 H          15.1836   -1.8222    9.2511 H         1 MOL     0.0232
     17 H          14.1613   -3.0762    8.5900 H         1 MOL     0.0232
     18 H          13.4472   -1.6238    9.2490 H         1 MOL     0.0232
     19 H          14.4694   -0.3131    7.4846 H         1 MOL     0.0299
     20 H          15.4615   -2.9215    6.4550 H         1 MOL     0.0232
     21 H          16.4368   -1.6472    7.1457 H         1 MOL     0.0232
     22 H          15.5847   -1.3787    5.6440 H         1 MOL     0.0232
     23 H          13.1658   -1.2304    5.6234 H         1 MOL     0.0316
     24 H          12.2721   -1.2121    7.1389 H         1 MOL     0.0316
     25 H          14.7478   -3.4815    5.7099 H         1 MOL     0.0620
     26 H          14.4345   -5.8392    5.4925 H         1 MOL     0.0621
     27 H          10.5771   -5.4798    7.0150 H         1 MOL     0.0621
     28 H          10.8953   -3.1045    7.2321 H         1 MOL     0.0620
     29 H          12.9796   -7.8429    6.6828 H         1 MOL     0.0406
     30 H          10.1364   -7.0796    6.0637 H         1 MOL     0.0239
     31 H          10.7904   -7.3618    7.6594 H         1 MOL     0.0239
     32 H          10.6877   -8.6765    6.5128 H         1 MOL     0.0239
@<TRIPOS>BOND
     1    1    2 1 
     2    1   16 1 
     3    1   17 1 
     4    1   18 1 
     5    2    3 1 
     6    2    4 1 
     7    2   19 1 
     8    3   20 1 
     9    3   21 1 
    10    3   22 1 
    11    4    5 1 
    12    4   23 1 
    13    4   24 1 
    14    5    6 ar
    15    5   10 ar
    16    6    7 ar
    17    6   25 1 
    18    7    8 ar
    19    7   26 1 
    20    8    9 ar
    21    8   11 1 
    22    9   10 ar
    23    9   27 1 
    24   10   28 1 
    25   11   12 1 
    26   11   13 1 
    27   11   29 1 
    28   12   30 1 
    29   12   31 1 
    30   12   32 1 
    31   13   14 ar
    32   13   15 ar
@<TRIPOS>SUBSTRUCTURE
1 MOL         1
@<TRIPOS>MOLECULE
query molecule
   32    32     1     0     0
SMALL
NO_CHARGE

@<TRIPOS>ATOM
      1 C          20.7826   -0.0209   14.8182 C.3       1 MOL     0.0072
      2 C          19.8036   -0.2041   13.6966 C.3       1 MOL    -0.0128
      3 C          19.6381   -1.6533   13.3663 C.3       1 MOL     0.0072
      4 C          18.4852    0.4027   14.0879 C.3       1 MOL     0.0379
      5 C          18.1234    1.5253   13.1884 C.ar      1 MOL    -0.0471
      6 C          19.1293    2.1799   12.5163 C.ar      1 MOL     0.0037
      7 C          18.8432    3.2192   11.6780 C.ar      1 MOL     0.0044
      8 C          17.5457    3.6292   11.4912 C.ar      1 MOL    -0.0391
      9 C          16.5334    2.9830   12.1563 C.ar      1 MOL     0.0044
     10 C          16.8249    1.9343   13.0023 C.ar      1 MOL     0.0037
     11 C          17.2093    4.7467   10.5931 C.3       1 MOL     0.0614
     12 C          18.3424    5.7720   10.6252 C.3       1 MOL     0.0185
     13 C          17.0662    4.1815    9.2193 C.2       1 MOL     0.0489
     14 O          16.4116    4.7771    8.3514 O.co2     1 MOL    -0.5492
     15 O          17.6718    2.9913    8.9338 O.co2     1 MOL    -0.5492
     16 H          21.7235   -0.4520   14.5438 H         1 MOL     0.0232
     17 H          20.4120   -0.5040   15.6980 H         1 MOL     0.0232
     18 H          20.9114    1.0233   15.0114 H         1 MOL     0.0232
     19 H          20.1749    0.2872   12.8223 H         1 MOL     0.0299
     20 H          19.2665   -2.1740   14.2242 H         1 MOL     0.0232
     21 H          20.5841   -2.0644   13.0824 H         1 MOL     0.0232
     22 H          18.9457   -1.7588   12.5576 H         1 MOL     0.0232
     23 H          18.5525    0.7671   15.0914 H         1 MOL     0.0316
     24 H          17.7294   -0.3507   14.0103 H         1 MOL     0.0316
     25 H          20.1093    1.8835   12.6473 H         1 MOL     0.0620
     26 H          19.6091    3.7009   11.1807 H         1 MOL     0.0621
     27 H          15.5543    3.2815   12.0231 H         1 MOL     0.0621
     28 H          16.0613    1.4513   13.5009 H         1 MOL     0.0620
     29 H          16.3029    5.2304   10.8929 H         1 MOL     0.0406
     30 H          19.2567    5.3022   10.3276 H         1 MOL     0.0239
     31 H          18.4462    6.1566   11.6185 H         1 MOL     0.0239
     32 H          18.1169    6.5736    9.9538 H         1 MOL     0.0239
@<TRIPOS>BOND
     1    1    2 1 
     2    1   16 1 
     3    1   17 1 
     4    1   18 1 
     5    2    3 1 
     6    2    4 1 
     7    2   19 1 
     8    3   20 1 
     9    3   21 1 
    10    3   22 1 
    11    4    5 1 
    12    4   23 1 
    13    4   24 1 
    14    5    6 ar
    15    5   10 ar
    16    6    7 ar
    17    6   25 1 
    18    7    8 ar
    19    7   26 1 
    20    8    9 ar
    21    8   11 1 
    22    9   10 ar
    23    9   27 1 
    24   10   28 1 
    25   11   12 1 
    26   11   13 1 
    27   11   29 1 
    28   12   30 1 
    29   12   31 1 
    30   12   32 1 
    31   13   14 ar
    32   13   15 ar
@<TRIPOS>SUBSTRUCTURE
1 MOL         1
@<TRIPOS>MOLECULE
query molecule
   32    32     1     0     0
SMALL
NO_CHARGE

@<TRIPOS>ATOM
      1 C           6.3560   -7.2786   22.6246 C.3       1 MOL     0.0072
      2 C           5.3887   -8.2956   22.0954 C.3       1 MOL    -0.0128
      3 C           5.1025   -9.3431   23.1237 C.3       1 MOL     0.0072
      4 C           4.1213   -7.6023   21.6801 C.3       1 MOL     0.0379
      5 C           3.2317   -7.3686   22.8438 C.ar      1 MOL    -0.0471
      6 C           1.8951   -7.6697   22.7209 C.ar      1 MOL     0.0037
      7 C           1.0389   -7.4706   23.7659 C.ar      1 MOL     0.0044
      8 C           1.4974   -6.9662   24.9583 C.ar      1 MOL    -0.0391
      9 C           2.8294   -6.6625   25.0928 C.ar      1 MOL     0.0044
     10 C           3.6916   -6.8640   24.0363 C.ar      1 MOL     0.0037
     11 C           0.5959   -6.7419   26.1009 C.3       1 MOL     0.0614
     12 C           1.2774   -7.2307   27.3787 C.3       1 MOL     0.0185
     13 C           0.3435   -5.2732   26.1826 C.2       1 MOL     0.0489
     14 O          -0.3447   -4.7958   27.0964 O.co2     1 MOL    -0.5492
     15 O           0.8864   -4.4607   25.2286 O.co2     1 MOL    -0.5492
     16 H           7.2605   -7.7682   22.9220 H         1 MOL     0.0232
     17 H           5.9254   -6.7818   23.4688 H         1 MOL     0.0232
     18 H           6.5727   -6.5620   21.8606 H         1 MOL     0.0232
     19 H           5.8206   -8.7834   21.2474 H         1 MOL     0.0299
     20 H           4.6679   -8.8848   23.9876 H         1 MOL     0.0232
     21 H           6.0141   -9.8303   23.3995 H         1 MOL     0.0232
     22 H           4.4208  -10.0626   22.7209 H         1 MOL     0.0232
     23 H           3.6085   -8.2107   20.9652 H         1 MOL     0.0316
     24 H           4.3777   -6.6549   21.2541 H         1 MOL     0.0316
     25 H           1.5360   -8.0488   21.8306 H         1 MOL     0.0620
     26 H           0.0384   -7.7012   23.6582 H         1 MOL     0.0621
     27 H           3.1857   -6.2837   25.9845 H         1 MOL     0.0621
     28 H           4.6923   -6.6341   24.1410 H         1 MOL     0.0620
     29 H          -0.3261   -7.2719   25.9817 H         1 MOL     0.0406
     30 H           2.2024   -6.7091   27.5113 H         1 MOL     0.0239
     31 H           1.4685   -8.2809   27.3004 H         1 MOL     0.0239
     32 H           0.6388   -7.0456   28.2165 H         1 MOL     0.0239
@<TRIPOS>BOND
     1    1    2 1 
     2    1   16 1 
     3    1   17 1 
     4    1   18 1 
     5    2    3 1 
     6    2    4 1 
     7    2   19 1 
     8    3   20 1 
     9    3   21 1 
    10    3   22 1 
    11    4    5 1 
    12    4   23 1 
    13    4   24 1 
    14    5    6 ar
    15    5   10 ar
    16    6    7 ar
    17    6   25 1 
    18    7    8 ar
    19    7   26 1 
    20    8    9 ar
    21    8   11 1 
    22    9   10 ar
    23    9   27 1 
    24   10   28 1 
    25   11   12 1 
    26   11   13 1 
    27   11   29 1 
    28   12   30 1 
    29   12   31 1 
    30   12   32 1 
    31   13   14 ar
    32   13   15 ar
@<TRIPOS>SUBSTRUCTURE
1 MOL         1
@<TRIPOS>MOLECULE
query molecule
   32    32     1     0     0
SMALL
NO_CHARGE

@<TRIPOS>ATOM
      1 C          10.2091   -9.3233   17.3035 C.3       1 MOL     0.0072
      2 C           8.7398   -9.1549   17.5538 C.3       1 MOL    -0.0128
      3 C           8.4671   -7.8774   18.2820 C.3       1 MOL     0.0072
      4 C           8.0091   -9.1810   16.2404 C.3       1 MOL     0.0379
      5 C           6.8975   -8.1989   16.2254 C.ar      1 MOL    -0.0471
      6 C           5.6647   -8.5939   16.6907 C.ar      1 MOL     0.0037
      7 C           4.6123   -7.7237   16.6955 C.ar      1 MOL     0.0044
      8 C           4.7664   -6.4386   16.2360 C.ar      1 MOL    -0.0391
      9 C           5.9923   -6.0330   15.7698 C.ar      1 MOL     0.0044
     10 C           7.0530   -6.9135   15.7656 C.ar      1 MOL     0.0037
     11 C           3.6485   -5.4800   16.2301 C.3       1 MOL     0.0614
     12 C           3.9722   -4.3289   17.1822 C.3       1 MOL     0.0185
     13 C           3.5118   -4.9695   14.8343 C.2       1 MOL     0.0489
     14 O           4.0580   -3.9123   14.4873 O.co2     1 MOL    -0.5492
     15 O           2.7710   -5.6908   13.9422 O.co2     1 MOL    -0.5492
     16 H          10.7338   -9.3051   18.2367 H         1 MOL     0.0232
     17 H          10.5591   -8.5257   16.6821 H         1 MOL     0.0232
     18 H          10.3822  -10.2591   16.8151 H         1 MOL     0.0232
     19 H           8.3936   -9.9586   18.1685 H         1 MOL     0.0299
     20 H           8.8033   -7.0514   17.6904 H         1 MOL     0.0232
     21 H           8.9881   -7.8817   19.2164 H         1 MOL     0.0232
     22 H           7.4162   -7.7844   18.4595 H         1 MOL     0.0232
     23 H           7.6112  -10.1611   16.0814 H         1 MOL     0.0316
     24 H           8.6989   -8.9236   15.4641 H         1 MOL     0.0316
     25 H           5.5337   -9.5567   17.0385 H         1 MOL     0.0620
     26 H           3.6931   -8.0349   17.0476 H         1 MOL     0.0621
     27 H           6.1204   -5.0693   15.4228 H         1 MOL     0.0621
     28 H           7.9729   -6.6051   15.4139 H         1 MOL     0.0620
     29 H           2.7366   -5.9405   16.5490 H         1 MOL     0.0406
     30 H           4.8831   -3.8582   16.8757 H         1 MOL     0.0239
     31 H           4.0848   -4.7102   18.1759 H         1 MOL     0.0239
     32 H           3.1759   -3.6150   17.1620 H         1 MOL     0.0239
@<TRIPOS>BOND
     1    1    2 1 
     2    1   16 1 
     3    1   17 1 
     4    1   18 1 
     5    2    3 1 
     6    2    4 1 
     7    2   19 1 
     8    3   20 1 
     9    3   21 1 
    10    3   22 1 
    11    4    5 1 
    12    4   23 1 
    13    4   24 1 
    14    5    6 ar
    15    5   10 ar
    16    6    7 ar
    17    6   25 1 
    18    7    8 ar
    19    7   26 1 
    20    8    9 ar
    21    8   11 1 
    22    9   10 ar
    23    9   27 1 
    24   10   28 1 
    25   11   12 1 
    26   11   13 1 
    27   11   29 1 
    28   12   30 1 
    29   12   31 1 
    30   12   32 1 
    31   13   14 ar
    32   13   15 ar
@<TRIPOS>SUBSTRUCTURE
1 MOL         1
@<TRIPOS>MOLECULE
query molecule
   32    32     1     0     0
SMALL
NO_CHARGE

@<TRIPOS>ATOM
      1 C           0.0083   19.9098   20.2945 C.3       1 MOL     0.0072
      2 C          -0.7933   20.7799   19.3723 C.3       1 MOL    -0.0128
      3 C           0.1017   21.5397   18.4460 C.3       1 MOL     0.0072
      4 C          -1.7533   19.9230   18.5953 C.3       1 MOL     0.0379
      5 C          -3.0541   19.8026   19.2977 C.ar      1 MOL    -0.0471
      6 C          -3.1884   20.3834   20.5375 C.ar      1 MOL     0.0037
      7 C          -4.3674   20.2977   21.2211 C.ar      1 MOL     0.0044
      8 C          -5.4401   19.6300   20.6826 C.ar      1 MOL    -0.0391
      9 C          -5.3181   19.0469   19.4457 C.ar      1 MOL     0.0044
     10 C          -4.1266   19.1345   18.7579 C.ar      1 MOL     0.0037
     11 C          -6.7228   19.5226   21.3981 C.3       1 MOL     0.0614
     12 C          -7.7406   18.8235   20.4973 C.3       1 MOL     0.0185
     13 C          -6.4773   18.7086   22.6247 C.2       1 MOL     0.0489
     14 O          -7.2598   17.8063   22.9565 O.co2     1 MOL    -0.5492
     15 O          -5.3706   18.9763   23.3786 O.co2     1 MOL    -0.5492
     16 H           0.6939   20.5161   20.8501 H         1 MOL     0.0232
     17 H           0.5532   19.1890   19.7215 H         1 MOL     0.0232
     18 H          -0.6501   19.4053   20.9700 H         1 MOL     0.0232
     19 H          -1.3419   21.4929   19.9504 H         1 MOL     0.0299
     20 H           0.6661   20.8515   17.8516 H         1 MOL     0.0232
     21 H           0.7707   22.1490   19.0167 H         1 MOL     0.0232
     22 H          -0.4899   22.1610   17.8067 H         1 MOL     0.0232
     23 H          -1.3309   18.9479   18.4729 H         1 MOL     0.0316
     24 H          -1.9233   20.3824   17.6440 H         1 MOL     0.0316
     25 H          -2.3906   20.8878   20.9551 H         1 MOL     0.0620
     26 H          -4.4527   20.7386   22.1507 H         1 MOL     0.0621
     27 H          -6.1177   18.5433   19.0305 H         1 MOL     0.0621
     28 H          -4.0385   18.6945   17.8285 H         1 MOL     0.0620
     29 H          -7.1056   20.4866   21.6616 H         1 MOL     0.0406
     30 H          -7.3708   17.8569   20.2249 H         1 MOL     0.0239
     31 H          -7.8946   19.4081   19.6141 H         1 MOL     0.0239
     32 H          -8.6670   18.7178   21.0214 H         1 MOL     0.0239
@<TRIPOS>BOND
     1    1    2 1 
     2    1   16 1 
     3    1   17 1 
     4    1   18 1 
     5    2    3 1 
     6    2    4 1 
     7    2   19 1 
     8    3   20 1 
     9    3   21 1 
    10    3   22 1 
    11    4    5 1 
    12    4   23 1 
    13    4   24 1 
    14    5    6 ar
    15    5   10 ar
    16    6    7 ar
    17    6   25 1 
    18    7    8 ar
    19    7   26 1 
    20    8    9 ar
    21    8   11 1 
    22    9   10 ar
    23    9   27 1 
    24   10   28 1 
    25   11   12 1 
    26   11   13 1 
    27   11   29 1 
    28   12   30 1 
    29   12   31 1 
    30   12   32 1 
    31   13   14 ar
    32   13   15 ar
@<TRIPOS>SUBSTRUCTURE
1 MOL         1
@<TRIPOS>MOLECULE
query molecule
   32    32     1     0     0
SMALL
NO_CHARGE

@<TRIPOS>ATOM
      1 C          12.3544   11.9752   29.2376 C.3       1 MOL     0.0072
      2 C          12.0994   10.6725   28.5390 C.3       1 MOL    -0.0128
      3 C          12.3114   10.8090   27.0649 C.3       1 MOL     0.0072
      4 C          13.0093    9.6204   29.1087 C.3       1 MOL     0.0379
      5 C          13.4369    9.9695   30.4855 C.ar      1 MOL    -0.0471
      6 C          14.6344    9.4747   30.9476 C.ar      1 MOL     0.0037
      7 C          15.0681    9.7697   32.2085 C.ar      1 MOL     0.0044
      8 C          14.3160   10.5657   33.0374 C.ar      1 MOL    -0.0391
      9 C          13.1194   11.0657   32.5869 C.ar      1 MOL     0.0044
     10 C          12.6837   10.7661   31.3138 C.ar      1 MOL     0.0037
     11 C          14.7600   10.8994   34.4013 C.3       1 MOL     0.0614
     12 C          13.6317   10.5883   35.3844 C.3       1 MOL     0.0185
     13 C          15.9499   10.0490   34.6987 C.2       1 MOL     0.0489
     14 O          15.8935    8.8155   34.5896 O.co2     1 MOL    -0.5492
     15 O          17.1070   10.6562   35.0951 O.co2     1 MOL    -0.5492
     16 H          11.7083   12.7280   28.8346 H         1 MOL     0.0232
     17 H          13.3739   12.2650   29.0916 H         1 MOL     0.0232
     18 H          12.1614   11.8620   30.2836 H         1 MOL     0.0232
     19 H          11.0816   10.3836   28.6947 H         1 MOL     0.0299
     20 H          13.3243   11.0981   26.8759 H         1 MOL     0.0232
     21 H          11.6499   11.5550   26.6772 H         1 MOL     0.0232
     22 H          12.1130    9.8726   26.5870 H         1 MOL     0.0232
     23 H          13.8746    9.5325   28.4861 H         1 MOL     0.0316
     24 H          12.4750    8.6941   29.1446 H         1 MOL     0.0316
     25 H          15.2100    8.8746   30.3362 H         1 MOL     0.0620
     26 H          15.9689    9.3907   32.5411 H         1 MOL     0.0621
     27 H          12.5461   11.6657   33.2006 H         1 MOL     0.0621
     28 H          11.7835   11.1434   30.9788 H         1 MOL     0.0620
     29 H          15.0122   11.9358   34.4881 H         1 MOL     0.0406
     30 H          13.3682    9.5539   35.3087 H         1 MOL     0.0239
     31 H          12.7793   11.1914   35.1498 H         1 MOL     0.0239
     32 H          13.9576   10.8028   36.3804 H         1 MOL     0.0239
@<TRIPOS>BOND
     1    1    2 1 
     2    1   16 1 
     3    1   17 1 
     4    1   18 1 
     5    2    3 1 
     6    2    4 1 
     7    2   19 1 
     8    3   20 1 
     9    3   21 1 
    10    3   22 1 
    11    4    5 1 
    12    4   23 1 
    13    4   24 1 
    14    5    6 ar
    15    5   10 ar
    16    6    7 ar
    17    6   25 1 
    18    7    8 ar
    19    7   26 1 
    20    8    9 ar
    21    8   11 1 
    22    9   10 ar
    23    9   27 1 
    24   10   28 1 
    25   11   12 1 
    26   11   13 1 
    27   11   29 1 
    28   12   30 1 
    29   12   31 1 
    30   12   32 1 
    31   13   14 ar
    32   13   15 ar
@<TRIPOS>SUBSTRUCTURE
1 MOL         1
@<TRIPOS>MOLECULE
query molecule
   32    32     1     0     0
SMALL
NO_CHARGE

@<TRIPOS>ATOM
      1 C          -1.0946    0.4023   -6.7855 C.3       1 MOL     0.0072
      2 C          -2.4105   -0.1186   -6.2884 C.3       1 MOL    -0.0128
      3 C          -2.4943   -0.0171   -4.7987 C.3       1 MOL     0.0072
      4 C          -3.5243    0.6570   -6.9345 C.3       1 MOL     0.0379
      5 C          -3.5109    2.0759   -6.5024 C.ar      1 MOL    -0.0471
      6 C          -2.7874    2.9820   -7.2426 C.ar      1 MOL     0.0037
      7 C          -2.7461    4.2985   -6.8822 C.ar      1 MOL     0.0044
      8 C          -3.4263    4.7410   -5.7741 C.ar      1 MOL    -0.0391
      9 C          -4.1522    3.8460   -5.0280 C.ar      1 MOL     0.0044
     10 C          -4.1920    2.5174   -5.3938 C.ar      1 MOL     0.0037
     11 C          -3.3988    6.1549   -5.3633 C.3       1 MOL     0.0614
     12 C          -1.9492    6.6386   -5.3337 C.3       1 MOL     0.0185
     13 C          -4.1769    6.9248   -6.3778 C.2       1 MOL     0.0489
     14 O          -3.6855    7.1992   -7.4823 O.co2     1 MOL    -0.5492
     15 O          -5.4454    7.3236   -6.0667 O.co2     1 MOL    -0.5492
     16 H          -0.2980   -0.1473   -6.3276 H         1 MOL     0.0232
     17 H          -1.0031    1.4384   -6.5348 H         1 MOL     0.0232
     18 H          -1.0438    0.2858   -7.8476 H         1 MOL     0.0232
     19 H          -2.5002   -1.1520   -6.5485 H         1 MOL     0.0299
     20 H          -2.4075    1.0086   -4.5061 H         1 MOL     0.0232
     21 H          -1.6997   -0.5817   -4.3578 H         1 MOL     0.0232
     22 H          -3.4346   -0.4043   -4.4664 H         1 MOL     0.0232
     23 H          -4.4604    0.2175   -6.6609 H         1 MOL     0.0316
     24 H          -3.3883    0.6246   -7.9953 H         1 MOL     0.0316
     25 H          -2.2706    2.6639   -8.0775 H         1 MOL     0.0620
     26 H          -2.1985    4.9665   -7.4477 H         1 MOL     0.0621
     27 H          -4.6682    4.1671   -4.1938 H         1 MOL     0.0621
     28 H          -4.7383    1.8474   -4.8302 H         1 MOL     0.0620
     29 H          -3.8228    6.2877   -4.3897 H         1 MOL     0.0406
     30 H          -1.5112    6.5115   -6.3018 H         1 MOL     0.0239
     31 H          -1.3983    6.0675   -4.6155 H         1 MOL     0.0239
     32 H          -1.9240    7.6730   -5.0624 H         1 MOL     0.0239
@<TRIPOS>BOND
     1    1    2 1 
     2    1   16 1 
     3    1   17 1 
     4    1   18 1 
     5    2    3 1 
     6    2    4 1 
     7    2   19 1 
     8    3   20 1 
     9    3   21 1 
    10    3   22 1 
    11    4    5 1 
    12    4   23 1 
    13    4   24 1 
    14    5    6 ar
    15    5   10 ar
    16    6    7 ar
    17    6   25 1 
    18    7    8 ar
    19    7   26 1 
    20    8    9 ar
    21    8   11 1 
    22    9   10 ar
    23    9   27 1 
    24   10   28 1 
    25   11   12 1 
    26   11   13 1 
    27   11   29 1 
    28   12   30 1 
    29   12   31 1 
    30   12   32 1 
    31   13   14 ar
    32   13   15 ar
@<TRIPOS>SUBSTRUCTURE
1 MOL         1
@<TRIPOS>MOLECULE
query molecule
   32    32     1     0     0
SMALL
NO_CHARGE

@<TRIPOS>ATOM
      1 C          20.5785   21.2579   35.4203 C.3       1 MOL     0.0072
      2 C          21.5979   21.3244   34.3220 C.3       1 MOL    -0.0128
      3 C          21.4556   20.1612   33.3929 C.3       1 MOL     0.0072
      4 C          21.4364   22.6194   33.5762 C.3       1 MOL     0.0379
      5 C          20.0147   23.0402   33.5336 C.ar      1 MOL    -0.0471
      6 C          19.6193   24.1016   34.3143 C.ar      1 MOL     0.0037
      7 C          18.3206   24.5235   34.3074 C.ar      1 MOL     0.0044
      8 C          17.3862   23.8955   33.5206 C.ar      1 MOL    -0.0391
      9 C          17.7693   22.8355   32.7369 C.ar      1 MOL     0.0044
     10 C          19.0809   22.4112   32.7460 C.ar      1 MOL     0.0037
     11 C          15.9794   24.3301   33.4942 C.3       1 MOL     0.0614
     12 C          15.2642   23.6378   32.3343 C.3       1 MOL     0.0185
     13 C          15.3668   23.9224   34.7926 C.2       1 MOL     0.0489
     14 O          15.5920   24.5614   35.8307 O.co2     1 MOL    -0.5492
     15 O          14.5503   22.8281   34.8172 O.co2     1 MOL    -0.5492
     16 H          20.6897   20.3366   35.9543 H         1 MOL     0.0232
     17 H          19.5962   21.3097   34.9992 H         1 MOL     0.0232
     18 H          20.7234   22.0787   36.0908 H         1 MOL     0.0232
     19 H          22.5775   21.2803   34.7487 H         1 MOL     0.0299
     20 H          20.4822   20.1774   32.9484 H         1 MOL     0.0232
     21 H          21.5821   19.2505   33.9399 H         1 MOL     0.0232
     22 H          22.1988   20.2232   32.6259 H         1 MOL     0.0232
     23 H          21.7933   22.4932   32.5757 H         1 MOL     0.0316
     24 H          21.9983   23.3750   34.0843 H         1 MOL     0.0316
     25 H          20.3102   24.5829   34.9112 H         1 MOL     0.0620
     26 H          18.0390   25.3215   34.8989 H         1 MOL     0.0621
     27 H          17.0762   22.3562   32.1408 H         1 MOL     0.0621
     28 H          19.3651   21.6137   32.1559 H         1 MOL     0.0620
     29 H          15.8996   25.3890   33.3611 H         1 MOL     0.0406
     30 H          15.3360   22.5767   32.4537 H         1 MOL     0.0239
     31 H          15.7236   23.9246   31.4112 H         1 MOL     0.0239
     32 H          14.2348   23.9282   32.3261 H         1 MOL     0.0239
@<TRIPOS>BOND
     1    1    2 1 
     2    1   16 1 
     3    1   17 1 
     4    1   18 1 
     5    2    3 1 
     6    2    4 1 
     7    2   19 1 
     8    3   20 1 
     9    3   21 1 
    10    3   22 1 
    11    4    5 1 
    12    4   23 1 
    13    4   24 1 
    14    5    6 ar
    15    5   10 ar
    16    6    7 ar
    17    6   25 1 
    18    7    8 ar
    19    7   26 1 
    20    8    9 ar
    21    8   11 1 
    22    9   10 ar
    23    9   27 1 
    24   10   28 1 
    25   11   12 1 
    26   11   13 1 
    27   11   29 1 
    28   12   30 1 
    29   12   31 1 
    30   12   32 1 
    31   13   14 ar
    32   13   15 ar
@<TRIPOS>SUBSTRUCTURE
1 MOL         1
@<TRIPOS>MOLECULE
query molecule
   32    32     1     0     0
SMALL
NO_CHARGE

@<TRIPOS>ATOM
      1 C          21.7419   -6.7748   -2.4811 C.3       1 MOL     0.0072
      2 C          20.9760   -6.0119   -1.4412 C.3       1 MOL    -0.0128
      3 C          21.8970   -5.4602   -0.4001 C.3       1 MOL     0.0072
      4 C          20.2074   -4.9050   -2.1071 C.3       1 MOL     0.0379
      5 C          18.7986   -5.3008   -2.3497 C.ar      1 MOL    -0.0471
      6 C          17.8733   -5.0812   -1.3558 C.ar      1 MOL     0.0037
      7 C          16.5652   -5.4298   -1.5347 C.ar      1 MOL     0.0044
      8 C          16.1503   -6.0058   -2.7106 C.ar      1 MOL    -0.0391
      9 C          17.0647   -6.2292   -3.7099 C.ar      1 MOL     0.0044
     10 C          18.3848   -5.8768   -3.5265 C.ar      1 MOL     0.0037
     11 C          14.7460   -6.3912   -2.9297 C.3       1 MOL     0.0614
     12 C          14.6816   -7.8844   -3.2496 C.3       1 MOL     0.0185
     13 C          14.0068   -6.1041   -1.6654 C.2       1 MOL     0.0489
     14 O          14.6138   -5.9367   -0.5976 O.co2     1 MOL    -0.5492
     15 O          12.6439   -6.0287   -1.7055 O.co2     1 MOL    -0.5492
     16 H          22.2913   -7.5645   -2.0110 H         1 MOL     0.0232
     17 H          22.4213   -6.1153   -2.9794 H         1 MOL     0.0232
     18 H          21.0597   -7.1895   -3.1930 H         1 MOL     0.0232
     19 H          20.2931   -6.6736   -0.9519 H         1 MOL     0.0299
     20 H          22.5949   -4.7919   -0.8601 H         1 MOL     0.0232
     21 H          22.4278   -6.2627    0.0676 H         1 MOL     0.0232
     22 H          21.3287   -4.9311    0.3358 H         1 MOL     0.0232
     23 H          20.6706   -4.6719   -3.0427 H         1 MOL     0.0316
     24 H          20.2132   -4.0524   -1.4607 H         1 MOL     0.0316
     25 H          18.1705   -4.6498   -0.4665 H         1 MOL     0.0620
     26 H          15.8825   -5.2589   -0.7793 H         1 MOL     0.0621
     27 H          16.7645   -6.6606   -4.5982 H         1 MOL     0.0621
     28 H          19.0694   -6.0468   -4.2798 H         1 MOL     0.0620
     29 H          14.3141   -5.8486   -3.7448 H         1 MOL     0.0406
     30 H          15.1109   -8.4407   -2.4424 H         1 MOL     0.0239
     31 H          15.2295   -8.0796   -4.1481 H         1 MOL     0.0239
     32 H          13.6614   -8.1767   -3.3830 H         1 MOL     0.0239
@<TRIPOS>BOND
     1    1    2 1 
     2    1   16 1 
     3    1   17 1 
     4    1   18 1 
     5    2    3 1 
     6    2    4 1 
     7    2   19 1 
     8    3   20 1 
     9    3   21 1 
    10    3   22 1 
    11    4    5 1 
    12    4   23 1 
    13    4   24 1 
    14    5    6 ar
    15    5   10 ar
    16    6    7 ar
    17    6   25 1 
    18    7    8 ar
    19    7   26 1 
    20    8    9 ar
    21    8   11 1 
    22    9   10 ar
    23    9   27 1 
    24   10   28 1 
    25   11   12 1 
    26   11   13 1 
    27   11   29 1 
    28   12   30 1 
    29   12   31 1 
    30   12   32 1 
    31   13   14 ar
    32   13   15 ar
@<TRIPOS>SUBSTRUCTURE
1 MOL         1
@<TRIPOS>MOLECULE
query molecule
   32    32     1     0     0
SMALL
NO_CHARGE

@<TRIPOS>ATOM
      1 C          -7.4581   13.1619   32.6202 C.3       1 MOL     0.0072
      2 C          -6.1706   12.4004   32.7327 C.3       1 MOL    -0.0128
      3 C          -6.4307   10.9526   33.0024 C.3       1 MOL     0.0072
      4 C          -5.3849   12.5686   31.4623 C.3       1 MOL     0.0379
      5 C          -4.0592   13.1784   31.7282 C.ar      1 MOL    -0.0471
      6 C          -3.0092   12.3524   32.0562 C.ar      1 MOL     0.0037
      7 C          -1.7711   12.8697   32.3096 C.ar      1 MOL     0.0044
      8 C          -1.5524   14.2239   32.2414 C.ar      1 MOL    -0.0391
      9 C          -2.5926   15.0580   31.9144 C.ar      1 MOL     0.0044
     10 C          -3.8417   14.5334   31.6595 C.ar      1 MOL     0.0037
     11 C          -0.2274   14.8079   32.5098 C.3       1 MOL     0.0614
     12 C          -0.0055   15.9952   31.5731 C.3       1 MOL     0.0185
     13 C          -0.2265   15.2666   33.9300 C.2       1 MOL     0.0489
     14 O           0.8362   15.4063   34.5527 O.co2     1 MOL    -0.5492
     15 O          -1.4222   15.5307   34.5344 O.co2     1 MOL    -0.5492
     16 H          -8.0213   13.0447   33.5232 H         1 MOL     0.0232
     17 H          -8.0250   12.7847   31.7949 H         1 MOL     0.0232
     18 H          -7.2461   14.1986   32.4640 H         1 MOL     0.0232
     19 H          -5.6046   12.7865   33.5538 H         1 MOL     0.0299
     20 H          -6.9972   10.5361   32.1957 H         1 MOL     0.0232
     21 H          -6.9825   10.8533   33.9136 H         1 MOL     0.0232
     22 H          -5.4999   10.4324   33.0902 H         1 MOL     0.0232
     23 H          -5.9321   13.1999   30.7942 H         1 MOL     0.0316
     24 H          -5.2325   11.6026   31.0282 H         1 MOL     0.0316
     25 H          -3.1587   11.3327   32.1121 H         1 MOL     0.0620
     26 H          -0.9930   12.2369   32.5548 H         1 MOL     0.0621
     27 H          -2.4401   16.0774   31.8592 H         1 MOL     0.0621
     28 H          -4.6214   15.1635   31.4145 H         1 MOL     0.0620
     29 H           0.5543   14.0951   32.3483 H         1 MOL     0.0406
     30 H          -0.7809   16.7174   31.7231 H         1 MOL     0.0239
     31 H          -0.0258   15.6561   30.5581 H         1 MOL     0.0239
     32 H           0.9441   16.4411   31.7816 H         1 MOL     0.0239
@<TRIPOS>BOND
     1    1    2 1 
     2    1   16 1 
     3    1   17 1 
     4    1   18 1 
     5    2    3 1 
     6    2    4 1 
     7    2   19 1 
     8    3   20 1 
     9    3   21 1 
    10    3   22 1 
    11    4    5 1 
    12    4   23 1 
    13    4   24 1 
    14    5    6 ar
    15    5   10 ar
    16    6    7 ar
    17    6   25 1 
    18    7    8 ar
    19    7   26 1 
    20    8    9 ar
    21    8   11 1 
    22    9   10 ar
    23    9   27 1 
    24   10   28 1 
    25   11   12 1 
    26   11   13 1 
    27   11   29 1 
    28   12   30 1 
    29   12   31 1 
    30   12   32 1 
    31   13   14 ar
    32   13   15 ar
@<TRIPOS>SUBSTRUCTURE
1 MOL         1
@<TRIPOS>MOLECULE
query molecule
   32    32     1     0     0
SMALL
NO_CHARGE

@<TRIPOS>ATOM
      1 C           8.8175   19.6542    1.6442 C.3       1 MOL     0.0072
      2 C           9.4223   20.8939    2.2336 C.3       1 MOL    -0.0128
      3 C           9.5491   20.7698    3.7186 C.3       1 MOL     0.0072
      4 C          10.7672   21.1334    1.6064 C.3       1 MOL     0.0379
      5 C          11.1863   22.5480    1.7599 C.ar      1 MOL    -0.0471
      6 C          10.2557   23.4672    2.1856 C.ar      1 MOL     0.0037
      7 C          10.5966   24.7804    2.3409 C.ar      1 MOL     0.0044
      8 C          11.8749   25.2064    2.0746 C.ar      1 MOL    -0.0391
      9 C          12.8123   24.2979    1.6497 C.ar      1 MOL     0.0044
     10 C          12.4655   22.9729    1.4934 C.ar      1 MOL     0.0037
     11 C          12.2691   26.6164    2.2337 C.3       1 MOL     0.0614
     12 C          12.6040   26.8790    3.7017 C.3       1 MOL     0.0185
     13 C          13.4762   26.8360    1.3839 C.2       1 MOL     0.0489
     14 O          14.5143   27.3133    1.8645 O.co2     1 MOL    -0.5492
     15 O          13.4167   26.5004    0.0615 O.co2     1 MOL    -0.5492
     16 H           7.8591   19.4795    2.0884 H         1 MOL     0.0232
     17 H           9.4574   18.8186    1.8368 H         1 MOL     0.0232
     18 H           8.7036   19.7810    0.5882 H         1 MOL     0.0232
     19 H           8.7830   21.7271    2.0315 H         1 MOL     0.0299
     20 H          10.1852   19.9419    3.9538 H         1 MOL     0.0232
     21 H           8.5820   20.6086    4.1466 H         1 MOL     0.0232
     22 H           9.9711   21.6682    4.1177 H         1 MOL     0.0232
     23 H          10.7141   20.8960    0.5648 H         1 MOL     0.0316
     24 H          11.4857   20.5119    2.0987 H         1 MOL     0.0316
     25 H           9.2910   23.1618    2.3888 H         1 MOL     0.0620
     26 H           9.8869   25.4585    2.6609 H         1 MOL     0.0621
     27 H          13.7764   24.6062    1.4474 H         1 MOL     0.0621
     28 H          13.1728   22.2929    1.1733 H         1 MOL     0.0620
     29 H          11.4814   27.2784    1.9397 H         1 MOL     0.0406
     30 H          13.3912   26.2231    4.0106 H         1 MOL     0.0239
     31 H          11.7359   26.7014    4.3019 H         1 MOL     0.0239
     32 H          12.9177   27.8949    3.8195 H         1 MOL     0.0239
@<TRIPOS>BOND
     1    1    2 1 
     2    1   16 1 
     3    1   17 1 
     4    1   18 1 
     5    2    3 1 
     6    2    4 1 
     7    2   19 1 
     8    3   20 1 
     9    3   21 1 
    10    3   22 1 
    11    4    5 1 
    12    4   23 1 
    13    4   24 1 
    14    5    6 ar
    15    5   10 ar
    16    6    7 ar
    17    6   25 1 
    18    7    8 ar
    19    7   26 1 
    20    8    9 ar
    21    8   11 1 
    22    9   10 ar
    23    9   27 1 
    24   10   28 1 
    25   11   12 1 
    26   11   13 1 
    27   11   29 1 
    28   12   30 1 
    29   12   31 1 
    30   12   32 1 
    31   13   14 ar
    32   13   15 ar
@<TRIPOS>SUBSTRUCTURE
1 MOL         1
@<TRIPOS>MOLECULE
query molecule
   32    32     1     0     0
SMALL
NO_CHARGE

@<TRIPOS>ATOM
      1 C           2.7817   -7.1351   38.3716 C.3       1 MOL     0.0072
      2 C           3.1011   -7.9787   37.1731 C.3       1 MOL    -0.0128
      3 C           1.8849   -8.7058   36.6949 C.3       1 MOL     0.0072
      4 C           3.6545   -7.1014   36.0852 C.3       1 MOL     0.0379
      5 C           3.5043   -5.6655   36.4257 C.ar      1 MOL    -0.0471
      6 C           2.3924   -4.9948   35.9719 C.ar      1 MOL     0.0037
      7 C           2.2125   -3.6723   36.2607 C.ar      1 MOL     0.0044
      8 C           3.1389   -2.9885   37.0096 C.ar      1 MOL    -0.0391
      9 C           4.2523   -3.6477   37.4684 C.ar      1 MOL     0.0044
     10 C           4.4317   -4.9827   37.1751 C.ar      1 MOL     0.0037
     11 C           2.9696   -1.5625   37.3356 C.3       1 MOL     0.0614
     12 C           3.8351   -0.7279   36.3919 C.3       1 MOL     0.0185
     13 C           1.5276   -1.2324   37.1374 C.2       1 MOL     0.0489
     14 O           0.9604   -0.4001   37.8599 O.co2     1 MOL    -0.5492
     15 O           0.8409   -1.8663   36.1416 O.co2     1 MOL    -0.5492
     16 H           2.3869   -7.7562   39.1494 H         1 MOL     0.0232
     17 H           2.0571   -6.3947   38.1041 H         1 MOL     0.0232
     18 H           3.6729   -6.6546   38.7166 H         1 MOL     0.0232
     19 H           3.8313   -8.7116   37.4438 H         1 MOL     0.0299
     20 H           1.1332   -7.9972   36.4154 H         1 MOL     0.0232
     21 H           1.5116   -9.3303   37.4791 H         1 MOL     0.0232
     22 H           2.1387   -9.3088   35.8483 H         1 MOL     0.0232
     23 H           3.1298   -7.3011   35.1747 H         1 MOL     0.0316
     24 H           4.6968   -7.3161   35.9746 H         1 MOL     0.0316
     25 H           1.6881   -5.4953   35.4074 H         1 MOL     0.0620
     26 H           1.3729   -3.1825   35.9128 H         1 MOL     0.0621
     27 H           4.9549   -3.1445   38.0329 H         1 MOL     0.0621
     28 H           5.2702   -5.4747   37.5214 H         1 MOL     0.0620
     29 H           3.2641   -1.3538   38.3430 H         1 MOL     0.0406
     30 H           3.5519   -0.9265   35.3792 H         1 MOL     0.0239
     31 H           4.8643   -0.9862   36.5314 H         1 MOL     0.0239
     32 H           3.6957    0.3109   36.6055 H         1 MOL     0.0239
@<TRIPOS>BOND
     1    1    2 1 
     2    1   16 1 
     3    1   17 1 
     4    1   18 1 
     5    2    3 1 
     6    2    4 1 
     7    2   19 1 
     8    3   20 1 
     9    3   21 1 
    10    3   22 1 
    11    4    5 1 
    12    4   23 1 
    13    4   24 1 
    14    5    6 ar
    15    5   10 ar
    16    6    7 ar
    17    6   25 1 
    18    7    8 ar
    19    7   26 1 
    20    8    9 ar
    21    8   11 1 
    22    9   10 ar
    23    9   27 1 
    24   10   28 1 
    25   11   12 1 
    26   11   13 1 
    27   11   29 1 
    28   12   30 1 
    29   12   31 1 
    30   12   32 1 
    31   13   14 ar
    32   13   15 ar
@<TRIPOS>SUBSTRUCTURE
1 MOL         1
@<TRIPOS>MOLECULE
query molecule
   32    32     1     0     0
SMALL
NO_CHARGE

@<TRIPOS>ATOM
      1 C           7.9593   13.6626   32.8177 C.3       1 MOL     0.0072
      2 C           6.7716   12.7892   32.5408 C.3       1 MOL    -0.0128
      3 C           6.4336   12.7968   31.0841 C.3       1 MOL     0.0072
      4 C           7.0673   11.3912   33.0075 C.3       1 MOL     0.0379
      5 C           5.8553   10.7452   33.5679 C.ar      1 MOL    -0.0471
      6 C           5.5039   11.0228   34.8686 C.ar      1 MOL     0.0037
      7 C           4.3964   10.4508   35.4264 C.ar      1 MOL     0.0044
      8 C           3.6139    9.5882   34.6984 C.ar      1 MOL    -0.0391
      9 C           3.9545    9.3041   33.3992 C.ar      1 MOL     0.0044
     10 C           5.0732    9.8826   32.8385 C.ar      1 MOL     0.0037
     11 C           2.4146    8.9578   35.2753 C.3       1 MOL     0.0614
     12 C           1.1782    9.4618   34.5314 C.3       1 MOL     0.0185
     13 C           2.5592    7.4837   35.0922 C.2       1 MOL     0.0489
     14 O           1.6922    6.8287   34.4957 O.co2     1 MOL    -0.5492
     15 O           3.6683    6.8663   35.5958 O.co2     1 MOL    -0.5492
     16 H           7.7531   14.6597   32.4866 H         1 MOL     0.0232
     17 H           8.8117   13.2822   32.2947 H         1 MOL     0.0232
     18 H           8.1588   13.6697   33.8686 H         1 MOL     0.0232
     19 H           5.9247   13.1690   33.0720 H         1 MOL     0.0299
     20 H           7.2642   12.4209   30.5237 H         1 MOL     0.0232
     21 H           6.2183   13.7977   30.7734 H         1 MOL     0.0232
     22 H           5.5782   12.1777   30.9122 H         1 MOL     0.0232
     23 H           7.8243   11.4278   33.7624 H         1 MOL     0.0316
     24 H           7.3996   10.8172   32.1679 H         1 MOL     0.0316
     25 H           6.0828   11.6686   35.4282 H         1 MOL     0.0620
     26 H           4.1457   10.6688   36.4039 H         1 MOL     0.0621
     27 H           3.3735    8.6581   32.8419 H         1 MOL     0.0621
     28 H           5.3264    9.6662   31.8617 H         1 MOL     0.0620
     29 H           2.3087    9.1954   36.3134 H         1 MOL     0.0406
     30 H           1.2699    9.2314   33.4904 H         1 MOL     0.0239
     31 H           1.0956   10.5216   34.6560 H         1 MOL     0.0239
     32 H           0.3055    8.9868   34.9276 H         1 MOL     0.0239
@<TRIPOS>BOND
     1    1    2 1 
     2    1   16 1 
     3    1   17 1 
     4    1   18 1 
     5    2    3 1 
     6    2    4 1 
     7    2   19 1 
     8    3   20 1 
     9    3   21 1 
    10    3   22 1 
    11    4    5 1 
    12    4   23 1 
    13    4   24 1 
    14    5    6 ar
    15    5   10 ar
    16    6    7 ar
    17    6   25 1 
    18    7    8 ar
    19    7   26 1 
    20    8    9 ar
    21    8   11 1 
    22    9   10 ar
    23    9   27 1 
    24   10   28 1 
    25   11   12 1 
    26   11   13 1 
    27   11   29 1 
    28   12   30 1 
    29   12   31 1 
    30   12   32 1 
    31   13   14 ar
    32   13   15 ar
@<TRIPOS>SUBSTRUCTURE
1 MOL         1
@<TRIPOS>MOLECULE
query molecule
   32    32     1     0     0
SMALL
NO_CHARGE

@<TRIPOS>ATOM
      1 C          10.4496   27.1041   -9.4930 C.3       1 MOL     0.0072
      2 C           9.5639   27.2380   -8.2898 C.3       1 MOL    -0.0128
      3 C           9.0301   28.6301   -8.1743 C.3       1 MOL     0.0072
      4 C           8.4383   26.2470   -8.3926 C.3       1 MOL     0.0379
      5 C           7.2287   26.7341   -7.6855 C.ar      1 MOL    -0.0471
      6 C           7.2374   26.7620   -6.3102 C.ar      1 MOL     0.0037
      7 C           6.1463   27.2023   -5.6172 C.ar      1 MOL     0.0044
      8 C           5.0208   27.6251   -6.2814 C.ar      1 MOL    -0.0391
      9 C           5.0009   27.6023   -7.6538 C.ar      1 MOL     0.0044
     10 C           6.1035   27.1570   -8.3511 C.ar      1 MOL     0.0037
     11 C           3.8307   28.1047   -5.5587 C.3       1 MOL     0.0614
     12 C           2.9541   28.9094   -6.5181 C.3       1 MOL     0.0185
     13 C           3.0928   26.9009   -5.0752 C.2       1 MOL     0.0489
     14 O           2.6573   26.0585   -5.8735 O.co2     1 MOL    -0.5492
     15 O           2.9048   26.7430   -3.7319 O.co2     1 MOL    -0.5492
     16 H          11.2530   27.8085   -9.4242 H         1 MOL     0.0232
     17 H           9.8806   27.2976  -10.3783 H         1 MOL     0.0232
     18 H          10.8474   26.1120   -9.5337 H         1 MOL     0.0232
     19 H          10.1353   27.0358   -7.4087 H         1 MOL     0.0299
     20 H           8.4516   28.8631   -9.0440 H         1 MOL     0.0232
     21 H           9.8449   29.3187   -8.0937 H         1 MOL     0.0232
     22 H           8.4119   28.7050   -7.3044 H         1 MOL     0.0232
     23 H           8.7479   25.3203   -7.9571 H         1 MOL     0.0316
     24 H           8.1964   26.1156   -9.4265 H         1 MOL     0.0316
     25 H           8.0758   26.4467   -5.7975 H         1 MOL     0.0620
     26 H           6.1678   27.2172   -4.5851 H         1 MOL     0.0621
     27 H           4.1611   27.9185   -8.1639 H         1 MOL     0.0621
     28 H           6.0846   27.1408   -9.3828 H         1 MOL     0.0620
     29 H           4.0998   28.7322   -4.7347 H         1 MOL     0.0406
     30 H           2.6768   28.2941   -7.3487 H         1 MOL     0.0239
     31 H           3.5002   29.7595   -6.8708 H         1 MOL     0.0239
     32 H           2.0740   29.2377   -6.0064 H         1 MOL     0.0239
@<TRIPOS>BOND
     1    1    2 1 
     2    1   16 1 
     3    1   17 1 
     4    1   18 1 
     5    2    3 1 
     6    2    4 1 
     7    2   19 1 
     8    3   20 1 
     9    3   21 1 
    10    3   22 1 
    11    4    5 1 
    12    4   23 1 
    13    4   24 1 
    14    5    6 ar
    15    5   10 ar
    16    6    7 ar
    17    6   25 1 
    18    7    8 ar
    19    7   26 1 
    20    8    9 ar
    21    8   11 1 
    22    9   10 ar
    23    9   27 1 
    24   10   28 1 
    25   11   12 1 
    26   11   13 1 
    27   11   29 1 
    28   12   30 1 
    29   12   31 1 
    30   12   32 1 
    31   13   14 ar
    32   13   15 ar
@<TRIPOS>SUBSTRUCTURE
1 MOL         1
@<TRIPOS>MOLECULE
query molecule
   32    32     1     0     0
SMALL
NO_CHARGE

@<TRIPOS>ATOM
      1 C          19.3598   -5.9156   28.7584 C.3       1 MOL     0.0072
      2 C          18.6624   -6.0293   27.4353 C.3       1 MOL    -0.0128
      3 C          19.6292   -6.3926   26.3537 C.3       1 MOL     0.0072
      4 C          17.5728   -7.0597   27.5384 C.3       1 MOL     0.0379
      5 C          16.8708   -7.2295   26.2428 C.ar      1 MOL    -0.0471
      6 C          16.1665   -6.1641   25.7319 C.ar      1 MOL     0.0037
      7 C          15.5046   -6.2747   24.5426 C.ar      1 MOL     0.0044
      8 C          15.5306   -7.4519   23.8356 C.ar      1 MOL    -0.0391
      9 C          16.2307   -8.5218   24.3354 C.ar      1 MOL     0.0044
     10 C          16.8977   -8.4077   25.5364 C.ar      1 MOL     0.0037
     11 C          14.8258   -7.5983   22.5508 C.3       1 MOL     0.0614
     12 C          14.3959   -9.0550   22.3797 C.3       1 MOL     0.0185
     13 C          13.6268   -6.7110   22.6014 C.2       1 MOL     0.0489
     14 O          12.5679   -7.1012   23.1143 O.co2     1 MOL    -0.5492
     15 O          13.7170   -5.4562   22.0703 O.co2     1 MOL    -0.5492
     16 H          20.1372   -5.1826   28.6895 H         1 MOL     0.0232
     17 H          19.7844   -6.8621   29.0206 H         1 MOL     0.0232
     18 H          18.6560   -5.6199   29.5077 H         1 MOL     0.0232
     19 H          18.2332   -5.0831   27.1819 H         1 MOL     0.0299
     20 H          20.0769   -7.3382   26.5791 H         1 MOL     0.0232
     21 H          20.3908   -5.6441   26.2903 H         1 MOL     0.0232
     22 H          19.1126   -6.4566   25.4191 H         1 MOL     0.0232
     23 H          16.8672   -6.7489   28.2799 H         1 MOL     0.0316
     24 H          18.0162   -7.9952   27.8086 H         1 MOL     0.0316
     25 H          16.1373   -5.2733   26.2524 H         1 MOL     0.0620
     26 H          14.9801   -5.4662   24.1722 H         1 MOL     0.0621
     27 H          16.2582   -9.4113   23.8125 H         1 MOL     0.0621
     28 H          17.4226   -9.2143   25.9092 H         1 MOL     0.0620
     29 H          15.4538   -7.3288   21.7272 H         1 MOL     0.0406
     30 H          13.7667   -9.3393   23.1974 H         1 MOL     0.0239
     31 H          15.2630   -9.6821   22.3625 H         1 MOL     0.0239
     32 H          13.8592   -9.1626   21.4608 H         1 MOL     0.0239
@<TRIPOS>BOND
     1    1    2 1 
     2    1   16 1 
     3    1   17 1 
     4    1   18 1 
     5    2    3 1 
     6    2    4 1 
     7    2   19 1 
     8    3   20 1 
     9    3   21 1 
    10    3   22 1 
    11    4    5 1 
    12    4   23 1 
    13    4   24 1 
    14    5    6 ar
    15    5   10 ar
    16    6    7 ar
    17    6   25 1 
    18    7    8 ar
    19    7   26 1 
    20    8    9 ar
    21    8   11 1 
    22    9   10 ar
    23    9   27 1 
    24   10   28 1 
    25   11   12 1 
    26   11   13 1 
    27   11   29 1 
    28   12   30 1 
    29   12   31 1 
    30   12   32 1 
    31   13   14 ar
    32   13   15 ar
@<TRIPOS>SUBSTRUCTURE
1 MOL         1
@<TRIPOS>MOLECULE
query molecule
   32    32     1     0     0
SMALL
NO_CHARGE

@<TRIPOS>ATOM
      1 C           7.2730    7.8482   14.5337 C.3       1 MOL     0.0072
      2 C           7.8215    7.6825   15.9199 C.3       1 MOL    -0.0128
      3 C           9.2200    7.1542   15.8791 C.3       1 MOL     0.0072
      4 C           7.7771    9.0066   16.6300 C.3       1 MOL     0.0379
      5 C           6.3790    9.4439   16.8626 C.ar      1 MOL    -0.0471
      6 C           5.5018    8.5597   17.4464 C.ar      1 MOL     0.0037
      7 C           4.2050    8.9187   17.6794 C.ar      1 MOL     0.0044
      8 C           3.7539   10.1694   17.3348 C.ar      1 MOL    -0.0391
      9 C           4.6204   11.0606   16.7521 C.ar      1 MOL     0.0044
     10 C           5.9289   10.6955   16.5176 C.ar      1 MOL     0.0037
     11 C           2.3608   10.5824   17.5749 C.3       1 MOL     0.0614
     12 C           1.6817    9.5505   18.4749 C.3       1 MOL     0.0185
     13 C           2.4049   11.9094   18.2566 C.2       1 MOL     0.0489
     14 O           2.4214   11.9889   19.4935 O.co2     1 MOL    -0.5492
     15 O           2.4268   13.0395   17.4904 O.co2     1 MOL    -0.5492
     16 H           7.3029    6.9072   14.0239 H         1 MOL     0.0232
     17 H           7.8638    8.5623   13.9990 H         1 MOL     0.0232
     18 H           6.2615    8.1917   14.5897 H         1 MOL     0.0232
     19 H           7.2228    6.9741   16.4523 H         1 MOL     0.0299
     20 H           9.8458    7.8433   15.3511 H         1 MOL     0.0232
     21 H           9.2294    6.2089   15.3783 H         1 MOL     0.0232
     22 H           9.5857    7.0333   16.8772 H         1 MOL     0.0232
     23 H           8.2777    9.7399   16.0334 H         1 MOL     0.0316
     24 H           8.2604    8.8984   17.5785 H         1 MOL     0.0316
     25 H           5.8263    7.6160   17.7100 H         1 MOL     0.0620
     26 H           3.5585    8.2439   18.1181 H         1 MOL     0.0621
     27 H           4.2930   12.0037   16.4897 H         1 MOL     0.0621
     28 H           6.5773   11.3680   16.0789 H         1 MOL     0.0620
     29 H           1.8102   10.6521   16.6598 H         1 MOL     0.0406
     30 H           2.2221    9.4695   19.3951 H         1 MOL     0.0239
     31 H           1.6721    8.6004   17.9824 H         1 MOL     0.0239
     32 H           0.6773    9.8587   18.6757 H         1 MOL     0.0239
@<TRIPOS>BOND
     1    1    2 1 
     2    1   16 1 
     3    1   17 1 
     4    1   18 1 
     5    2    3 1 
     6    2    4 1 
     7    2   19 1 
     8    3   20 1 
     9    3   21 1 
    10    3   22 1 
    11    4    5 1 
    12    4   23 1 
    13    4   24 1 
    14    5    6 ar
    15    5   10 ar
    16    6    7 ar
    17    6   25 1 
    18    7    8 ar
    19    7   26 1 
    20    8    9 ar
    21    8   11 1 
    22    9   10 ar
    23    9   27 1 
    24   10   28 1 
    25   11   12 1 
    26   11   13 1 
    27   11   29 1 
    28   12   30 1 
    29   12   31 1 
    30   12   32 1 
    31   13   14 ar
    32   13   15 ar
@<TRIPOS>SUBSTRUCTURE
1 MOL         1
@<TRIPOS>MOLECULE
query molecule
   32    32     1     0     0
SMALL
NO_CHARGE

@<TRIPOS>ATOM
      1 C          12.1590   29.4571   -8.1780 C.3       1 MOL     0.0072
      2 C          12.7820   29.4270   -6.8138 C.3       1 MOL    -0.0128
      3 C          11.7528   29.1487   -5.7650 C.3       1 MOL     0.0072
      4 C          13.8608   28.3806   -6.7866 C.3       1 MOL     0.0379
      5 C          13.2899   27.0269   -6.5826 C.ar      1 MOL    -0.0471
      6 C          13.6883   26.3041   -5.4820 C.ar      1 MOL     0.0037
      7 C          13.1893   25.0536   -5.2540 C.ar      1 MOL     0.0044
      8 C          12.2808   24.4955   -6.1198 C.ar      1 MOL    -0.0391
      9 C          11.8754   25.2076   -7.2212 C.ar      1 MOL     0.0044
     10 C          12.3809   26.4697   -7.4493 C.ar      1 MOL     0.0037
     11 C          11.7269   23.1491   -5.8976 C.3       1 MOL     0.0614
     12 C          12.8697   22.1845   -5.5818 C.3       1 MOL     0.0185
     13 C          10.7957   23.2410   -4.7350 C.2       1 MOL     0.0489
     14 O          11.2068   23.0818   -3.5765 O.co2     1 MOL    -0.5492
     15 O           9.4767   23.5047   -4.9708 O.co2     1 MOL    -0.5492
     16 H          11.3895   30.2012   -8.2020 H         1 MOL     0.0232
     17 H          11.7359   28.4994   -8.3984 H         1 MOL     0.0232
     18 H          12.9066   29.6934   -8.9057 H         1 MOL     0.0232
     19 H          13.2102   30.3838   -6.6019 H         1 MOL     0.0299
     20 H          11.3046   28.1947   -5.9501 H         1 MOL     0.0232
     21 H          10.9995   29.9078   -5.7946 H         1 MOL     0.0232
     22 H          12.2170   29.1435   -4.8011 H         1 MOL     0.0232
     23 H          14.5382   28.5980   -5.9878 H         1 MOL     0.0316
     24 H          14.3702   28.3951   -7.7274 H         1 MOL     0.0316
     25 H          14.3709   26.7103   -4.8231 H         1 MOL     0.0620
     26 H          13.4981   24.5234   -4.4237 H         1 MOL     0.0621
     27 H          11.1924   24.7989   -7.8784 H         1 MOL     0.0621
     28 H          12.0742   27.0018   -8.2787 H         1 MOL     0.0620
     29 H          11.2081   22.7919   -6.7628 H         1 MOL     0.0406
     30 H          13.3987   22.5294   -4.7178 H         1 MOL     0.0239
     31 H          13.5391   22.1409   -6.4157 H         1 MOL     0.0239
     32 H          12.4715   21.2100   -5.3923 H         1 MOL     0.0239
@<TRIPOS>BOND
     1    1    2 1 
     2    1   16 1 
     3    1   17 1 
     4    1   18 1 
     5    2    3 1 
     6    2    4 1 
     7    2   19 1 
     8    3   20 1 
     9    3   21 1 
    10    3   22 1 
    11    4    5 1 
    12    4   23 1 
    13    4   24 1 
    14    5    6 ar
    15    5   10 ar
    16    6    7 ar
    17    6   25 1 
    18    7    8 ar
    19    7   26 1 
    20    8    9 ar
    21    8   11 1 
    22    9   10 ar
    23    9   27 1 
    24   10   28 1 
    25   11   12 1 
    26   11   13 1 
    27   11   29 1 
    28   12   30 1 
    29   12   31 1 
    30   12   32 1 
    31   13   14 ar
    32   13   15 ar
@<TRIPOS>SUBSTRUCTURE
1 MOL         1
@<TRIPOS>MOLECULE
query molecule
   32    32     1     0     0
SMALL
NO_CHARGE

@<TRIPOS>ATOM
      1 C          14.8907   21.4945   -4.8470 C.3       1 MOL     0.0072
      2 C          15.2405   22.7244   -4.0626 C.3       1 MOL    -0.0128
      3 C          16.7020   22.7565   -3.7474 C.3       1 MOL     0.0072
      4 C          14.8425   23.9416   -4.8496 C.3       1 MOL     0.0379
      5 C          13.3777   23.9761   -5.0801 C.ar      1 MOL    -0.0471
      6 C          12.5646   24.4461   -4.0750 C.ar      1 MOL     0.0037
      7 C          11.2103   24.4957   -4.2426 C.ar      1 MOL     0.0044
      8 C          10.6361   24.0772   -5.4180 C.ar      1 MOL    -0.0391
      9 C          11.4376   23.6067   -6.4284 C.ar      1 MOL     0.0044
     10 C          12.8045   23.5572   -6.2565 C.ar      1 MOL     0.0037
     11 C           9.1787   24.1200   -5.6251 C.3       1 MOL     0.0614
     12 C           8.4783   24.0199   -4.2702 C.3       1 MOL     0.0185
     13 C           8.8629   25.4276   -6.2716 C.2       1 MOL     0.0489
     14 O           7.9128   25.5340   -7.0606 O.co2     1 MOL    -0.5492
     15 O           9.6424   26.5095   -5.9776 O.co2     1 MOL    -0.5492
     16 H          15.1727   20.6246   -4.2901 H         1 MOL     0.0232
     17 H          15.4139   21.5055   -5.7802 H         1 MOL     0.0232
     18 H          13.8367   21.4758   -5.0285 H         1 MOL     0.0232
     19 H          14.7090   22.7123   -3.1347 H         1 MOL     0.0299
     20 H          17.2628   22.7693   -4.6588 H         1 MOL     0.0232
     21 H          16.9636   21.8877   -3.1806 H         1 MOL     0.0232
     22 H          16.9259   23.6347   -3.1787 H         1 MOL     0.0232
     23 H          15.3444   23.9263   -5.7942 H         1 MOL     0.0316
     24 H          15.1180   24.8112   -4.2904 H         1 MOL     0.0316
     25 H          12.9818   24.7634   -3.1859 H         1 MOL     0.0620
     26 H          10.6132   24.8508   -3.4789 H         1 MOL     0.0621
     27 H          11.0175   23.2902   -7.3166 H         1 MOL     0.0621
     28 H          13.4037   23.2024   -7.0182 H         1 MOL     0.0620
     29 H           8.8472   23.3103   -6.2413 H         1 MOL     0.0406
     30 H           8.8006   24.8242   -3.6421 H         1 MOL     0.0239
     31 H           8.7265   23.0863   -3.8096 H         1 MOL     0.0239
     32 H           7.4196   24.0781   -4.4112 H         1 MOL     0.0239
@<TRIPOS>BOND
     1    1    2 1 
     2    1   16 1 
     3    1   17 1 
     4    1   18 1 
     5    2    3 1 
     6    2    4 1 
     7    2   19 1 
     8    3   20 1 
     9    3   21 1 
    10    3   22 1 
    11    4    5 1 
    12    4   23 1 
    13    4   24 1 
    14    5    6 ar
    15    5   10 ar
    16    6    7 ar
    17    6   25 1 
    18    7    8 ar
    19    7   26 1 
    20    8    9 ar
    21    8   11 1 
    22    9   10 ar
    23    9   27 1 
    24   10   28 1 
    25   11   12 1 
    26   11   13 1 
    27   11   29 1 
    28   12   30 1 
    29   12   31 1 
    30   12   32 1 
    31   13   14 ar
    32   13   15 ar
@<TRIPOS>SUBSTRUCTURE
1 MOL         1
@<TRIPOS>MOLECULE
query molecule
   32    32     1     0     0
SMALL
NO_CHARGE

@<TRIPOS>ATOM
      1 C          -0.7984    6.9533   33.4946 C.3       1 MOL     0.0072
      2 C          -2.1499    7.3258   32.9609 C.3       1 MOL    -0.0128
      3 C          -2.4951    8.7350   33.3235 C.3       1 MOL     0.0072
      4 C          -2.1578    7.1468   31.4684 C.3       1 MOL     0.0379
      5 C          -3.2015    6.1796   31.0497 C.ar      1 MOL    -0.0471
      6 C          -4.4491    6.2694   31.6223 C.ar      1 MOL     0.0037
      7 C          -5.4407    5.4001   31.2676 C.ar      1 MOL     0.0044
      8 C          -5.2097    4.4207   30.3328 C.ar      1 MOL    -0.0391
      9 C          -3.9686    4.3218   29.7542 C.ar      1 MOL     0.0044
     10 C          -2.9692    5.2004   30.1143 C.ar      1 MOL     0.0037
     11 C          -6.2610    3.4705   29.9321 C.3       1 MOL     0.0614
     12 C          -7.2888    3.3585   31.0579 C.3       1 MOL     0.0185
     13 C          -6.9043    4.0170   28.7013 C.2       1 MOL     0.0489
     14 O          -6.8029    5.2176   28.4099 O.co2     1 MOL    -0.5492
     15 O          -7.6100    3.1674   27.8981 O.co2     1 MOL    -0.5492
     16 H          -0.7881    7.0795   34.5578 H         1 MOL     0.0232
     17 H          -0.0544    7.5832   33.0536 H         1 MOL     0.0232
     18 H          -0.5899    5.9320   33.2545 H         1 MOL     0.0232
     19 H          -2.8885    6.6882   33.3987 H         1 MOL     0.0299
     20 H          -1.7720    9.3995   32.8984 H         1 MOL     0.0232
     21 H          -2.4928    8.8399   34.3881 H         1 MOL     0.0232
     22 H          -3.4661    8.9743   32.9432 H         1 MOL     0.0232
     23 H          -1.2010    6.7856   31.1549 H         1 MOL     0.0316
     24 H          -2.3709    8.0924   31.0153 H         1 MOL     0.0316
     25 H          -4.6372    6.9999   32.3267 H         1 MOL     0.0620
     26 H          -6.3718    5.4800   31.7063 H         1 MOL     0.0621
     27 H          -3.7835    3.5904   29.0498 H         1 MOL     0.0621
     28 H          -2.0374    5.1226   29.6776 H         1 MOL     0.0620
     29 H          -5.8572    2.4981   29.7407 H         1 MOL     0.0406
     30 H          -7.7017    4.3247   31.2610 H         1 MOL     0.0239
     31 H          -6.8117    2.9823   31.9390 H         1 MOL     0.0239
     32 H          -8.0700    2.6904   30.7621 H         1 MOL     0.0239
@<TRIPOS>BOND
     1    1    2 1 
     2    1   16 1 
     3    1   17 1 
     4    1   18 1 
     5    2    3 1 
     6    2    4 1 
     7    2   19 1 
     8    3   20 1 
     9    3   21 1 
    10    3   22 1 
    11    4    5 1 
    12    4   23 1 
    13    4   24 1 
    14    5    6 ar
    15    5   10 ar
    16    6    7 ar
    17    6   25 1 
    18    7    8 ar
    19    7   26 1 
    20    8    9 ar
    21    8   11 1 
    22    9   10 ar
    23    9   27 1 
    24   10   28 1 
    25   11   12 1 
    26   11   13 1 
    27   11   29 1 
    28   12   30 1 
    29   12   31 1 
    30   12   32 1 
    31   13   14 ar
    32   13   15 ar
@<TRIPOS>SUBSTRUCTURE
1 MOL         1
@<TRIPOS>MOLECULE
query molecule
   32    32     1     0     0
SMALL
NO_CHARGE

@<TRIPOS>ATOM
      1 C          -6.3853    1.9997   31.1056 C.3       1 MOL     0.0072
      2 C          -4.8988    1.8847   30.9412 C.3       1 MOL    -0.0128
      3 C          -4.4680    0.4532   30.9829 C.3       1 MOL     0.0072
      4 C          -4.4953    2.5204   29.6402 C.3       1 MOL     0.0379
      5 C          -4.9249    3.9389   29.5804 C.ar      1 MOL    -0.0471
      6 C          -5.5637    4.3854   28.4469 C.ar      1 MOL     0.0037
      7 C          -5.9766    5.6832   28.3474 C.ar      1 MOL     0.0044
      8 C          -5.7614    6.5656   29.3778 C.ar      1 MOL    -0.0391
      9 C          -5.1255    6.1312   30.5142 C.ar      1 MOL     0.0044
     10 C          -4.7092    4.8206   30.6119 C.ar      1 MOL     0.0037
     11 C          -6.1965    7.9702   29.2967 C.3       1 MOL     0.0614
     12 C          -4.9707    8.8790   29.3859 C.3       1 MOL     0.0185
     13 C          -6.8730    8.1476   27.9783 C.2       1 MOL     0.0489
     14 O          -7.8352    7.4356   27.6561 O.co2     1 MOL    -0.5492
     15 O          -6.4113    9.1123   27.1291 O.co2     1 MOL    -0.5492
     16 H          -6.6773    1.5477   32.0313 H         1 MOL     0.0232
     17 H          -6.8738    1.5001   30.2953 H         1 MOL     0.0232
     18 H          -6.6643    3.0323   31.1091 H         1 MOL     0.0232
     19 H          -4.4156    2.3922   31.7490 H         1 MOL     0.0299
     20 H          -4.9363   -0.0831   30.1838 H         1 MOL     0.0232
     21 H          -4.7561    0.0214   31.9183 H         1 MOL     0.0232
     22 H          -3.4051    0.3964   30.8755 H         1 MOL     0.0232
     23 H          -4.9491    1.9838   28.8337 H         1 MOL     0.0316
     24 H          -3.4287    2.4860   29.5630 H         1 MOL     0.0316
     25 H          -5.7317    3.7339   27.6642 H         1 MOL     0.0620
     26 H          -6.4545    6.0035   27.4902 H         1 MOL     0.0621
     27 H          -4.9591    6.7850   31.2954 H         1 MOL     0.0621
     28 H          -4.2310    4.4978   31.4676 H         1 MOL     0.0620
     29 H          -6.8648    8.2194   30.0946 H         1 MOL     0.0406
     30 H          -4.2921    8.6409   28.5934 H         1 MOL     0.0239
     31 H          -4.4851    8.7297   30.3279 H         1 MOL     0.0239
     32 H          -5.2772    9.9002   29.3001 H         1 MOL     0.0239
@<TRIPOS>BOND
     1    1    2 1 
     2    1   16 1 
     3    1   17 1 
     4    1   18 1 
     5    2    3 1 
     6    2    4 1 
     7    2   19 1 
     8    3   20 1 
     9    3   21 1 
    10    3   22 1 
    11    4    5 1 
    12    4   23 1 
    13    4   24 1 
    14    5    6 ar
    15    5   10 ar
    16    6    7 ar
    17    6   25 1 
    18    7    8 ar
    19    7   26 1 
    20    8    9 ar
    21    8   11 1 
    22    9   10 ar
    23    9   27 1 
    24   10   28 1 
    25   11   12 1 
    26   11   13 1 
    27   11   29 1 
    28   12   30 1 
    29   12   31 1 
    30   12   32 1 
    31   13   14 ar
    32   13   15 ar
@<TRIPOS>SUBSTRUCTURE
1 MOL         1
@<TRIPOS>MOLECULE
query molecule
   32    32     1     0     0
SMALL
NO_CHARGE

@<TRIPOS>ATOM
      1 C          18.1606   -0.9257   -7.5999 C.3       1 MOL     0.0072
      2 C          19.1284   -1.9340   -7.0551 C.3       1 MOL    -0.0128
      3 C          19.9772   -1.3308   -5.9817 C.3       1 MOL     0.0072
      4 C          18.3646   -3.1147   -6.5241 C.3       1 MOL     0.0379
      5 C          17.0449   -2.7023   -5.9870 C.ar      1 MOL    -0.0471
      6 C          16.9952   -2.1134   -4.7448 C.ar      1 MOL     0.0037
      7 C          15.8024   -1.7179   -4.2104 C.ar      1 MOL     0.0044
      8 C          14.6312   -1.9012   -4.9040 C.ar      1 MOL    -0.0391
      9 C          14.6685   -2.4873   -6.1449 C.ar      1 MOL     0.0044
     10 C          15.8739   -2.8860   -6.6820 C.ar      1 MOL     0.0037
     11 C          13.3315   -1.4841   -4.3512 C.3       1 MOL     0.0614
     12 C          12.4366   -0.9977   -5.4908 C.3       1 MOL     0.0185
     13 C          12.7256   -2.6807   -3.6966 C.2       1 MOL     0.0489
     14 O          12.8398   -2.8643   -2.4761 O.co2     1 MOL    -0.5492
     15 O          12.0400   -3.5738   -4.4694 O.co2     1 MOL    -0.5492
     16 H          18.7004   -0.0825   -7.9792 H         1 MOL     0.0232
     17 H          17.5017   -0.6057   -6.8200 H         1 MOL     0.0232
     18 H          17.5910   -1.3692   -8.3893 H         1 MOL     0.0232
     19 H          19.7792   -2.2562   -7.8401 H         1 MOL     0.0299
     20 H          19.3528   -0.9975   -5.1790 H         1 MOL     0.0232
     21 H          20.5185   -0.4988   -6.3807 H         1 MOL     0.0232
     22 H          20.6663   -2.0633   -5.6168 H         1 MOL     0.0232
     23 H          18.9316   -3.5745   -5.7421 H         1 MOL     0.0316
     24 H          18.2034   -3.8027   -7.3275 H         1 MOL     0.0316
     25 H          17.8671   -1.9698   -4.2116 H         1 MOL     0.0620
     26 H          15.7813   -1.2776   -3.2768 H         1 MOL     0.0621
     27 H          13.7948   -2.6294   -6.6759 H         1 MOL     0.0621
     28 H          15.8979   -3.3267   -7.6148 H         1 MOL     0.0620
     29 H          13.4444   -0.6896   -3.6431 H         1 MOL     0.0406
     30 H          12.3146   -1.7826   -6.2080 H         1 MOL     0.0239
     31 H          12.8902   -0.1510   -5.9627 H         1 MOL     0.0239
     32 H          11.4810   -0.7188   -5.0994 H         1 MOL     0.0239
@<TRIPOS>BOND
     1    1    2 1 
     2    1   16 1 
     3    1   17 1 
     4    1   18 1 
     5    2    3 1 
     6    2    4 1 
     7    2   19 1 
     8    3   20 1 
     9    3   21 1 
    10    3   22 1 
    11    4    5 1 
    12    4   23 1 
    13    4   24 1 
    14    5    6 ar
    15    5   10 ar
    16    6    7 ar
    17    6   25 1 
    18    7    8 ar
    19    7   26 1 
    20    8    9 ar
    21    8   11 1 
    22    9   10 ar
    23    9   27 1 
    24   10   28 1 
    25   11   12 1 
    26   11   13 1 
    27   11   29 1 
    28   12   30 1 
    29   12   31 1 
    30   12   32 1 
    31   13   14 ar
    32   13   15 ar
@<TRIPOS>SUBSTRUCTURE
1 MOL         1
@<TRIPOS>MOLECULE
query molecule
   32    32     1     0     0
SMALL
NO_CHARGE

@<TRIPOS>ATOM
      1 C          11.6629   -7.6311   34.7296 C.3       1 MOL     0.0072
      2 C          11.3244   -8.4385   33.5116 C.3       1 MOL    -0.0128
      3 C          12.4677   -9.3209   33.1235 C.3       1 MOL     0.0072
      4 C          10.0947   -9.2576   33.7883 C.3       1 MOL     0.0379
      5 C           8.9038   -8.3924   33.9708 C.ar      1 MOL    -0.0471
      6 C           8.2609   -8.4062   35.1868 C.ar      1 MOL     0.0037
      7 C           7.1604   -7.6263   35.4000 C.ar      1 MOL     0.0044
      8 C           6.6762   -6.8142   34.4038 C.ar      1 MOL    -0.0391
      9 C           7.3099   -6.7916   33.1863 C.ar      1 MOL     0.0044
     10 C           8.4204   -7.5802   32.9735 C.ar      1 MOL     0.0037
     11 C           5.4916   -5.9633   34.6070 C.3       1 MOL     0.0614
     12 C           5.0461   -5.3966   33.2592 C.3       1 MOL     0.0185
     13 C           4.4193   -6.8287   35.1804 C.2       1 MOL     0.0489
     14 O           4.5103   -8.0643   35.1415 O.co2     1 MOL    -0.5492
     15 O           3.3312   -6.2328   35.7512 O.co2     1 MOL    -0.5492
     16 H          12.5387   -7.0460   34.5370 H         1 MOL     0.0232
     17 H          11.8473   -8.2882   35.5535 H         1 MOL     0.0232
     18 H          10.8455   -6.9828   34.9655 H         1 MOL     0.0232
     19 H          11.1333   -7.7769   32.6934 H         1 MOL     0.0299
     20 H          12.6838   -9.9969   33.9245 H         1 MOL     0.0232
     21 H          13.3296   -8.7198   32.9225 H         1 MOL     0.0232
     22 H          12.2084   -9.8775   32.2474 H         1 MOL     0.0232
     23 H          10.2497   -9.8305   34.6782 H         1 MOL     0.0316
     24 H           9.9210   -9.9008   32.9512 H         1 MOL     0.0316
     25 H           8.6129   -9.0121   35.9446 H         1 MOL     0.0620
     26 H           6.6885   -7.6478   36.3180 H         1 MOL     0.0621
     27 H           6.9557   -6.1845   32.4303 H         1 MOL     0.0621
     28 H           8.8939   -7.5609   32.0567 H         1 MOL     0.0620
     29 H           5.7042   -5.1478   35.2666 H         1 MOL     0.0406
     30 H           4.8300   -6.2016   32.5880 H         1 MOL     0.0239
     31 H           5.8296   -4.7926   32.8508 H         1 MOL     0.0239
     32 H           4.1693   -4.7993   33.3959 H         1 MOL     0.0239
@<TRIPOS>BOND
     1    1    2 1 
     2    1   16 1 
     3    1   17 1 
     4    1   18 1 
     5    2    3 1 
     6    2    4 1 
     7    2   19 1 
     8    3   20 1 
     9    3   21 1 
    10    3   22 1 
    11    4    5 1 
    12    4   23 1 
    13    4   24 1 
    14    5    6 ar
    15    5   10 ar
    16    6    7 ar
    17    6   25 1 
    18    7    8 ar
    19    7   26 1 
    20    8    9 ar
    21    8   11 1 
    22    9   10 ar
    23    9   27 1 
    24   10   28 1 
    25   11   12 1 
    26   11   13 1 
    27   11   29 1 
    28   12   30 1 
    29   12   31 1 
    30   12   32 1 
    31   13   14 ar
    32   13   15 ar
@<TRIPOS>SUBSTRUCTURE
1 MOL         1
@<TRIPOS>MOLECULE
query molecule
   32    32     1     0     0
SMALL
NO_CHARGE

@<TRIPOS>ATOM
      1 C           6.9021   14.0818   -8.2574 C.3       1 MOL     0.0072
      2 C           8.1263   13.3182   -7.8475 C.3       1 MOL    -0.0128
      3 C           8.8754   14.0478   -6.7784 C.3       1 MOL     0.0072
      4 C           7.7193   11.9524   -7.3695 C.3       1 MOL     0.0379
      5 C           6.4634   12.0118   -6.5824 C.ar      1 MOL    -0.0471
      6 C           6.4659   12.6998   -5.3912 C.ar      1 MOL     0.0037
      7 C           5.3329   12.7807   -4.6331 C.ar      1 MOL     0.0044
      8 C           4.1709   12.1766   -5.0469 C.ar      1 MOL    -0.0391
      9 C           4.1564   11.4877   -6.2343 C.ar      1 MOL     0.0044
     10 C           5.3015   11.4072   -6.9975 C.ar      1 MOL     0.0037
     11 C           2.9353   12.2483   -4.2490 C.3       1 MOL     0.0614
     12 C           3.0523   13.3983   -3.2489 C.3       1 MOL     0.0185
     13 C           1.8115   12.5042   -5.1972 C.2       1 MOL     0.0489
     14 O           0.6345   12.4852   -4.8088 O.co2     1 MOL    -0.5492
     15 O           2.1039   12.7607   -6.5063 O.co2     1 MOL    -0.5492
     16 H           7.1874   15.0558   -8.5985 H         1 MOL     0.0232
     17 H           6.2431   14.1762   -7.4198 H         1 MOL     0.0232
     18 H           6.4040   13.5591   -9.0467 H         1 MOL     0.0232
     19 H           8.7776   13.2198   -8.6900 H         1 MOL     0.0299
     20 H           8.2481   14.1624   -5.9188 H         1 MOL     0.0232
     21 H           9.1634   15.0126   -7.1401 H         1 MOL     0.0232
     22 H           9.7490   13.4914   -6.5105 H         1 MOL     0.0232
     23 H           8.4976   11.5509   -6.7554 H         1 MOL     0.0316
     24 H           7.5543   11.3300   -8.2240 H         1 MOL     0.0316
     25 H           7.3319   13.1582   -5.0670 H         1 MOL     0.0620
     26 H           5.3505   13.3005   -3.7412 H         1 MOL     0.0621
     27 H           3.2887   11.0304   -6.5560 H         1 MOL     0.0621
     28 H           5.2869   10.8880   -7.8894 H         1 MOL     0.0620
     29 H           2.7660   11.3410   -3.7074 H         1 MOL     0.0406
     30 H           3.2222   14.3137   -3.7766 H         1 MOL     0.0239
     31 H           3.8717   13.2114   -2.5863 H         1 MOL     0.0239
     32 H           2.1467   13.4733   -2.6845 H         1 MOL     0.0239
@<TRIPOS>BOND
     1    1    2 1 
     2    1   16 1 
     3    1   17 1 
     4    1   18 1 
     5    2    3 1 
     6    2    4 1 
     7    2   19 1 
     8    3   20 1 
     9    3   21 1 
    10    3   22 1 
    11    4    5 1 
    12    4   23 1 
    13    4   24 1 
    14    5    6 ar
    15    5   10 ar
    16    6    7 ar
    17    6   25 1 
    18    7    8 ar
    19    7   26 1 
    20    8    9 ar
    21    8   11 1 
    22    9   10 ar
    23    9   27 1 
    24   10   28 1 
    25   11   12 1 
    26   11   13 1 
    27   11   29 1 
    28   12   30 1 
    29   12   31 1 
    30   12   32 1 
    31   13   14 ar
    32   13   15 ar
@<TRIPOS>SUBSTRUCTURE
1 MOL         1
@<TRIPOS>MOLECULE
query molecule
   32    32     1     0     0
SMALL
NO_CHARGE

@<TRIPOS>ATOM
      1 C          20.5772    4.6780   21.7256 C.3       1 MOL     0.0072
      2 C          22.0227    5.0727   21.7951 C.3       1 MOL    -0.0128
      3 C          22.9079    3.9063   21.4912 C.3       1 MOL     0.0072
      4 C          22.2753    6.1945   20.8269 C.3       1 MOL     0.0379
      5 C          21.9207    7.5063   21.4215 C.ar      1 MOL    -0.0471
      6 C          22.9057    8.4579   21.5501 C.ar      1 MOL     0.0037
      7 C          22.6253    9.6795   22.0920 C.ar      1 MOL     0.0044
      8 C          21.3545    9.9796   22.5182 C.ar      1 MOL    -0.0391
      9 C          20.3632    9.0380   22.3944 C.ar      1 MOL     0.0044
     10 C          20.6490    7.8053   21.8473 C.ar      1 MOL     0.0037
     11 C          21.0249   11.2890   23.1061 C.3       1 MOL     0.0614
     12 C          21.9283   11.5361   24.3140 C.3       1 MOL     0.0185
     13 C          21.2763   12.3200   22.0567 C.2       1 MOL     0.0489
     14 O          20.3628   12.7074   21.3138 O.co2     1 MOL    -0.5492
     15 O          22.5360   12.8313   21.9286 O.co2     1 MOL    -0.5492
     16 H          20.3927    3.8788   22.4137 H         1 MOL     0.0232
     17 H          20.3427    4.3551   20.7329 H         1 MOL     0.0232
     18 H          19.9661    5.5177   21.9818 H         1 MOL     0.0232
     19 H          22.2497    5.4021   22.7869 H         1 MOL     0.0299
     20 H          22.7040    3.5527   20.5019 H         1 MOL     0.0232
     21 H          22.7196    3.1230   22.1951 H         1 MOL     0.0232
     22 H          23.9322    4.2079   21.5579 H         1 MOL     0.0232
     23 H          21.6845    6.0378   19.9490 H         1 MOL     0.0316
     24 H          23.3172    6.2034   20.5835 H         1 MOL     0.0316
     25 H          23.8655    8.2464   21.2349 H         1 MOL     0.0620
     26 H          23.3753   10.3833   22.1821 H         1 MOL     0.0621
     27 H          19.4042    9.2524   22.7103 H         1 MOL     0.0621
     28 H          19.9013    7.0998   21.7563 H         1 MOL     0.0620
     29 H          20.0053   11.3273   23.4289 H         1 MOL     0.0406
     30 H          22.9526   11.5004   24.0062 H         1 MOL     0.0239
     31 H          21.7510   10.7808   25.0512 H         1 MOL     0.0239
     32 H          21.7127   12.4980   24.7294 H         1 MOL     0.0239
@<TRIPOS>BOND
     1    1    2 1 
     2    1   16 1 
     3    1   17 1 
     4    1   18 1 
     5    2    3 1 
     6    2    4 1 
     7    2   19 1 
     8    3   20 1 
     9    3   21 1 
    10    3   22 1 
    11    4    5 1 
    12    4   23 1 
    13    4   24 1 
    14    5    6 ar
    15    5   10 ar
    16    6    7 ar
    17    6   25 1 
    18    7    8 ar
    19    7   26 1 
    20    8    9 ar
    21    8   11 1 
    22    9   10 ar
    23    9   27 1 
    24   10   28 1 
    25   11   12 1 
    26   11   13 1 
    27   11   29 1 
    28   12   30 1 
    29   12   31 1 
    30   12   32 1 
    31   13   14 ar
    32   13   15 ar
@<TRIPOS>SUBSTRUCTURE
1 MOL         1
@<TRIPOS>MOLECULE
query molecule
   32    32     1     0     0
SMALL
NO_CHARGE

@<TRIPOS>ATOM
      1 C          13.6697   -4.7927    1.4051 C.3       1 MOL     0.0072
      2 C          13.0169   -3.8215    2.3435 C.3       1 MOL    -0.0128
      3 C          11.9766   -3.0142    1.6346 C.3       1 MOL     0.0072
      4 C          12.4079   -4.5774    3.4913 C.3       1 MOL     0.0379
      5 C          13.3924   -5.4991    4.1090 C.ar      1 MOL    -0.0471
      6 C          14.3109   -4.9836    4.9937 C.ar      1 MOL     0.0037
      7 C          15.2361   -5.7945    5.5863 C.ar      1 MOL     0.0044
      8 C          15.2657   -7.1394    5.3092 C.ar      1 MOL    -0.0391
      9 C          14.3536   -7.6654    4.4283 C.ar      1 MOL     0.0044
     10 C          13.4209   -6.8445    3.8311 C.ar      1 MOL     0.0037
     11 C          16.2525   -8.0363    5.9341 C.3       1 MOL     0.0614
     12 C          15.5585   -9.3350    6.3440 C.3       1 MOL     0.0185
     13 C          17.3043   -8.3158    4.9128 C.2       1 MOL     0.0489
     14 O          18.4694   -8.5683    5.2522 O.co2     1 MOL    -0.5492
     15 O          16.9591   -8.2882    3.5919 O.co2     1 MOL    -0.5492
     16 H          14.1048   -4.2585    0.5855 H         1 MOL     0.0232
     17 H          12.9370   -5.4788    1.0347 H         1 MOL     0.0232
     18 H          14.4333   -5.3318    1.9251 H         1 MOL     0.0232
     19 H          13.7547   -3.1434    2.7168 H         1 MOL     0.0299
     20 H          11.2213   -3.6666    1.2484 H         1 MOL     0.0232
     21 H          12.4304   -2.4777    0.8279 H         1 MOL     0.0232
     22 H          11.5334   -2.3218    2.3193 H         1 MOL     0.0232
     23 H          11.5751   -5.1451    3.1330 H         1 MOL     0.0316
     24 H          12.0930   -3.8723    4.2319 H         1 MOL     0.0316
     25 H          14.3013   -3.9746    5.2111 H         1 MOL     0.0620
     26 H          15.9192   -5.3927    6.2480 H         1 MOL     0.0621
     27 H          14.3655   -8.6748    4.2130 H         1 MOL     0.0621
     28 H          12.7370   -7.2433    3.1690 H         1 MOL     0.0620
     29 H          16.6880   -7.5925    6.8052 H         1 MOL     0.0406
     30 H          15.1172   -9.7907    5.4820 H         1 MOL     0.0239
     31 H          14.7956   -9.1190    7.0629 H         1 MOL     0.0239
     32 H          16.2756  -10.0020    6.7739 H         1 MOL     0.0239
@<TRIPOS>BOND
     1    1    2 1 
     2    1   16 1 
     3    1   17 1 
     4    1   18 1 
     5    2    3 1 
     6    2    4 1 
     7    2   19 1 
     8    3   20 1 
     9    3   21 1 
    10    3   22 1 
    11    4    5 1 
    12    4   23 1 
    13    4   24 1 
    14    5    6 ar
    15    5   10 ar
    16    6    7 ar
    17    6   25 1 
    18    7    8 ar
    19    7   26 1 
    20    8    9 ar
    21    8   11 1 
    22    9   10 ar
    23    9   27 1 
    24   10   28 1 
    25   11   12 1 
    26   11   13 1 
    27   11   29 1 
    28   12   30 1 
    29   12   31 1 
    30   12   32 1 
    31   13   14 ar
    32   13   15 ar
@<TRIPOS>SUBSTRUCTURE
1 MOL         1
@<TRIPOS>MOLECULE
query molecule
   32    32     1     0     0
SMALL
NO_CHARGE

@<TRIPOS>ATOM
      1 C          13.9019   26.3711    6.6799 C.3       1 MOL     0.0072
      2 C          12.5422   25.9130    6.2424 C.3       1 MOL    -0.0128
      3 C          11.9500   26.8697    5.2572 C.3       1 MOL     0.0072
      4 C          12.6533   24.5387    5.6436 C.3       1 MOL     0.0379
      5 C          11.3775   23.7930    5.7721 C.ar      1 MOL    -0.0471
      6 C          10.2215   24.5021    6.0023 C.ar      1 MOL     0.0037
      7 C           9.0242   23.8575    6.1278 C.ar      1 MOL     0.0044
      8 C           8.9533   22.4896    6.0263 C.ar      1 MOL    -0.0391
      9 C          10.1004   21.7714    5.7960 C.ar      1 MOL     0.0044
     10 C          11.3078   22.4245    5.6701 C.ar      1 MOL     0.0037
     11 C           7.6754   21.7696    6.1575 C.3       1 MOL     0.0614
     12 C           7.3512   21.0812    4.8319 C.3       1 MOL     0.0185
     13 C           7.8503   20.7524    7.2356 C.2       1 MOL     0.0489
     14 O           8.8422   20.0092    7.2541 O.co2     1 MOL    -0.5492
     15 O           6.8942   20.6543    8.2057 O.co2     1 MOL    -0.5492
     16 H          13.8276   27.3501    7.1071 H         1 MOL     0.0232
     17 H          14.5579   26.3996    5.8352 H         1 MOL     0.0232
     18 H          14.2887   25.6917    7.4100 H         1 MOL     0.0232
     19 H          11.8929   25.8787    7.0914 H         1 MOL     0.0299
     20 H          12.5789   26.9261    4.3932 H         1 MOL     0.0232
     21 H          11.8712   27.8384    5.7042 H         1 MOL     0.0232
     22 H          10.9776   26.5294    4.9687 H         1 MOL     0.0232
     23 H          13.4259   23.9988    6.1493 H         1 MOL     0.0316
     24 H          12.8830   24.6403    4.6035 H         1 MOL     0.0316
     25 H          10.2594   25.5304    6.0817 H         1 MOL     0.0620
     26 H           8.1652   24.4035    6.3007 H         1 MOL     0.0621
     27 H          10.0593   20.7431    5.7169 H         1 MOL     0.0621
     28 H          12.1682   21.8812    5.4976 H         1 MOL     0.0620
     29 H           6.8741   22.4359    6.4009 H         1 MOL     0.0406
     30 H           8.1449   20.4109    4.5749 H         1 MOL     0.0239
     31 H           7.2455   21.8194    4.0642 H         1 MOL     0.0239
     32 H           6.4375   20.5335    4.9287 H         1 MOL     0.0239
@<TRIPOS>BOND
     1    1    2 1 
     2    1   16 1 
     3    1   17 1 
     4    1   18 1 
     5    2    3 1 
     6    2    4 1 
     7    2   19 1 
     8    3   20 1 
     9    3   21 1 
    10    3   22 1 
    11    4    5 1 
    12    4   23 1 
    13    4   24 1 
    14    5    6 ar
    15    5   10 ar
    16    6    7 ar
    17    6   25 1 
    18    7    8 ar
    19    7   26 1 
    20    8    9 ar
    21    8   11 1 
    22    9   10 ar
    23    9   27 1 
    24   10   28 1 
    25   11   12 1 
    26   11   13 1 
    27   11   29 1 
    28   12   30 1 
    29   12   31 1 
    30   12   32 1 
    31   13   14 ar
    32   13   15 ar
@<TRIPOS>SUBSTRUCTURE
1 MOL         1
@<TRIPOS>MOLECULE
query molecule
   32    32     1     0     0
SMALL
NO_CHARGE

@<TRIPOS>ATOM
      1 C           2.3788   -3.8987   38.3785 C.3       1 MOL     0.0072
      2 C           2.6028   -4.2174   36.9300 C.3       1 MOL    -0.0128
      3 C           3.9541   -3.7551   36.4864 C.3       1 MOL     0.0072
      4 C           2.4563   -5.6989   36.7220 C.3       1 MOL     0.0379
      5 C           1.0333   -6.0774   36.5439 C.ar      1 MOL    -0.0471
      6 C           0.1482   -5.8061   37.5614 C.ar      1 MOL     0.0037
      7 C          -1.1712   -6.1370   37.4415 C.ar      1 MOL     0.0044
      8 C          -1.6378   -6.7466   36.3026 C.ar      1 MOL    -0.0391
      9 C          -0.7639   -7.0217   35.2802 C.ar      1 MOL     0.0044
     10 C           0.5677   -6.6870   35.4039 C.ar      1 MOL     0.0037
     11 C          -3.0554   -7.1140   36.1472 C.3       1 MOL     0.0614
     12 C          -3.5824   -7.6468   37.4793 C.3       1 MOL     0.0185
     13 C          -3.7928   -5.8752   35.7612 C.2       1 MOL     0.0489
     14 O          -4.6633   -5.3961   36.5023 O.co2     1 MOL    -0.5492
     15 O          -3.4905   -5.2760   34.5719 O.co2     1 MOL    -0.5492
     16 H           2.4824   -2.8441   38.5314 H         1 MOL     0.0232
     17 H           3.1003   -4.4179   38.9740 H         1 MOL     0.0232
     18 H           1.3941   -4.2053   38.6624 H         1 MOL     0.0232
     19 H           1.8744   -3.7025   36.3402 H         1 MOL     0.0299
     20 H           4.7073   -4.2542   37.0599 H         1 MOL     0.0232
     21 H           4.0356   -2.6987   36.6340 H         1 MOL     0.0232
     22 H           4.0869   -3.9821   35.4493 H         1 MOL     0.0232
     23 H           2.8501   -6.2118   37.5742 H         1 MOL     0.0316
     24 H           2.9926   -5.9712   35.8371 H         1 MOL     0.0316
     25 H           0.4845   -5.3491   38.4236 H         1 MOL     0.0620
     26 H          -1.8233   -5.9272   38.2140 H         1 MOL     0.0621
     27 H          -1.1031   -7.4787   34.4191 H         1 MOL     0.0621
     28 H           1.2218   -6.8959   34.6334 H         1 MOL     0.0620
     29 H          -3.1839   -7.8711   35.4019 H         1 MOL     0.0406
     30 H          -3.4601   -6.8996   38.2356 H         1 MOL     0.0239
     31 H          -3.0343   -8.5243   37.7533 H         1 MOL     0.0239
     32 H          -4.6194   -7.8900   37.3807 H         1 MOL     0.0239
@<TRIPOS>BOND
     1    1    2 1 
     2    1   16 1 
     3    1   17 1 
     4    1   18 1 
     5    2    3 1 
     6    2    4 1 
     7    2   19 1 
     8    3   20 1 
     9    3   21 1 
    10    3   22 1 
    11    4    5 1 
    12    4   23 1 
    13    4   24 1 
    14    5    6 ar
    15    5   10 ar
    16    6    7 ar
    17    6   25 1 
    18    7    8 ar
    19    7   26 1 
    20    8    9 ar
    21    8   11 1 
    22    9   10 ar
    23    9   27 1 
    24   10   28 1 
    25   11   12 1 
    26   11   13 1 
    27   11   29 1 
    28   12   30 1 
    29   12   31 1 
    30   12   32 1 
    31   13   14 ar
    32   13   15 ar
@<TRIPOS>SUBSTRUCTURE
1 MOL         1
@<TRIPOS>MOLECULE
query molecule
   32    32     1     0     0
SMALL
NO_CHARGE

@<TRIPOS>ATOM
      1 C          22.8149    3.1626    6.8514 C.3       1 MOL     0.0072
      2 C          21.8094    2.4053    6.0357 C.3       1 MOL    -0.0128
      3 C          20.4370    2.9677    6.2269 C.3       1 MOL     0.0072
      4 C          22.2063    2.4610    4.5869 C.3       1 MOL     0.0379
      5 C          21.0196    2.3701    3.7018 C.ar      1 MOL    -0.0471
      6 C          20.5995    3.5043    3.0465 C.ar      1 MOL     0.0037
      7 C          19.5116    3.4678    2.2218 C.ar      1 MOL     0.0044
      8 C          18.8178    2.2977    2.0321 C.ar      1 MOL    -0.0391
      9 C          19.2282    1.1593    2.6804 C.ar      1 MOL     0.0044
     10 C          20.3264    1.1989    3.5127 C.ar      1 MOL     0.0037
     11 C          17.6417    2.2305    1.1485 C.3       1 MOL     0.0614
     12 C          17.6905    3.3968    0.1619 C.3       1 MOL     0.0185
     13 C          17.7144    0.9330    0.4145 C.2       1 MOL     0.0489
     14 O          18.7094    0.6412   -0.2646 O.co2     1 MOL    -0.5492
     15 O          16.6607    0.0690    0.5046 O.co2     1 MOL    -0.5492
     16 H          22.5360    3.1258    7.8845 H         1 MOL     0.0232
     17 H          22.8440    4.1815    6.5261 H         1 MOL     0.0232
     18 H          23.7807    2.7200    6.7267 H         1 MOL     0.0232
     19 H          21.7901    1.3862    6.3594 H         1 MOL     0.0299
     20 H          20.4237    3.9900    5.9108 H         1 MOL     0.0232
     21 H          20.1697    2.9113    7.2613 H         1 MOL     0.0232
     22 H          19.7362    2.4057    5.6459 H         1 MOL     0.0232
     23 H          22.8645    1.6452    4.3734 H         1 MOL     0.0316
     24 H          22.6936    3.3961    4.4052 H         1 MOL     0.0316
     25 H          21.1105    4.3911    3.1798 H         1 MOL     0.0620
     26 H          19.2084    4.3274    1.7371 H         1 MOL     0.0621
     27 H          18.7152    0.2739    2.5449 H         1 MOL     0.0621
     28 H          20.6316    0.3412    3.9987 H         1 MOL     0.0620
     29 H          16.7299    2.2926    1.7054 H         1 MOL     0.0406
     30 H          18.5983    3.3482   -0.4029 H         1 MOL     0.0239
     31 H          17.6553    4.3206    0.7012 H         1 MOL     0.0239
     32 H          16.8530    3.3383   -0.5010 H         1 MOL     0.0239
@<TRIPOS>BOND
     1    1    2 1 
     2    1   16 1 
     3    1   17 1 
     4    1   18 1 
     5    2    3 1 
     6    2    4 1 
     7    2   19 1 
     8    3   20 1 
     9    3   21 1 
    10    3   22 1 
    11    4    5 1 
    12    4   23 1 
    13    4   24 1 
    14    5    6 ar
    15    5   10 ar
    16    6    7 ar
    17    6   25 1 
    18    7    8 ar
    19    7   26 1 
    20    8    9 ar
    21    8   11 1 
    22    9   10 ar
    23    9   27 1 
    24   10   28 1 
    25   11   12 1 
    26   11   13 1 
    27   11   29 1 
    28   12   30 1 
    29   12   31 1 
    30   12   32 1 
    31   13   14 ar
    32   13   15 ar
@<TRIPOS>SUBSTRUCTURE
1 MOL         1
@<TRIPOS>MOLECULE
query molecule
   32    32     1     0     0
SMALL
NO_CHARGE

@<TRIPOS>ATOM
      1 C          17.8104   -1.9417    8.4767 C.3       1 MOL     0.0072
      2 C          16.6454   -2.7949    8.8827 C.3       1 MOL    -0.0128
      3 C          15.8740   -2.1501    9.9898 C.3       1 MOL     0.0072
      4 C          15.7626   -3.0260    7.6882 C.3       1 MOL     0.0379
      5 C          14.7194   -4.0392    7.9803 C.ar      1 MOL    -0.0471
      6 C          13.3981   -3.6660    7.8955 C.ar      1 MOL     0.0037
      7 C          12.4039   -4.5652    8.1559 C.ar      1 MOL     0.0044
      8 C          12.7059   -5.8583    8.5071 C.ar      1 MOL    -0.0391
      9 C          14.0210   -6.2423    8.5943 C.ar      1 MOL     0.0044
     10 C          15.0228   -5.3325    8.3313 C.ar      1 MOL     0.0037
     11 C          11.6535   -6.8479    8.7931 C.3       1 MOL     0.0614
     12 C          12.2877   -8.2343    8.9025 C.3       1 MOL     0.0185
     13 C          11.0283   -6.4646   10.0929 C.2       1 MOL     0.0489
     14 O          11.7181   -6.0312   11.0273 O.co2     1 MOL    -0.5492
     15 O           9.6770   -6.6003   10.2357 O.co2     1 MOL    -0.5492
     16 H          18.4420   -1.7742    9.3248 H         1 MOL     0.0232
     17 H          17.4537   -1.0031    8.1069 H         1 MOL     0.0232
     18 H          18.3664   -2.4396    7.7104 H         1 MOL     0.0232
     19 H          17.0069   -3.7343    9.2439 H         1 MOL     0.0299
     20 H          15.4978   -1.2047    9.6583 H         1 MOL     0.0232
     21 H          16.5163   -2.0020   10.8325 H         1 MOL     0.0232
     22 H          15.0565   -2.7805   10.2704 H         1 MOL     0.0232
     23 H          16.3626   -3.3681    6.8714 H         1 MOL     0.0316
     24 H          15.2794   -2.1039    7.4409 H         1 MOL     0.0316
     25 H          13.1559   -2.6976    7.6335 H         1 MOL     0.0620
     26 H          11.4169   -4.2700    8.0883 H         1 MOL     0.0621
     27 H          14.2601   -7.2116    8.8564 H         1 MOL     0.0621
     28 H          16.0103   -5.6248    8.3984 H         1 MOL     0.0620
     29 H          10.9163   -6.8701    8.0177 H         1 MOL     0.0406
     30 H          13.0284   -8.2274    9.6749 H         1 MOL     0.0239
     31 H          12.7472   -8.4898    7.9703 H         1 MOL     0.0239
     32 H          11.5323   -8.9542    9.1374 H         1 MOL     0.0239
@<TRIPOS>BOND
     1    1    2 1 
     2    1   16 1 
     3    1   17 1 
     4    1   18 1 
     5    2    3 1 
     6    2    4 1 
     7    2   19 1 
     8    3   20 1 
     9    3   21 1 
    10    3   22 1 
    11    4    5 1 
    12    4   23 1 
    13    4   24 1 
    14    5    6 ar
    15    5   10 ar
    16    6    7 ar
    17    6   25 1 
    18    7    8 ar
    19    7   26 1 
    20    8    9 ar
    21    8   11 1 
    22    9   10 ar
    23    9   27 1 
    24   10   28 1 
    25   11   12 1 
    26   11   13 1 
    27   11   29 1 
    28   12   30 1 
    29   12   31 1 
    30   12   32 1 
    31   13   14 ar
    32   13   15 ar
@<TRIPOS>SUBSTRUCTURE
1 MOL         1
@<TRIPOS>MOLECULE
query molecule
   32    32     1     0     0
SMALL
NO_CHARGE

@<TRIPOS>ATOM
      1 C          15.0307   -5.5957   20.7730 C.3       1 MOL     0.0072
      2 C          13.8197   -6.4053   21.1310 C.3       1 MOL    -0.0128
      3 C          14.0174   -7.8442   20.7749 C.3       1 MOL     0.0072
      4 C          13.5442   -6.2577   22.6014 C.3       1 MOL     0.0379
      5 C          12.1032   -6.0148   22.8553 C.ar      1 MOL    -0.0471
      6 C          11.7386   -4.8805   23.5429 C.ar      1 MOL     0.0037
      7 C          10.4237   -4.6161   23.7998 C.ar      1 MOL     0.0044
      8 C           9.4420   -5.4782   23.3760 C.ar      1 MOL    -0.0391
      9 C           9.7939   -6.6131   22.6883 C.ar      1 MOL     0.0044
     10 C          11.1220   -6.8779   22.4306 C.ar      1 MOL     0.0037
     11 C           8.0169   -5.2172   23.6395 C.3       1 MOL     0.0614
     12 C           7.4493   -4.3570   22.5107 C.3       1 MOL     0.0185
     13 C           7.3252   -6.5392   23.6759 C.2       1 MOL     0.0489
     14 O           7.9711   -7.5964   23.6370 O.co2     1 MOL    -0.5492
     15 O           5.9620   -6.5638   23.7531 O.co2     1 MOL    -0.5492
     16 H          15.2309   -5.6981   19.7262 H         1 MOL     0.0232
     17 H          15.8725   -5.9459   21.3329 H         1 MOL     0.0232
     18 H          14.8517   -4.5665   21.0030 H         1 MOL     0.0232
     19 H          12.9799   -6.0461   20.5748 H         1 MOL     0.0299
     20 H          14.8536   -8.2339   21.3174 H         1 MOL     0.0232
     21 H          14.2033   -7.9292   19.7248 H         1 MOL     0.0232
     22 H          13.1384   -8.3992   21.0280 H         1 MOL     0.0232
     23 H          14.1096   -5.4331   22.9816 H         1 MOL     0.0316
     24 H          13.8262   -7.1660   23.0914 H         1 MOL     0.0316
     25 H          12.4653   -4.2238   23.8683 H         1 MOL     0.0620
     26 H          10.1657   -3.7608   24.3173 H         1 MOL     0.0621
     27 H           9.0649   -7.2679   22.3640 H         1 MOL     0.0621
     28 H          11.3828   -7.7323   21.9138 H         1 MOL     0.0620
     29 H           7.8788   -4.6992   24.5658 H         1 MOL     0.0406
     30 H           7.5807   -4.8627   21.5767 H         1 MOL     0.0239
     31 H           7.9650   -3.4196   22.4842 H         1 MOL     0.0239
     32 H           6.4073   -4.1865   22.6820 H         1 MOL     0.0239
@<TRIPOS>BOND
     1    1    2 1 
     2    1   16 1 
     3    1   17 1 
     4    1   18 1 
     5    2    3 1 
     6    2    4 1 
     7    2   19 1 
     8    3   20 1 
     9    3   21 1 
    10    3   22 1 
    11    4    5 1 
    12    4   23 1 
    13    4   24 1 
    14    5    6 ar
    15    5   10 ar
    16    6    7 ar
    17    6   25 1 
    18    7    8 ar
    19    7   26 1 
    20    8    9 ar
    21    8   11 1 
    22    9   10 ar
    23    9   27 1 
    24   10   28 1 
    25   11   12 1 
    26   11   13 1 
    27   11   29 1 
    28   12   30 1 
    29   12   31 1 
    30   12   32 1 
    31   13   14 ar
    32   13   15 ar
@<TRIPOS>SUBSTRUCTURE
1 MOL         1
@<TRIPOS>MOLECULE
query molecule
   32    32     1     0     0
SMALL
NO_CHARGE

@<TRIPOS>ATOM
      1 C          19.9717   26.6442    3.1518 C.3       1 MOL     0.0072
      2 C          19.7368   27.1786    1.7701 C.3       1 MOL    -0.0128
      3 C          20.2197   26.2118    0.7364 C.3       1 MOL     0.0072
      4 C          18.2703   27.4556    1.5906 C.3       1 MOL     0.0379
      5 C          17.4450   26.3507    2.1367 C.ar      1 MOL    -0.0471
      6 C          16.3541   26.6662    2.9131 C.ar      1 MOL     0.0037
      7 C          15.5660   25.6818    3.4371 C.ar      1 MOL     0.0044
      8 C          15.8487   24.3592    3.1980 C.ar      1 MOL    -0.0391
      9 C          16.9344   24.0322    2.4241 C.ar      1 MOL     0.0044
     10 C          17.7287   25.0279    1.8966 C.ar      1 MOL     0.0037
     11 C          15.0154   23.2780    3.7507 C.3       1 MOL     0.0614
     12 C          15.2124   23.2197    5.2652 C.3       1 MOL     0.0185
     13 C          13.5955   23.6067    3.4293 C.2       1 MOL     0.0489
     14 O          13.3063   24.2482    2.4089 O.co2     1 MOL    -0.5492
     15 O          12.6160   23.1865    4.2831 O.co2     1 MOL    -0.5492
     16 H          21.0154   26.4451    3.2841 H         1 MOL     0.0232
     17 H          19.4166   25.7390    3.2836 H         1 MOL     0.0232
     18 H          19.6523   27.3673    3.8724 H         1 MOL     0.0232
     19 H          20.2872   28.0871    1.6464 H         1 MOL     0.0299
     20 H          19.6859   25.2894    0.8344 H         1 MOL     0.0232
     21 H          21.2655   26.0345    0.8753 H         1 MOL     0.0232
     22 H          20.0528   26.6183   -0.2390 H         1 MOL     0.0232
     23 H          18.0606   27.5654    0.5474 H         1 MOL     0.0316
     24 H          18.0280   28.3531    2.1204 H         1 MOL     0.0316
     25 H          16.1297   27.6558    3.1019 H         1 MOL     0.0620
     26 H          14.7508   25.9344    4.0181 H         1 MOL     0.0621
     27 H          17.1562   23.0417    2.2368 H         1 MOL     0.0621
     28 H          18.5444   24.7782    1.3157 H         1 MOL     0.0620
     29 H          15.2808   22.3282    3.3352 H         1 MOL     0.0406
     30 H          14.9509   24.1641    5.6953 H         1 MOL     0.0239
     31 H          16.2373   23.0007    5.4824 H         1 MOL     0.0239
     32 H          14.5889   22.4541    5.6766 H         1 MOL     0.0239
@<TRIPOS>BOND
     1    1    2 1 
     2    1   16 1 
     3    1   17 1 
     4    1   18 1 
     5    2    3 1 
     6    2    4 1 
     7    2   19 1 
     8    3   20 1 
     9    3   21 1 
    10    3   22 1 
    11    4    5 1 
    12    4   23 1 
    13    4   24 1 
    14    5    6 ar
    15    5   10 ar
    16    6    7 ar
    17    6   25 1 
    18    7    8 ar
    19    7   26 1 
    20    8    9 ar
    21    8   11 1 
    22    9   10 ar
    23    9   27 1 
    24   10   28 1 
    25   11   12 1 
    26   11   13 1 
    27   11   29 1 
    28   12   30 1 
    29   12   31 1 
    30   12   32 1 
    31   13   14 ar
    32   13   15 ar
@<TRIPOS>SUBSTRUCTURE
1 MOL         1
@<TRIPOS>MOLECULE
query molecule
   32    32     1     0     0
SMALL
NO_CHARGE

@<TRIPOS>ATOM
      1 C           2.6732    6.7645    1.3994 C.3       1 MOL     0.0072
      2 C           2.8313    5.2799    1.2540 C.3       1 MOL    -0.0128
      3 C           3.3462    4.6733    2.5202 C.3       1 MOL     0.0072
      4 C           1.5065    4.6767    0.8794 C.3       1 MOL     0.0379
      5 C           1.1714    4.9563   -0.5383 C.ar      1 MOL    -0.0471
      6 C           0.8662    3.8985   -1.3629 C.ar      1 MOL     0.0037
      7 C           0.5519    4.1085   -2.6752 C.ar      1 MOL     0.0044
      8 C           0.5351    5.3799   -3.1946 C.ar      1 MOL    -0.0391
      9 C           0.8374    6.4434   -2.3809 C.ar      1 MOL     0.0044
     10 C           1.1547    6.2287   -1.0567 C.ar      1 MOL     0.0037
     11 C           0.1996    5.6344   -4.6058 C.3       1 MOL     0.0614
     12 C           0.5498    7.0819   -4.9495 C.3       1 MOL     0.0185
     13 C           1.0186    4.6978   -5.4302 C.2       1 MOL     0.0489
     14 O           0.7450    4.4938   -6.6218 O.co2     1 MOL    -0.5492
     15 O           2.0794    4.0667   -4.8461 O.co2     1 MOL    -0.5492
     16 H           3.6148    7.1986    1.6665 H         1 MOL     0.0232
     17 H           1.9544    6.9738    2.1638 H         1 MOL     0.0232
     18 H           2.3393    7.1795    0.4717 H         1 MOL     0.0232
     19 H           3.5445    5.0763    0.4836 H         1 MOL     0.0299
     20 H           2.6521    4.8605    3.3129 H         1 MOL     0.0232
     21 H           4.2923    5.1086    2.7651 H         1 MOL     0.0232
     22 H           3.4620    3.6177    2.3896 H         1 MOL     0.0232
     23 H           0.7447    5.0900    1.5063 H         1 MOL     0.0316
     24 H           1.5682    3.6165    1.0101 H         1 MOL     0.0316
     25 H           0.8755    2.9374   -0.9868 H         1 MOL     0.0620
     26 H           0.3253    3.3044   -3.2817 H         1 MOL     0.0621
     27 H           0.8271    7.4035   -2.7599 H         1 MOL     0.0621
     28 H           1.3819    7.0307   -0.4482 H         1 MOL     0.0620
     29 H          -0.8427    5.4816   -4.7938 H         1 MOL     0.0406
     30 H           1.5907    7.2501   -4.7659 H         1 MOL     0.0239
     31 H          -0.0309    7.7427   -4.3399 H         1 MOL     0.0239
     32 H           0.3340    7.2656   -5.9809 H         1 MOL     0.0239
@<TRIPOS>BOND
     1    1    2 1 
     2    1   16 1 
     3    1   17 1 
     4    1   18 1 
     5    2    3 1 
     6    2    4 1 
     7    2   19 1 
     8    3   20 1 
     9    3   21 1 
    10    3   22 1 
    11    4    5 1 
    12    4   23 1 
    13    4   24 1 
    14    5    6 ar
    15    5   10 ar
    16    6    7 ar
    17    6   25 1 
    18    7    8 ar
    19    7   26 1 
    20    8    9 ar
    21    8   11 1 
    22    9   10 ar
    23    9   27 1 
    24   10   28 1 
    25   11   12 1 
    26   11   13 1 
    27   11   29 1 
    28   12   30 1 
    29   12   31 1 
    30   12   32 1 
    31   13   14 ar
    32   13   15 ar
@<TRIPOS>SUBSTRUCTURE
1 MOL         1
@<TRIPOS>MOLECULE
query molecule
   32    32     1     0     0
SMALL
NO_CHARGE

@<TRIPOS>ATOM
      1 C          13.8704    1.6309   -9.5600 C.3       1 MOL     0.0072
      2 C          14.6295    2.8048   -9.0161 C.3       1 MOL    -0.0128
      3 C          13.6932    3.8625   -8.5251 C.3       1 MOL     0.0072
      4 C          15.5298    2.3391   -7.9061 C.3       1 MOL     0.0379
      5 C          15.4158    0.8744   -7.7017 C.ar      1 MOL    -0.0471
      6 C          16.3315    0.0515   -8.3152 C.ar      1 MOL     0.0037
      7 C          16.2651   -1.3031   -8.1556 C.ar      1 MOL     0.0044
      8 C          15.2826   -1.8677   -7.3794 C.ar      1 MOL    -0.0391
      9 C          14.3635   -1.0563   -6.7617 C.ar      1 MOL     0.0044
     10 C          14.4325    0.3108   -6.9248 C.ar      1 MOL     0.0037
     11 C          15.1881   -3.3251   -7.1905 C.3       1 MOL     0.0614
     12 C          13.8795   -3.6520   -6.4715 C.3       1 MOL     0.0185
     13 C          15.1988   -3.9478   -8.5468 C.2       1 MOL     0.0489
     14 O          14.8866   -5.1371   -8.7032 O.co2     1 MOL    -0.5492
     15 O          15.5603   -3.1809   -9.6173 O.co2     1 MOL    -0.5492
     16 H          13.2274    1.9581  -10.3511 H         1 MOL     0.0232
     17 H          13.2825    1.1937   -8.7804 H         1 MOL     0.0232
     18 H          14.5597    0.9052   -9.9376 H         1 MOL     0.0232
     19 H          15.2213    3.2330   -9.7971 H         1 MOL     0.0299
     20 H          13.0851    3.4634   -7.7400 H         1 MOL     0.0232
     21 H          13.0677    4.1865   -9.3302 H         1 MOL     0.0232
     22 H          14.2556    4.6931   -8.1531 H         1 MOL     0.0232
     23 H          15.2568    2.8403   -7.0014 H         1 MOL     0.0316
     24 H          16.5409    2.5662   -8.1725 H         1 MOL     0.0316
     25 H          17.0750    0.4613   -8.9021 H         1 MOL     0.0620
     26 H          16.9595   -1.9077   -8.6227 H         1 MOL     0.0621
     27 H          13.6212   -1.4691   -6.1752 H         1 MOL     0.0621
     28 H          13.7395    0.9176   -6.4593 H         1 MOL     0.0620
     29 H          16.0021   -3.6971   -6.6037 H         1 MOL     0.0406
     30 H          13.0553   -3.2853   -7.0472 H         1 MOL     0.0239
     31 H          13.8769   -3.1858   -5.5081 H         1 MOL     0.0239
     32 H          13.7917   -4.7117   -6.3554 H         1 MOL     0.0239
@<TRIPOS>BOND
     1    1    2 1 
     2    1   16 1 
     3    1   17 1 
     4    1   18 1 
     5    2    3 1 
     6    2    4 1 
     7    2   19 1 
     8    3   20 1 
     9    3   21 1 
    10    3   22 1 
    11    4    5 1 
    12    4   23 1 
    13    4   24 1 
    14    5    6 ar
    15    5   10 ar
    16    6    7 ar
    17    6   25 1 
    18    7    8 ar
    19    7   26 1 
    20    8    9 ar
    21    8   11 1 
    22    9   10 ar
    23    9   27 1 
    24   10   28 1 
    25   11   12 1 
    26   11   13 1 
    27   11   29 1 
    28   12   30 1 
    29   12   31 1 
    30   12   32 1 
    31   13   14 ar
    32   13   15 ar
@<TRIPOS>SUBSTRUCTURE
1 MOL         1
@<TRIPOS>MOLECULE
query molecule
   32    32     1     0     0
SMALL
NO_CHARGE

@<TRIPOS>ATOM
      1 C          12.5761   -3.2990    6.8647 C.3       1 MOL     0.0072
      2 C          13.7003   -2.3092    6.9461 C.3       1 MOL    -0.0128
      3 C          13.9059   -1.8524    8.3552 C.3       1 MOL     0.0072
      4 C          14.9535   -2.9401    6.4067 C.3       1 MOL     0.0379
      5 C          14.6701   -4.2652    5.8035 C.ar      1 MOL    -0.0471
      6 C          14.3406   -4.3235    4.4692 C.ar      1 MOL     0.0037
      7 C          14.0714   -5.5214    3.8715 C.ar      1 MOL     0.0044
      8 C          14.1251   -6.6894    4.5923 C.ar      1 MOL    -0.0391
      9 C          14.4535   -6.6436    5.9245 C.ar      1 MOL     0.0044
     10 C          14.7244   -5.4329    6.5255 C.ar      1 MOL     0.0037
     11 C          13.8396   -7.9944    3.9726 C.3       1 MOL     0.0614
     12 C          12.7542   -8.7048    4.7811 C.3       1 MOL     0.0185
     13 C          13.3564   -7.7285    2.5858 C.2       1 MOL     0.0489
     14 O          13.3734   -6.5819    2.1151 O.co2     1 MOL    -0.5492
     15 O          12.8930   -8.7752    1.8411 O.co2     1 MOL    -0.5492
     16 H          11.6810   -2.8538    7.2482 H         1 MOL     0.0232
     17 H          12.8201   -4.1648    7.4440 H         1 MOL     0.0232
     18 H          12.4246   -3.5827    5.8445 H         1 MOL     0.0232
     19 H          13.4548   -1.4496    6.3593 H         1 MOL     0.0299
     20 H          14.1539   -2.6928    8.9695 H         1 MOL     0.0232
     21 H          13.0071   -1.3992    8.7177 H         1 MOL     0.0232
     22 H          14.7032   -1.1397    8.3872 H         1 MOL     0.0232
     23 H          15.6545   -3.0627    7.2054 H         1 MOL     0.0316
     24 H          15.3545   -2.3012    5.6479 H         1 MOL     0.0316
     25 H          14.2956   -3.4540    3.9150 H         1 MOL     0.0620
     26 H          13.8253   -5.5490    2.8692 H         1 MOL     0.0621
     27 H          14.4979   -7.5149    6.4761 H         1 MOL     0.0621
     28 H          14.9704   -5.4024    7.5274 H         1 MOL     0.0620
     29 H          14.7105   -8.6159    3.9506 H         1 MOL     0.0406
     30 H          11.8759   -8.0942    4.8122 H         1 MOL     0.0239
     31 H          13.1063   -8.8739    5.7775 H         1 MOL     0.0239
     32 H          12.5225   -9.6419    4.3204 H         1 MOL     0.0239
@<TRIPOS>BOND
     1    1    2 1 
     2    1   16 1 
     3    1   17 1 
     4    1   18 1 
     5    2    3 1 
     6    2    4 1 
     7    2   19 1 
     8    3   20 1 
     9    3   21 1 
    10    3   22 1 
    11    4    5 1 
    12    4   23 1 
    13    4   24 1 
    14    5    6 ar
    15    5   10 ar
    16    6    7 ar
    17    6   25 1 
    18    7    8 ar
    19    7   26 1 
    20    8    9 ar
    21    8   11 1 
    22    9   10 ar
    23    9   27 1 
    24   10   28 1 
    25   11   12 1 
    26   11   13 1 
    27   11   29 1 
    28   12   30 1 
    29   12   31 1 
    30   12   32 1 
    31   13   14 ar
    32   13   15 ar
@<TRIPOS>SUBSTRUCTURE
1 MOL         1
@<TRIPOS>MOLECULE
query molecule
   32    32     1     0     0
SMALL
NO_CHARGE

@<TRIPOS>ATOM
      1 C          13.4360   -4.7801   34.2460 C.3       1 MOL     0.0072
      2 C          14.5023   -5.6450   33.6419 C.3       1 MOL    -0.0128
      3 C          14.2059   -7.0929   33.8706 C.3       1 MOL     0.0072
      4 C          14.6015   -5.3516   32.1710 C.3       1 MOL     0.0379
      5 C          15.7334   -6.0845   31.5530 C.ar      1 MOL    -0.0471
      6 C          16.9964   -5.5485   31.6519 C.ar      1 MOL     0.0037
      7 C          18.0682   -6.1882   31.0980 C.ar      1 MOL     0.0044
      8 C          17.9039   -7.3783   30.4324 C.ar      1 MOL    -0.0391
      9 C          16.6481   -7.9232   30.3279 C.ar      1 MOL     0.0044
     10 C          15.5678   -7.2752   30.8876 C.ar      1 MOL     0.0037
     11 C          19.0423   -8.0889   29.8261 C.3       1 MOL     0.0614
     12 C          19.5787   -7.2661   28.6550 C.3       1 MOL     0.0185
     13 C          20.0896   -8.2258   30.8805 C.2       1 MOL     0.0489
     14 O          20.4252   -9.3419   31.3027 O.co2     1 MOL    -0.5492
     15 O          20.6744   -7.0949   31.3743 O.co2     1 MOL    -0.5492
     16 H          13.3616   -4.9860   35.2941 H         1 MOL     0.0232
     17 H          12.4982   -4.9879   33.7744 H         1 MOL     0.0232
     18 H          13.6882   -3.7507   34.1016 H         1 MOL     0.0232
     19 H          15.4385   -5.4278   34.1110 H         1 MOL     0.0299
     20 H          13.2720   -7.3421   33.4114 H         1 MOL     0.0232
     21 H          14.1479   -7.2831   34.9217 H         1 MOL     0.0232
     22 H          14.9841   -7.6891   33.4422 H         1 MOL     0.0232
     23 H          14.7491   -4.3011   32.0335 H         1 MOL     0.0316
     24 H          13.6947   -5.6697   31.7005 H         1 MOL     0.0316
     25 H          17.1351   -4.6544   32.1485 H         1 MOL     0.0620
     26 H          19.0099   -5.7732   31.1804 H         1 MOL     0.0621
     27 H          16.5125   -8.8176   29.8308 H         1 MOL     0.0621
     28 H          14.6252   -7.6876   30.8065 H         1 MOL     0.0620
     29 H          18.7527   -9.0526   29.4617 H         1 MOL     0.0406
     30 H          19.8724   -6.2981   29.0045 H         1 MOL     0.0239
     31 H          18.8133   -7.1605   27.9144 H         1 MOL     0.0239
     32 H          20.4234   -7.7636   28.2271 H         1 MOL     0.0239
@<TRIPOS>BOND
     1    1    2 1 
     2    1   16 1 
     3    1   17 1 
     4    1   18 1 
     5    2    3 1 
     6    2    4 1 
     7    2   19 1 
     8    3   20 1 
     9    3   21 1 
    10    3   22 1 
    11    4    5 1 
    12    4   23 1 
    13    4   24 1 
    14    5    6 ar
    15    5   10 ar
    16    6    7 ar
    17    6   25 1 
    18    7    8 ar
    19    7   26 1 
    20    8    9 ar
    21    8   11 1 
    22    9   10 ar
    23    9   27 1 
    24   10   28 1 
    25   11   12 1 
    26   11   13 1 
    27   11   29 1 
    28   12   30 1 
    29   12   31 1 
    30   12   32 1 
    31   13   14 ar
    32   13   15 ar
@<TRIPOS>SUBSTRUCTURE
1 MOL         1
@<TRIPOS>MOLECULE
query molecule
   32    32     1     0     0
SMALL
NO_CHARGE

@<TRIPOS>ATOM
      1 C          -3.8727    3.8251   -5.0381 C.3       1 MOL     0.0072
      2 C          -4.3492    4.6357   -3.8694 C.3       1 MOL    -0.0128
      3 C          -5.5480    4.0038   -3.2369 C.3       1 MOL     0.0072
      4 C          -3.2326    4.7671   -2.8716 C.3       1 MOL     0.0379
      5 C          -3.4383    5.9405   -1.9879 C.ar      1 MOL    -0.0471
      6 C          -4.0031    7.0753   -2.5223 C.ar      1 MOL     0.0037
      7 C          -4.2110    8.1796   -1.7464 C.ar      1 MOL     0.0044
      8 C          -3.8598    8.1766   -0.4185 C.ar      1 MOL    -0.0391
      9 C          -3.2959    7.0495    0.1259 C.ar      1 MOL     0.0044
     10 C          -3.0867    5.9362   -0.6596 C.ar      1 MOL     0.0037
     11 C          -4.0730    9.3535    0.4406 C.3       1 MOL     0.0614
     12 C          -2.8149   10.2212    0.4208 C.3       1 MOL     0.0185
     13 C          -5.2282   10.1101   -0.1257 C.2       1 MOL     0.0489
     14 O          -6.3763    9.6449   -0.0819 O.co2     1 MOL    -0.5492
     15 O          -4.9971   11.3294   -0.6956 O.co2     1 MOL    -0.5492
     16 H          -4.6652    3.7287   -5.7516 H         1 MOL     0.0232
     17 H          -3.5759    2.8538   -4.7015 H         1 MOL     0.0232
     18 H          -3.0389    4.3151   -5.4951 H         1 MOL     0.0232
     19 H          -4.6369    5.6078   -4.2100 H         1 MOL     0.0299
     20 H          -5.2912    3.0264   -2.8847 H         1 MOL     0.0232
     21 H          -6.3333    3.9270   -3.9594 H         1 MOL     0.0232
     22 H          -5.8766    4.6041   -2.4146 H         1 MOL     0.0232
     23 H          -2.3074    4.8827   -3.3960 H         1 MOL     0.0316
     24 H          -3.2148    3.8856   -2.2655 H         1 MOL     0.0316
     25 H          -4.2714    7.0926   -3.5187 H         1 MOL     0.0620
     26 H          -4.6357    9.0239   -2.1619 H         1 MOL     0.0621
     27 H          -3.0288    7.0351    1.1228 H         1 MOL     0.0621
     28 H          -2.6621    5.0909   -0.2469 H         1 MOL     0.0620
     29 H          -4.2749    9.0681    1.4521 H         1 MOL     0.0406
     30 H          -2.6000   10.5145   -0.5857 H         1 MOL     0.0239
     31 H          -1.9909    9.6619    0.8128 H         1 MOL     0.0239
     32 H          -2.9731   11.0921    1.0214 H         1 MOL     0.0239
@<TRIPOS>BOND
     1    1    2 1 
     2    1   16 1 
     3    1   17 1 
     4    1   18 1 
     5    2    3 1 
     6    2    4 1 
     7    2   19 1 
     8    3   20 1 
     9    3   21 1 
    10    3   22 1 
    11    4    5 1 
    12    4   23 1 
    13    4   24 1 
    14    5    6 ar
    15    5   10 ar
    16    6    7 ar
    17    6   25 1 
    18    7    8 ar
    19    7   26 1 
    20    8    9 ar
    21    8   11 1 
    22    9   10 ar
    23    9   27 1 
    24   10   28 1 
    25   11   12 1 
    26   11   13 1 
    27   11   29 1 
    28   12   30 1 
    29   12   31 1 
    30   12   32 1 
    31   13   14 ar
    32   13   15 ar
@<TRIPOS>SUBSTRUCTURE
1 MOL         1
@<TRIPOS>MOLECULE
query molecule
   32    32     1     0     0
SMALL
NO_CHARGE

@<TRIPOS>ATOM
      1 C          22.8999   -6.0212    9.7643 C.3       1 MOL     0.0072
      2 C          21.6426   -5.2265    9.5705 C.3       1 MOL    -0.0128
      3 C          20.4711   -6.1296    9.3497 C.3       1 MOL     0.0072
      4 C          21.4187   -4.3551   10.7747 C.3       1 MOL     0.0379
      5 C          20.5837   -3.1768   10.4363 C.ar      1 MOL    -0.0471
      6 C          20.7104   -2.6183    9.1856 C.ar      1 MOL     0.0037
      7 C          19.9622   -1.5325    8.8303 C.ar      1 MOL     0.0044
      8 C          19.0699   -0.9792    9.7157 C.ar      1 MOL    -0.0391
      9 C          18.9344   -1.5284   10.9666 C.ar      1 MOL     0.0044
     10 C          19.6912   -2.6242   11.3229 C.ar      1 MOL     0.0037
     11 C          18.2508    0.1914    9.3584 C.3       1 MOL     0.0614
     12 C          16.8488    0.0171    9.9415 C.3       1 MOL     0.0185
     13 C          18.9101    1.3902    9.9547 C.2       1 MOL     0.0489
     14 O          19.4615    1.3277   11.0631 O.co2     1 MOL    -0.5492
     15 O          18.8951    2.5627    9.2546 O.co2     1 MOL    -0.5492
     16 H          23.0633   -6.6438    8.9087 H         1 MOL     0.0232
     17 H          22.8048   -6.6326   10.6372 H         1 MOL     0.0232
     18 H          23.7278   -5.3544    9.8836 H         1 MOL     0.0232
     19 H          21.7460   -4.6115    8.7017 H         1 MOL     0.0299
     20 H          20.3411   -6.7598   10.2049 H         1 MOL     0.0232
     21 H          20.6455   -6.7345    8.4848 H         1 MOL     0.0232
     22 H          19.5894   -5.5418    9.2026 H         1 MOL     0.0232
     23 H          22.3649   -4.0184   11.1429 H         1 MOL     0.0316
     24 H          20.9077   -4.9301   11.5183 H         1 MOL     0.0316
     25 H          21.3774   -3.0229    8.5099 H         1 MOL     0.0620
     26 H          20.0687   -1.1244    7.8880 H         1 MOL     0.0621
     27 H          18.2663   -1.1217   11.6401 H         1 MOL     0.0621
     28 H          19.5870   -3.0341   12.2643 H         1 MOL     0.0620
     29 H          18.1678    0.3015    8.2972 H         1 MOL     0.0406
     30 H          16.9159   -0.0947   11.0037 H         1 MOL     0.0239
     31 H          16.3938   -0.8549    9.5194 H         1 MOL     0.0239
     32 H          16.2565    0.8769    9.7088 H         1 MOL     0.0239
@<TRIPOS>BOND
     1    1    2 1 
     2    1   16 1 
     3    1   17 1 
     4    1   18 1 
     5    2    3 1 
     6    2    4 1 
     7    2   19 1 
     8    3   20 1 
     9    3   21 1 
    10    3   22 1 
    11    4    5 1 
    12    4   23 1 
    13    4   24 1 
    14    5    6 ar
    15    5   10 ar
    16    6    7 ar
    17    6   25 1 
    18    7    8 ar
    19    7   26 1 
    20    8    9 ar
    21    8   11 1 
    22    9   10 ar
    23    9   27 1 
    24   10   28 1 
    25   11   12 1 
    26   11   13 1 
    27   11   29 1 
    28   12   30 1 
    29   12   31 1 
    30   12   32 1 
    31   13   14 ar
    32   13   15 ar
@<TRIPOS>SUBSTRUCTURE
1 MOL         1
@<TRIPOS>MOLECULE
query molecule
   32    32     1     0     0
SMALL
NO_CHARGE

@<TRIPOS>ATOM
      1 C           4.8623   -3.5024   -0.4744 C.3       1 MOL     0.0072
      2 C           5.0279   -3.5043    1.0164 C.3       1 MOL    -0.0128
      3 C           4.0600   -2.5636    1.6605 C.3       1 MOL     0.0072
      4 C           4.8304   -4.9019    1.5333 C.3       1 MOL     0.0379
      5 C           3.4872   -5.4207    1.1771 C.ar      1 MOL    -0.0471
      6 C           2.4172   -5.0746    1.9692 C.ar      1 MOL     0.0037
      7 C           1.1625   -5.5291    1.6797 C.ar      1 MOL     0.0044
      8 C           0.9469   -6.3398    0.5922 C.ar      1 MOL    -0.0391
      9 C           2.0071   -6.6914   -0.2059 C.ar      1 MOL     0.0044
     10 C           3.2728   -6.2316    0.0888 C.ar      1 MOL     0.0037
     11 C          -0.3957   -6.8438    0.2572 C.3       1 MOL     0.0614
     12 C          -0.5140   -8.2960    0.7190 C.3       1 MOL     0.0185
     13 C          -1.3815   -5.9912    0.9845 C.2       1 MOL     0.0489
     14 O          -2.5198   -5.8062    0.5301 O.co2     1 MOL    -0.5492
     15 O          -1.0057   -5.4159    2.1646 O.co2     1 MOL    -0.5492
     16 H           5.0019   -2.5084   -0.8471 H         1 MOL     0.0232
     17 H           3.8790   -3.8421   -0.7248 H         1 MOL     0.0232
     18 H           5.5881   -4.1535   -0.9142 H         1 MOL     0.0232
     19 H           6.0145   -3.1716    1.2607 H         1 MOL     0.0299
     20 H           3.0602   -2.8709    1.4338 H         1 MOL     0.0232
     21 H           4.2219   -1.5744    1.2866 H         1 MOL     0.0232
     22 H           4.2041   -2.5728    2.7205 H         1 MOL     0.0232
     23 H           4.9322   -4.8981    2.5982 H         1 MOL     0.0316
     24 H           5.5677   -5.5354    1.0864 H         1 MOL     0.0316
     25 H           2.5640   -4.4666    2.7902 H         1 MOL     0.0620
     26 H           0.3694   -5.2608    2.2838 H         1 MOL     0.0621
     27 H           1.8571   -7.2994   -1.0265 H         1 MOL     0.0621
     28 H           4.0675   -6.4983   -0.5132 H         1 MOL     0.0620
     29 H          -0.5764   -6.8051   -0.7969 H         1 MOL     0.0406
     30 H          -0.3353   -8.3506    1.7728 H         1 MOL     0.0239
     31 H           0.2091   -8.8932    0.2034 H         1 MOL     0.0239
     32 H          -1.4965   -8.6597    0.5033 H         1 MOL     0.0239
@<TRIPOS>BOND
     1    1    2 1 
     2    1   16 1 
     3    1   17 1 
     4    1   18 1 
     5    2    3 1 
     6    2    4 1 
     7    2   19 1 
     8    3   20 1 
     9    3   21 1 
    10    3   22 1 
    11    4    5 1 
    12    4   23 1 
    13    4   24 1 
    14    5    6 ar
    15    5   10 ar
    16    6    7 ar
    17    6   25 1 
    18    7    8 ar
    19    7   26 1 
    20    8    9 ar
    21    8   11 1 
    22    9   10 ar
    23    9   27 1 
    24   10   28 1 
    25   11   12 1 
    26   11   13 1 
    27   11   29 1 
    28   12   30 1 
    29   12   31 1 
    30   12   32 1 
    31   13   14 ar
    32   13   15 ar
@<TRIPOS>SUBSTRUCTURE
1 MOL         1
@<TRIPOS>MOLECULE
query molecule
   32    32     1     0     0
SMALL
NO_CHARGE

@<TRIPOS>ATOM
      1 C           5.1379   26.2899   15.0180 C.3       1 MOL     0.0072
      2 C           3.6566   26.1341   14.8404 C.3       1 MOL    -0.0128
      3 C           3.0200   27.4455   14.5064 C.3       1 MOL     0.0072
      4 C           3.3926   25.1270   13.7562 C.3       1 MOL     0.0379
      5 C           2.0247   24.5644   13.8683 C.ar      1 MOL    -0.0471
      6 C           1.3545   24.6978   15.0621 C.ar      1 MOL     0.0037
      7 C           0.0935   24.1953   15.2111 C.ar      1 MOL     0.0044
      8 C          -0.5278   23.5477   14.1713 C.ar      1 MOL    -0.0391
      9 C           0.1311   23.4091   12.9750 C.ar      1 MOL     0.0044
     10 C           1.4041   23.9169   12.8273 C.ar      1 MOL     0.0037
     11 C          -1.8868   22.9966   14.3050 C.3       1 MOL     0.0614
     12 C          -1.9685   22.1747   15.5911 C.3       1 MOL     0.0185
     13 C          -2.8276   24.1531   14.3736 C.2       1 MOL     0.0489
     14 O          -3.5388   24.3364   15.3721 O.co2     1 MOL    -0.5492
     15 O          -2.8916   25.0098   13.3121 O.co2     1 MOL    -0.5492
     16 H           5.3307   27.0068   15.7895 H         1 MOL     0.0232
     17 H           5.5739   26.6270   14.1009 H         1 MOL     0.0232
     18 H           5.5647   25.3479   15.2915 H         1 MOL     0.0232
     19 H           3.2271   25.7895   15.7571 H         1 MOL     0.0299
     20 H           3.4303   27.8176   13.5906 H         1 MOL     0.0232
     21 H           3.2116   28.1452   15.2926 H         1 MOL     0.0232
     22 H           1.9642   27.3125   14.3959 H         1 MOL     0.0232
     23 H           4.1045   24.3326   13.8364 H         1 MOL     0.0316
     24 H           3.4804   25.6178   12.8095 H         1 MOL     0.0316
     25 H           1.8089   25.1814   15.8526 H         1 MOL     0.0620
     26 H          -0.3966   24.3031   16.1134 H         1 MOL     0.0621
     27 H          -0.3261   22.9252   12.1862 H         1 MOL     0.0621
     28 H           1.8965   23.8103   11.9266 H         1 MOL     0.0620
     29 H          -2.1351   22.3632   13.4789 H         1 MOL     0.0406
     30 H          -1.7221   22.7956   16.4272 H         1 MOL     0.0239
     31 H          -1.2773   21.3593   15.5367 H         1 MOL     0.0239
     32 H          -2.9612   21.7939   15.7083 H         1 MOL     0.0239
@<TRIPOS>BOND
     1    1    2 1 
     2    1   16 1 
     3    1   17 1 
     4    1   18 1 
     5    2    3 1 
     6    2    4 1 
     7    2   19 1 
     8    3   20 1 
     9    3   21 1 
    10    3   22 1 
    11    4    5 1 
    12    4   23 1 
    13    4   24 1 
    14    5    6 ar
    15    5   10 ar
    16    6    7 ar
    17    6   25 1 
    18    7    8 ar
    19    7   26 1 
    20    8    9 ar
    21    8   11 1 
    22    9   10 ar
    23    9   27 1 
    24   10   28 1 
    25   11   12 1 
    26   11   13 1 
    27   11   29 1 
    28   12   30 1 
    29   12   31 1 
    30   12   32 1 
    31   13   14 ar
    32   13   15 ar
@<TRIPOS>SUBSTRUCTURE
1 MOL         1
@<TRIPOS>MOLECULE
query molecule
   32    32     1     0     0
SMALL
NO_CHARGE

@<TRIPOS>ATOM
      1 C          -2.9844    8.9284   31.0082 C.3       1 MOL     0.0072
      2 C          -3.1262    8.6432   29.5423 C.3       1 MOL    -0.0128
      3 C          -2.9605    7.1829   29.2659 C.3       1 MOL     0.0072
      4 C          -4.4728    9.1203   29.0746 C.3       1 MOL     0.0379
      5 C          -4.3444   10.2995   28.1840 C.ar      1 MOL    -0.0471
      6 C          -4.7637   10.1867   26.8788 C.ar      1 MOL     0.0037
      7 C          -4.6644   11.2461   26.0229 C.ar      1 MOL     0.0044
      8 C          -4.1440   12.4431   26.4504 C.ar      1 MOL    -0.0391
      9 C          -3.7228   12.5677   27.7511 C.ar      1 MOL     0.0044
     10 C          -3.8238   11.4966   28.6130 C.ar      1 MOL     0.0037
     11 C          -4.0257   13.6012   25.5485 C.3       1 MOL     0.0614
     12 C          -3.1585   13.2152   24.3506 C.3       1 MOL     0.0185
     13 C          -5.4039   13.9498   25.0943 C.2       1 MOL     0.0489
     14 O          -5.5856   14.6036   24.0570 O.co2     1 MOL    -0.5492
     15 O          -6.4663   13.5341   25.8450 O.co2     1 MOL    -0.5492
     16 H          -2.0264    8.5899   31.3459 H         1 MOL     0.0232
     17 H          -3.7538    8.4165   31.5474 H         1 MOL     0.0232
     18 H          -3.0703    9.9813   31.1760 H         1 MOL     0.0232
     19 H          -2.3600    9.1633   29.0075 H         1 MOL     0.0299
     20 H          -3.7154    6.6334   29.7890 H         1 MOL     0.0232
     21 H          -1.9944    6.8648   29.5975 H         1 MOL     0.0232
     22 H          -3.0538    7.0051   28.2151 H         1 MOL     0.0232
     23 H          -5.0634    9.3878   29.9254 H         1 MOL     0.0316
     24 H          -4.9397    8.3299   28.5249 H         1 MOL     0.0316
     25 H          -5.1562    9.2931   26.5430 H         1 MOL     0.0620
     26 H          -4.9831   11.1459   25.0460 H         1 MOL     0.0621
     27 H          -3.3309   13.4626   28.0841 H         1 MOL     0.0621
     28 H          -3.5057   11.5938   29.5900 H         1 MOL     0.0620
     29 H          -3.5738   14.4366   26.0418 H         1 MOL     0.0406
     30 H          -3.5982   12.3796   23.8468 H         1 MOL     0.0239
     31 H          -2.1789   12.9509   24.6910 H         1 MOL     0.0239
     32 H          -3.0911   14.0438   23.6776 H         1 MOL     0.0239
@<TRIPOS>BOND
     1    1    2 1 
     2    1   16 1 
     3    1   17 1 
     4    1   18 1 
     5    2    3 1 
     6    2    4 1 
     7    2   19 1 
     8    3   20 1 
     9    3   21 1 
    10    3   22 1 
    11    4    5 1 
    12    4   23 1 
    13    4   24 1 
    14    5    6 ar
    15    5   10 ar
    16    6    7 ar
    17    6   25 1 
    18    7    8 ar
    19    7   26 1 
    20    8    9 ar
    21    8   11 1 
    22    9   10 ar
    23    9   27 1 
    24   10   28 1 
    25   11   12 1 
    26   11   13 1 
    27   11   29 1 
    28   12   30 1 
    29   12   31 1 
    30   12   32 1 
    31   13   14 ar
    32   13   15 ar
@<TRIPOS>SUBSTRUCTURE
1 MOL         1
@<TRIPOS>MOLECULE
query molecule
   32    32     1     0     0
SMALL
NO_CHARGE

@<TRIPOS>ATOM
      1 C          -2.7579   -3.0446   28.2148 C.3       1 MOL     0.0072
      2 C          -2.8248   -4.1083   29.2703 C.3       1 MOL    -0.0128
      3 C          -2.8871   -5.4685   28.6517 C.3       1 MOL     0.0072
      4 C          -1.6245   -3.9900   30.1673 C.3       1 MOL     0.0379
      5 C          -1.4438   -5.2138   30.9857 C.ar      1 MOL    -0.0471
      6 C          -2.3169   -5.4462   32.0230 C.ar      1 MOL     0.0037
      7 C          -2.1887   -6.5596   32.8031 C.ar      1 MOL     0.0044
      8 C          -1.1854   -7.4672   32.5657 C.ar      1 MOL    -0.0391
      9 C          -0.3085   -7.2461   31.5329 C.ar      1 MOL     0.0044
     10 C          -0.4399   -6.1211   30.7471 C.ar      1 MOL     0.0037
     11 C          -1.0246   -8.6759   33.3914 C.3       1 MOL     0.0614
     12 C           0.3076   -9.3419   33.0481 C.3       1 MOL     0.0185
     13 C          -1.0283   -8.2394   34.8186 C.2       1 MOL     0.0489
     14 O          -0.4220   -7.2179   35.1730 O.co2     1 MOL    -0.5492
     15 O          -1.7144   -8.9884   35.7314 O.co2     1 MOL    -0.5492
     16 H          -3.6112   -3.1253   27.5731 H         1 MOL     0.0232
     17 H          -1.8652   -3.1695   27.6383 H         1 MOL     0.0232
     18 H          -2.7510   -2.0814   28.6799 H         1 MOL     0.0232
     19 H          -3.7145   -3.9742   29.8484 H         1 MOL     0.0299
     20 H          -2.0076   -5.6334   28.0647 H         1 MOL     0.0232
     21 H          -3.7514   -5.5357   28.0248 H         1 MOL     0.0232
     22 H          -2.9459   -6.2090   29.4216 H         1 MOL     0.0232
     23 H          -1.7559   -3.1511   30.8179 H         1 MOL     0.0316
     24 H          -0.7563   -3.8603   29.5556 H         1 MOL     0.0316
     25 H          -3.0753   -4.7727   32.2138 H         1 MOL     0.0620
     26 H          -2.8516   -6.7201   33.5781 H         1 MOL     0.0621
     27 H           0.4489   -7.9216   31.3443 H         1 MOL     0.0621
     28 H           0.2216   -5.9580   29.9719 H         1 MOL     0.0620
     29 H          -1.8126   -9.3780   33.2148 H         1 MOL     0.0406
     30 H           1.1064   -8.6507   33.2197 H         1 MOL     0.0239
     31 H           0.3043   -9.6344   32.0186 H         1 MOL     0.0239
     32 H           0.4434  -10.2058   33.6642 H         1 MOL     0.0239
@<TRIPOS>BOND
     1    1    2 1 
     2    1   16 1 
     3    1   17 1 
     4    1   18 1 
     5    2    3 1 
     6    2    4 1 
     7    2   19 1 
     8    3   20 1 
     9    3   21 1 
    10    3   22 1 
    11    4    5 1 
    12    4   23 1 
    13    4   24 1 
    14    5    6 ar
    15    5   10 ar
    16    6    7 ar
    17    6   25 1 
    18    7    8 ar
    19    7   26 1 
    20    8    9 ar
    21    8   11 1 
    22    9   10 ar
    23    9   27 1 
    24   10   28 1 
    25   11   12 1 
    26   11   13 1 
    27   11   29 1 
    28   12   30 1 
    29   12   31 1 
    30   12   32 1 
    31   13   14 ar
    32   13   15 ar
@<TRIPOS>SUBSTRUCTURE
1 MOL         1
@<TRIPOS>MOLECULE
query molecule
   32    32     1     0     0
SMALL
NO_CHARGE

@<TRIPOS>ATOM
      1 C           7.7709   -3.9438   21.4771 C.3       1 MOL     0.0072
      2 C           8.6391   -4.8872   22.2556 C.3       1 MOL    -0.0128
      3 C           9.3713   -4.1638   23.3406 C.3       1 MOL     0.0072
      4 C           7.7855   -5.9816   22.8327 C.3       1 MOL     0.0379
      5 C           6.6798   -6.3415   21.9118 C.ar      1 MOL    -0.0471
      6 C           6.9489   -7.1852   20.8592 C.ar      1 MOL     0.0037
      7 C           5.9620   -7.5435   19.9859 C.ar      1 MOL     0.0044
      8 C           4.6833   -7.0676   20.1434 C.ar      1 MOL    -0.0391
      9 C           4.4028   -6.2253   21.1906 C.ar      1 MOL     0.0044
     10 C           5.4009   -5.8649   22.0705 C.ar      1 MOL     0.0037
     11 C           3.6006   -7.4380   19.2165 C.3       1 MOL     0.0614
     12 C           3.9560   -8.7594   18.5354 C.3       1 MOL     0.0185
     13 C           2.3586   -7.5962   20.0288 C.2       1 MOL     0.0489
     14 O           1.2527   -7.7196   19.4828 O.co2     1 MOL    -0.5492
     15 O           2.4624   -7.6025   21.3905 O.co2     1 MOL    -0.5492
     16 H           8.3749   -3.1621   21.0642 H         1 MOL     0.0232
     17 H           7.0334   -3.5195   22.1259 H         1 MOL     0.0232
     18 H           7.2867   -4.4763   20.6858 H         1 MOL     0.0232
     19 H           9.3691   -5.3143   21.6011 H         1 MOL     0.0299
     20 H           8.6658   -3.7240   24.0144 H         1 MOL     0.0232
     21 H           9.9789   -3.3959   22.9098 H         1 MOL     0.0232
     22 H           9.9919   -4.8530   23.8741 H         1 MOL     0.0232
     23 H           7.3720   -5.6491   23.7616 H         1 MOL     0.0316
     24 H           8.3980   -6.8463   22.9808 H         1 MOL     0.0316
     25 H           7.9053   -7.5502   20.7278 H         1 MOL     0.0620
     26 H           6.1795   -8.1774   19.2006 H         1 MOL     0.0621
     27 H           3.4453   -5.8621   21.3196 H         1 MOL     0.0621
     28 H           5.1864   -5.2311   22.8562 H         1 MOL     0.0620
     29 H           3.4594   -6.6924   18.4619 H         1 MOL     0.0406
     30 H           4.1007   -9.5158   19.2786 H         1 MOL     0.0239
     31 H           4.8569   -8.6375   17.9707 H         1 MOL     0.0239
     32 H           3.1608   -9.0482   17.8809 H         1 MOL     0.0239
@<TRIPOS>BOND
     1    1    2 1 
     2    1   16 1 
     3    1   17 1 
     4    1   18 1 
     5    2    3 1 
     6    2    4 1 
     7    2   19 1 
     8    3   20 1 
     9    3   21 1 
    10    3   22 1 
    11    4    5 1 
    12    4   23 1 
    13    4   24 1 
    14    5    6 ar
    15    5   10 ar
    16    6    7 ar
    17    6   25 1 
    18    7    8 ar
    19    7   26 1 
    20    8    9 ar
    21    8   11 1 
    22    9   10 ar
    23    9   27 1 
    24   10   28 1 
    25   11   12 1 
    26   11   13 1 
    27   11   29 1 
    28   12   30 1 
    29   12   31 1 
    30   12   32 1 
    31   13   14 ar
    32   13   15 ar
@<TRIPOS>SUBSTRUCTURE
1 MOL         1
@<TRIPOS>MOLECULE
query molecule
   32    32     1     0     0
SMALL
NO_CHARGE

@<TRIPOS>ATOM
      1 C           9.1187    9.5320   -7.5355 C.3       1 MOL     0.0072
      2 C           9.3300   10.1295   -6.1759 C.3       1 MOL    -0.0128
      3 C          10.7691   10.4774   -5.9655 C.3       1 MOL     0.0072
      4 C           8.4647   11.3504   -6.0333 C.3       1 MOL     0.0379
      5 C           7.0572   10.9798   -5.7473 C.ar      1 MOL    -0.0471
      6 C           6.6412   10.9387   -4.4368 C.ar      1 MOL     0.0037
      7 C           5.3547   10.6024   -4.1262 C.ar      1 MOL     0.0044
      8 C           4.4533   10.2994   -5.1173 C.ar      1 MOL    -0.0391
      9 C           4.8569   10.3377   -6.4289 C.ar      1 MOL     0.0044
     10 C           6.1563   10.6770   -6.7396 C.ar      1 MOL     0.0037
     11 C           3.0602    9.9337   -4.8102 C.3       1 MOL     0.0614
     12 C           2.1264   10.6770   -5.7650 C.3       1 MOL     0.0185
     13 C           2.9355    8.4603   -5.0127 C.2       1 MOL     0.0489
     14 O           3.6171    7.6669   -4.3475 O.co2     1 MOL    -0.5492
     15 O           2.0535    7.9994   -5.9478 O.co2     1 MOL    -0.5492
     16 H           9.7335    8.6618   -7.6416 H         1 MOL     0.0232
     17 H           9.3823   10.2484   -8.2851 H         1 MOL     0.0232
     18 H           8.0908    9.2585   -7.6484 H         1 MOL     0.0232
     19 H           9.0576    9.4125   -5.4307 H         1 MOL     0.0299
     20 H          11.0728   11.1957   -6.6983 H         1 MOL     0.0232
     21 H          11.3669    9.5954   -6.0623 H         1 MOL     0.0232
     22 H          10.8978   10.8903   -4.9869 H         1 MOL     0.0232
     23 H           8.5001   11.9117   -6.9432 H         1 MOL     0.0316
     24 H           8.8343   11.9335   -5.2159 H         1 MOL     0.0316
     25 H           7.3076   11.1632   -3.6813 H         1 MOL     0.0620
     26 H           5.0575   10.5757   -3.1379 H         1 MOL     0.0621
     27 H           4.1881   10.1128   -7.1823 H         1 MOL     0.0621
     28 H           6.4562   10.7043   -7.7268 H         1 MOL     0.0620
     29 H           2.7995   10.1948   -3.8057 H         1 MOL     0.0406
     30 H           2.3755   10.4258   -6.7750 H         1 MOL     0.0239
     31 H           2.2379   11.7319   -5.6222 H         1 MOL     0.0239
     32 H           1.1141   10.3948   -5.5653 H         1 MOL     0.0239
@<TRIPOS>BOND
     1    1    2 1 
     2    1   16 1 
     3    1   17 1 
     4    1   18 1 
     5    2    3 1 
     6    2    4 1 
     7    2   19 1 
     8    3   20 1 
     9    3   21 1 
    10    3   22 1 
    11    4    5 1 
    12    4   23 1 
    13    4   24 1 
    14    5    6 ar
    15    5   10 ar
    16    6    7 ar
    17    6   25 1 
    18    7    8 ar
    19    7   26 1 
    20    8    9 ar
    21    8   11 1 
    22    9   10 ar
    23    9   27 1 
    24   10   28 1 
    25   11   12 1 
    26   11   13 1 
    27   11   29 1 
    28   12   30 1 
    29   12   31 1 
    30   12   32 1 
    31   13   14 ar
    32   13   15 ar
@<TRIPOS>SUBSTRUCTURE
1 MOL         1
@<TRIPOS>MOLECULE
query molecule
   32    32     1     0     0
SMALL
NO_CHARGE

@<TRIPOS>ATOM
      1 C          16.1903   28.2449   29.3455 C.3       1 MOL     0.0072
      2 C          17.3397   27.3219   29.0680 C.3       1 MOL    -0.0128
      3 C          18.6438   28.0425   29.1967 C.3       1 MOL     0.0072
      4 C          17.2813   26.1604   30.0205 C.3       1 MOL     0.0379
      5 C          17.4376   24.8710   29.3042 C.ar      1 MOL    -0.0471
      6 C          16.3087   24.2317   28.8469 C.ar      1 MOL     0.0037
      7 C          16.4046   23.0424   28.1825 C.ar      1 MOL     0.0044
      8 C          17.6301   22.4638   27.9593 C.ar      1 MOL    -0.0391
      9 C          18.7637   23.0930   28.4106 C.ar      1 MOL     0.0044
     10 C          18.6642   24.2932   29.0813 C.ar      1 MOL     0.0037
     11 C          17.7618   21.1824   27.2457 C.3       1 MOL     0.0614
     12 C          17.8097   20.0450   28.2656 C.3       1 MOL     0.0185
     13 C          16.5609   21.0384   26.3713 C.2       1 MOL     0.0489
     14 O          15.9405   22.0350   25.9735 O.co2     1 MOL    -0.5492
     15 O          16.1558   19.7837   26.0154 O.co2     1 MOL    -0.5492
     16 H          16.2280   29.0741   28.6693 H         1 MOL     0.0232
     17 H          16.2545   28.6024   30.3520 H         1 MOL     0.0232
     18 H          15.2695   27.7172   29.2119 H         1 MOL     0.0232
     19 H          17.2663   26.9614   28.0639 H         1 MOL     0.0299
     20 H          18.7472   28.4164   30.1941 H         1 MOL     0.0232
     21 H          18.6695   28.8590   28.5059 H         1 MOL     0.0232
     22 H          19.4471   27.3688   28.9835 H         1 MOL     0.0232
     23 H          16.3372   26.1683   30.5234 H         1 MOL     0.0316
     24 H          18.0831   26.2575   30.7222 H         1 MOL     0.0316
     25 H          15.3809   24.6541   29.0079 H         1 MOL     0.0620
     26 H          15.5482   22.5745   27.8455 H         1 MOL     0.0621
     27 H          19.6902   22.6682   28.2479 H         1 MOL     0.0621
     28 H          19.5185   24.7630   29.4196 H         1 MOL     0.0620
     29 H          18.6558   21.1518   26.6582 H         1 MOL     0.0406
     30 H          16.9210   20.0630   28.8615 H         1 MOL     0.0239
     31 H          18.6649   20.1693   28.8971 H         1 MOL     0.0239
     32 H          17.8778   19.1089   27.7527 H         1 MOL     0.0239
@<TRIPOS>BOND
     1    1    2 1 
     2    1   16 1 
     3    1   17 1 
     4    1   18 1 
     5    2    3 1 
     6    2    4 1 
     7    2   19 1 
     8    3   20 1 
     9    3   21 1 
    10    3   22 1 
    11    4    5 1 
    12    4   23 1 
    13    4   24 1 
    14    5    6 ar
    15    5   10 ar
    16    6    7 ar
    17    6   25 1 
    18    7    8 ar
    19    7   26 1 
    20    8    9 ar
    21    8   11 1 
    22    9   10 ar
    23    9   27 1 
    24   10   28 1 
    25   11   12 1 
    26   11   13 1 
    27   11   29 1 
    28   12   30 1 
    29   12   31 1 
    30   12   32 1 
    31   13   14 ar
    32   13   15 ar
@<TRIPOS>SUBSTRUCTURE
1 MOL         1
@<TRIPOS>MOLECULE
query molecule
   32    32     1     0     0
SMALL
NO_CHARGE

@<TRIPOS>ATOM
      1 C          16.3874    6.5913   -1.0678 C.3       1 MOL     0.0072
      2 C          14.9851    7.1231   -1.0921 C.3       1 MOL    -0.0128
      3 C          14.6790    7.7565   -2.4118 C.3       1 MOL     0.0072
      4 C          14.0263    6.0004   -0.8097 C.3       1 MOL     0.0379
      5 C          14.2239    4.8755   -1.7562 C.ar      1 MOL    -0.0471
      6 C          14.9563    3.7875   -1.3410 C.ar      1 MOL     0.0037
      7 C          15.1641    2.7291   -2.1784 C.ar      1 MOL     0.0044
      8 C          14.6454    2.7324   -3.4502 C.ar      1 MOL    -0.0391
      9 C          13.9123    3.8124   -3.8754 C.ar      1 MOL     0.0044
     10 C          13.7043    4.8798   -3.0281 C.ar      1 MOL     0.0037
     11 C          14.8543    1.6043   -4.3735 C.3       1 MOL     0.0614
     12 C          13.9657    1.7934   -5.6027 C.3       1 MOL     0.0185
     13 C          16.2926    1.6201   -4.7718 C.2       1 MOL     0.0489
     14 O          16.6974    2.3800   -5.6635 O.co2     1 MOL    -0.5492
     15 O          17.1587    0.7790   -4.1337 O.co2     1 MOL    -0.5492
     16 H          17.0740    7.3880   -1.2689 H         1 MOL     0.0232
     17 H          16.4942    5.8319   -1.8139 H         1 MOL     0.0232
     18 H          16.5944    6.1767   -0.1038 H         1 MOL     0.0232
     19 H          14.8816    7.8759   -0.3396 H         1 MOL     0.0299
     20 H          14.7741    7.0261   -3.1881 H         1 MOL     0.0232
     21 H          15.3654    8.5574   -2.5905 H         1 MOL     0.0232
     22 H          13.6796    8.1382   -2.4020 H         1 MOL     0.0232
     23 H          13.0249    6.3642   -0.9039 H         1 MOL     0.0316
     24 H          14.2060    5.6434    0.1829 H         1 MOL     0.0316
     25 H          15.3529    3.7713   -0.3883 H         1 MOL     0.0620
     26 H          15.7161    1.9199   -1.8525 H         1 MOL     0.0621
     27 H          13.5168    3.8257   -4.8287 H         1 MOL     0.0621
     28 H          13.1532    5.6902   -3.3515 H         1 MOL     0.0620
     29 H          14.6058    0.6707   -3.9131 H         1 MOL     0.0406
     30 H          14.2028    2.7244   -6.0742 H         1 MOL     0.0239
     31 H          12.9386    1.7976   -5.3018 H         1 MOL     0.0239
     32 H          14.1329    0.9912   -6.2902 H         1 MOL     0.0239
@<TRIPOS>BOND
     1    1    2 1 
     2    1   16 1 
     3    1   17 1 
     4    1   18 1 
     5    2    3 1 
     6    2    4 1 
     7    2   19 1 
     8    3   20 1 
     9    3   21 1 
    10    3   22 1 
    11    4    5 1 
    12    4   23 1 
    13    4   24 1 
    14    5    6 ar
    15    5   10 ar
    16    6    7 ar
    17    6   25 1 
    18    7    8 ar
    19    7   26 1 
    20    8    9 ar
    21    8   11 1 
    22    9   10 ar
    23    9   27 1 
    24   10   28 1 
    25   11   12 1 
    26   11   13 1 
    27   11   29 1 
    28   12   30 1 
    29   12   31 1 
    30   12   32 1 
    31   13   14 ar
    32   13   15 ar
@<TRIPOS>SUBSTRUCTURE
1 MOL         1
@<TRIPOS>MOLECULE
query molecule
   32    32     1     0     0
SMALL
NO_CHARGE

@<TRIPOS>ATOM
      1 C          16.6942   -3.7338   -2.4746 C.3       1 MOL     0.0072
      2 C          15.9785   -2.8712   -3.4715 C.3       1 MOL    -0.0128
      3 C          15.7199   -3.6238   -4.7376 C.3       1 MOL     0.0072
      4 C          14.6880   -2.3887   -2.8704 C.3       1 MOL     0.0379
      5 C          14.1917   -1.1769   -3.5672 C.ar      1 MOL    -0.0471
      6 C          12.8354   -0.9517   -3.6095 C.ar      1 MOL     0.0037
      7 C          12.3333    0.1506   -4.2401 C.ar      1 MOL     0.0044
      8 C          13.1740    1.0538   -4.8434 C.ar      1 MOL    -0.0391
      9 C          14.5295    0.8397   -4.8072 C.ar      1 MOL     0.0044
     10 C          15.0338   -0.2740   -4.1702 C.ar      1 MOL     0.0037
     11 C          12.6591    2.2504   -5.5301 C.3       1 MOL     0.0614
     12 C          11.7283    1.8156   -6.6618 C.3       1 MOL     0.0185
     13 C          11.9029    3.0479   -4.5204 C.2       1 MOL     0.0489
     14 O          12.2334    3.0392   -3.3257 O.co2     1 MOL    -0.5492
     15 O          10.8356    3.7907   -4.9375 O.co2     1 MOL    -0.5492
     16 H          17.6143   -4.0800   -2.8988 H         1 MOL     0.0232
     17 H          16.0799   -4.5727   -2.2223 H         1 MOL     0.0232
     18 H          16.8999   -3.1637   -1.5932 H         1 MOL     0.0232
     19 H          16.5933   -2.0304   -3.7140 H         1 MOL     0.0299
     20 H          15.1050   -4.4741   -4.5273 H         1 MOL     0.0232
     21 H          16.6495   -3.9509   -5.1540 H         1 MOL     0.0232
     22 H          15.2200   -2.9866   -5.4366 H         1 MOL     0.0232
     23 H          14.8485   -2.1570   -1.8385 H         1 MOL     0.0316
     24 H          13.9563   -3.1624   -2.9737 H         1 MOL     0.0316
     25 H          12.1913   -1.6221   -3.1612 H         1 MOL     0.0620
     26 H          11.3129    0.3058   -4.2636 H         1 MOL     0.0621
     27 H          15.1712    1.5120   -5.2562 H         1 MOL     0.0621
     28 H          16.0534   -0.4318   -4.1454 H         1 MOL     0.0620
     29 H          13.4532    2.8344   -5.9468 H         1 MOL     0.0406
     30 H          10.9282    1.2295   -6.2599 H         1 MOL     0.0239
     31 H          12.2781    1.2305   -7.3695 H         1 MOL     0.0239
     32 H          11.3292    2.6810   -7.1475 H         1 MOL     0.0239
@<TRIPOS>BOND
     1    1    2 1 
     2    1   16 1 
     3    1   17 1 
     4    1   18 1 
     5    2    3 1 
     6    2    4 1 
     7    2   19 1 
     8    3   20 1 
     9    3   21 1 
    10    3   22 1 
    11    4    5 1 
    12    4   23 1 
    13    4   24 1 
    14    5    6 ar
    15    5   10 ar
    16    6    7 ar
    17    6   25 1 
    18    7    8 ar
    19    7   26 1 
    20    8    9 ar
    21    8   11 1 
    22    9   10 ar
    23    9   27 1 
    24   10   28 1 
    25   11   12 1 
    26   11   13 1 
    27   11   29 1 
    28   12   30 1 
    29   12   31 1 
    30   12   32 1 
    31   13   14 ar
    32   13   15 ar
@<TRIPOS>SUBSTRUCTURE
1 MOL         1
@<TRIPOS>MOLECULE
query molecule
   32    32     1     0     0
SMALL
NO_CHARGE

@<TRIPOS>ATOM
      1 C          20.3464    3.0511   -5.7132 C.3       1 MOL     0.0072
      2 C          20.1370    4.2807   -4.8799 C.3       1 MOL    -0.0128
      3 C          21.3261    5.1845   -4.9571 C.3       1 MOL     0.0072
      4 C          18.9004    4.9927   -5.3524 C.3       1 MOL     0.0379
      5 C          17.7730    4.7928   -4.4093 C.ar      1 MOL    -0.0471
      6 C          17.4105    5.8345   -3.5874 C.ar      1 MOL     0.0037
      7 C          16.3790    5.6958   -2.7033 C.ar      1 MOL     0.0044
      8 C          15.6853    4.5133   -2.6194 C.ar      1 MOL    -0.0391
      9 C          16.0377    3.4669   -3.4351 C.ar      1 MOL     0.0044
     10 C          17.0796    3.6094   -4.3264 C.ar      1 MOL     0.0037
     11 C          14.5690    4.3369   -1.6752 C.3       1 MOL     0.0614
     12 C          15.0829    4.5407   -0.2502 C.3       1 MOL     0.0185
     13 C          13.5443    5.3707   -2.0048 C.2       1 MOL     0.0489
     14 O          13.0676    5.4527   -3.1461 O.co2     1 MOL    -0.5492
     15 O          13.1391    6.2285   -1.0226 O.co2     1 MOL    -0.5492
     16 H          21.2267    2.5407   -5.3802 H         1 MOL     0.0232
     17 H          20.4631    3.3309   -6.7393 H         1 MOL     0.0232
     18 H          19.4999    2.4049   -5.6131 H         1 MOL     0.0232
     19 H          20.0130    3.9949   -3.8568 H         1 MOL     0.0299
     20 H          21.4768    5.4888   -5.9719 H         1 MOL     0.0232
     21 H          22.1931    4.6633   -4.6091 H         1 MOL     0.0232
     22 H          21.1594    6.0475   -4.3471 H         1 MOL     0.0232
     23 H          18.6237    4.6121   -6.3130 H         1 MOL     0.0316
     24 H          19.1132    6.0397   -5.4087 H         1 MOL     0.0316
     25 H          17.9232    6.7288   -3.6387 H         1 MOL     0.0620
     26 H          16.1189    6.4867   -2.0929 H         1 MOL     0.0621
     27 H          15.5230    2.5738   -3.3817 H         1 MOL     0.0621
     28 H          17.3420    2.8204   -4.9377 H         1 MOL     0.0620
     29 H          14.1459    3.3567   -1.7485 H         1 MOL     0.0406
     30 H          15.5098    5.5180   -0.1616 H         1 MOL     0.0239
     31 H          15.8288    3.8047   -0.0325 H         1 MOL     0.0239
     32 H          14.2710    4.4409    0.4391 H         1 MOL     0.0239
@<TRIPOS>BOND
     1    1    2 1 
     2    1   16 1 
     3    1   17 1 
     4    1   18 1 
     5    2    3 1 
     6    2    4 1 
     7    2   19 1 
     8    3   20 1 
     9    3   21 1 
    10    3   22 1 
    11    4    5 1 
    12    4   23 1 
    13    4   24 1 
    14    5    6 ar
    15    5   10 ar
    16    6    7 ar
    17    6   25 1 
    18    7    8 ar
    19    7   26 1 
    20    8    9 ar
    21    8   11 1 
    22    9   10 ar
    23    9   27 1 
    24   10   28 1 
    25   11   12 1 
    26   11   13 1 
    27   11   29 1 
    28   12   30 1 
    29   12   31 1 
    30   12   32 1 
    31   13   14 ar
    32   13   15 ar
@<TRIPOS>SUBSTRUCTURE
1 MOL         1
@<TRIPOS>MOLECULE
query molecule
   32    32     1     0     0
SMALL
NO_CHARGE

@<TRIPOS>ATOM
      1 C          -0.3037   27.1591    6.7835 C.3       1 MOL     0.0072
      2 C          -0.5895   26.3943    8.0418 C.3       1 MOL    -0.0128
      3 C           0.6781   26.0653    8.7639 C.3       1 MOL     0.0072
      4 C          -1.5009   27.2077    8.9177 C.3       1 MOL     0.0379
      5 C          -2.9204   26.8293    8.7125 C.ar      1 MOL    -0.0471
      6 C          -3.8214   27.0848    9.7200 C.ar      1 MOL     0.0037
      7 C          -5.1382   26.7534    9.5753 C.ar      1 MOL     0.0044
      8 C          -5.5862   26.1591    8.4209 C.ar      1 MOL    -0.0391
      9 C          -4.6962   25.8999    7.4083 C.ar      1 MOL     0.0044
     10 C          -3.3673   26.2351    7.5571 C.ar      1 MOL     0.0037
     11 C          -7.0005   25.7916    8.2387 C.3       1 MOL     0.0614
     12 C          -7.5406   26.4870    6.9893 C.3       1 MOL     0.0185
     13 C          -7.0530   24.3101    8.0656 C.2       1 MOL     0.0489
     14 O          -7.5999   23.8044    7.0749 O.co2     1 MOL    -0.5492
     15 O          -6.4855   23.5179    9.0223 O.co2     1 MOL    -0.5492
     16 H           0.3456   26.5834    6.1563 H         1 MOL     0.0232
     17 H           0.1686   28.0872    7.0293 H         1 MOL     0.0232
     18 H          -1.2208   27.3507    6.2672 H         1 MOL     0.0232
     19 H          -1.0685   25.4716    7.7911 H         1 MOL     0.0299
     20 H           1.1824   26.9712    9.0292 H         1 MOL     0.0232
     21 H           1.3088   25.4798    8.1282 H         1 MOL     0.0232
     22 H           0.4511   25.5109    9.6503 H         1 MOL     0.0232
     23 H          -1.3782   28.2440    8.6825 H         1 MOL     0.0316
     24 H          -1.2447   27.0201    9.9395 H         1 MOL     0.0316
     25 H          -3.4993   27.5302   10.5936 H         1 MOL     0.0620
     26 H          -5.8024   26.9512   10.3405 H         1 MOL     0.0621
     27 H          -5.0214   25.4545    6.5357 H         1 MOL     0.0621
     28 H          -2.7011   26.0382    6.7938 H         1 MOL     0.0620
     29 H          -7.5934   26.0895    9.0783 H         1 MOL     0.0406
     30 H          -6.9565   26.1985    6.1402 H         1 MOL     0.0239
     31 H          -7.4814   27.5477    7.1190 H         1 MOL     0.0239
     32 H          -8.5602   26.2025    6.8357 H         1 MOL     0.0239
@<TRIPOS>BOND
     1    1    2 1 
     2    1   16 1 
     3    1   17 1 
     4    1   18 1 
     5    2    3 1 
     6    2    4 1 
     7    2   19 1 
     8    3   20 1 
     9    3   21 1 
    10    3   22 1 
    11    4    5 1 
    12    4   23 1 
    13    4   24 1 
    14    5    6 ar
    15    5   10 ar
    16    6    7 ar
    17    6   25 1 
    18    7    8 ar
    19    7   26 1 
    20    8    9 ar
    21    8   11 1 
    22    9   10 ar
    23    9   27 1 
    24   10   28 1 
    25   11   12 1 
    26   11   13 1 
    27   11   29 1 
    28   12   30 1 
    29   12   31 1 
    30   12   32 1 
    31   13   14 ar
    32   13   15 ar
@<TRIPOS>SUBSTRUCTURE
1 MOL         1
@<TRIPOS>MOLECULE
query molecule
   32    32     1     0     0
SMALL
NO_CHARGE

@<TRIPOS>ATOM
      1 C          16.9846   -1.2924   34.6810 C.3       1 MOL     0.0072
      2 C          17.2707   -1.2311   36.1522 C.3       1 MOL    -0.0128
      3 C          16.4377   -0.1792   36.8128 C.3       1 MOL     0.0072
      4 C          17.0037   -2.5781   36.7636 C.3       1 MOL     0.0379
      5 C          15.5774   -2.9592   36.6197 C.ar      1 MOL    -0.0471
      6 C          14.7082   -2.6514   37.6405 C.ar      1 MOL     0.0037
      7 C          13.3866   -2.9833   37.5517 C.ar      1 MOL     0.0044
      8 C          12.9019   -3.6302   36.4413 C.ar      1 MOL    -0.0391
      9 C          13.7599   -3.9420   35.4159 C.ar      1 MOL     0.0044
     10 C          15.0937   -3.6062   35.5083 C.ar      1 MOL     0.0037
     11 C          11.4815   -3.9994   36.3197 C.3       1 MOL     0.0614
     12 C          10.9119   -3.3812   35.0432 C.3       1 MOL     0.0185
     13 C          11.4174   -5.4885   36.2425 C.2       1 MOL     0.0489
     14 O          12.0619   -6.1948   37.0314 O.co2     1 MOL    -0.5492
     15 O          10.6328   -6.0620   35.2832 O.co2     1 MOL    -0.5492
     16 H          17.1733   -0.3346   34.2412 H         1 MOL     0.0232
     17 H          15.9600   -1.5596   34.5274 H         1 MOL     0.0232
     18 H          17.6170   -2.0250   34.2255 H         1 MOL     0.0232
     19 H          18.2975   -0.9715   36.2999 H         1 MOL     0.0299
     20 H          15.4013   -0.4115   36.6821 H         1 MOL     0.0232
     21 H          16.6480    0.7719   36.3704 H         1 MOL     0.0232
     22 H          16.6666   -0.1457   37.8573 H         1 MOL     0.0232
     23 H          17.2532   -2.5454   37.8033 H         1 MOL     0.0316
     24 H          17.6016   -3.3052   36.2550 H         1 MOL     0.0316
     25 H          15.0582   -2.1661   38.4815 H         1 MOL     0.0620
     26 H          12.7465   -2.7458   38.3262 H         1 MOL     0.0621
     27 H          13.4070   -4.4272   34.5761 H         1 MOL     0.0621
     28 H          15.7358   -3.8427   34.7357 H         1 MOL     0.0620
     29 H          10.9124   -3.6451   37.1539 H         1 MOL     0.0406
     30 H          11.4719   -3.7266   34.1992 H         1 MOL     0.0239
     31 H          10.9795   -2.3148   35.1036 H         1 MOL     0.0239
     32 H           9.8872   -3.6683   34.9346 H         1 MOL     0.0239
@<TRIPOS>BOND
     1    1    2 1 
     2    1   16 1 
     3    1   17 1 
     4    1   18 1 
     5    2    3 1 
     6    2    4 1 
     7    2   19 1 
     8    3   20 1 
     9    3   21 1 
    10    3   22 1 
    11    4    5 1 
    12    4   23 1 
    13    4   24 1 
    14    5    6 ar
    15    5   10 ar
    16    6    7 ar
    17    6   25 1 
    18    7    8 ar
    19    7   26 1 
    20    8    9 ar
    21    8   11 1 
    22    9   10 ar
    23    9   27 1 
    24   10   28 1 
    25   11   12 1 
    26   11   13 1 
    27   11   29 1 
    28   12   30 1 
    29   12   31 1 
    30   12   32 1 
    31   13   14 ar
    32   13   15 ar
@<TRIPOS>SUBSTRUCTURE
1 MOL         1
@<TRIPOS>MOLECULE
query molecule
   32    32     1     0     0
SMALL
NO_CHARGE

@<TRIPOS>ATOM
      1 C          -5.6742   -4.0965   36.2840 C.3       1 MOL     0.0072
      2 C          -4.2743   -3.6102   36.5165 C.3       1 MOL    -0.0128
      3 C          -3.8182   -3.9444   37.9010 C.3       1 MOL     0.0072
      4 C          -3.3609   -4.2285   35.4954 C.3       1 MOL     0.0379
      5 C          -3.2715   -3.3877   34.2767 C.ar      1 MOL    -0.0471
      6 C          -4.0792   -3.6934   33.2060 C.ar      1 MOL     0.0037
      7 C          -4.0308   -2.9471   32.0634 C.ar      1 MOL     0.0044
      8 C          -3.1745   -1.8779   31.9633 C.ar      1 MOL    -0.0391
      9 C          -2.3640   -1.5629   33.0256 C.ar      1 MOL     0.0044
     10 C          -2.4146   -2.3182   34.1778 C.ar      1 MOL     0.0037
     11 C          -3.1021   -1.0566   30.7431 C.3       1 MOL     0.0614
     12 C          -2.9776   -1.9761   29.5285 C.3       1 MOL     0.0185
     13 C          -4.3680   -0.2700   30.6646 C.2       1 MOL     0.0489
     14 O          -4.5070    0.6293   29.8229 O.co2     1 MOL    -0.5492
     15 O          -5.3751   -0.5595   31.5403 O.co2     1 MOL    -0.5492
     16 H          -6.3285   -3.6586   37.0095 H         1 MOL     0.0232
     17 H          -5.7018   -5.1621   36.3760 H         1 MOL     0.0232
     18 H          -5.9905   -3.8143   35.3019 H         1 MOL     0.0232
     19 H          -4.2508   -2.5458   36.4156 H         1 MOL     0.0299
     20 H          -3.8307   -5.0062   38.0336 H         1 MOL     0.0232
     21 H          -4.4749   -3.4889   38.6123 H         1 MOL     0.0232
     22 H          -2.8236   -3.5785   38.0478 H         1 MOL     0.0232
     23 H          -3.7384   -5.1928   35.2274 H         1 MOL     0.0316
     24 H          -2.3832   -4.3116   35.9220 H         1 MOL     0.0316
     25 H          -4.7272   -4.4945   33.2664 H         1 MOL     0.0620
     26 H          -4.6431   -3.1892   31.2682 H         1 MOL     0.0621
     27 H          -1.7171   -0.7611   32.9623 H         1 MOL     0.0621
     28 H          -1.8034   -2.0786   34.9741 H         1 MOL     0.0620
     29 H          -2.2568   -0.4006   30.7626 H         1 MOL     0.0406
     30 H          -3.8170   -2.6391   29.4958 H         1 MOL     0.0239
     31 H          -2.0754   -2.5467   29.6053 H         1 MOL     0.0239
     32 H          -2.9522   -1.3865   28.6363 H         1 MOL     0.0239
@<TRIPOS>BOND
     1    1    2 1 
     2    1   16 1 
     3    1   17 1 
     4    1   18 1 
     5    2    3 1 
     6    2    4 1 
     7    2   19 1 
     8    3   20 1 
     9    3   21 1 
    10    3   22 1 
    11    4    5 1 
    12    4   23 1 
    13    4   24 1 
    14    5    6 ar
    15    5   10 ar
    16    6    7 ar
    17    6   25 1 
    18    7    8 ar
    19    7   26 1 
    20    8    9 ar
    21    8   11 1 
    22    9   10 ar
    23    9   27 1 
    24   10   28 1 
    25   11   12 1 
    26   11   13 1 
    27   11   29 1 
    28   12   30 1 
    29   12   31 1 
    30   12   32 1 
    31   13   14 ar
    32   13   15 ar
@<TRIPOS>SUBSTRUCTURE
1 MOL         1
@<TRIPOS>MOLECULE
query molecule
   32    32     1     0     0
SMALL
NO_CHARGE

@<TRIPOS>ATOM
      1 C          18.8754   27.0608   -8.7429 C.3       1 MOL     0.0072
      2 C          18.4637   27.6628   -7.4321 C.3       1 MOL    -0.0128
      3 C          17.4568   28.7491   -7.6384 C.3       1 MOL     0.0072
      4 C          17.9039   26.5840   -6.5476 C.3       1 MOL     0.0379
      5 C          16.5167   26.2348   -6.9400 C.ar      1 MOL    -0.0471
      6 C          15.4817   26.6439   -6.1315 C.ar      1 MOL     0.0037
      7 C          14.1886   26.3450   -6.4531 C.ar      1 MOL     0.0044
      8 C          13.8988   25.6305   -7.5897 C.ar      1 MOL    -0.0391
      9 C          14.9235   25.2175   -8.4046 C.ar      1 MOL     0.0044
     10 C          16.2280   25.5202   -8.0775 C.ar      1 MOL     0.0037
     11 C          12.5136   25.2947   -7.9600 C.3       1 MOL     0.0614
     12 C          12.1434   26.0423   -9.2408 C.3       1 MOL     0.0185
     13 C          12.4634   23.8213   -8.1921 C.2       1 MOL     0.0489
     14 O          12.9840   23.3176   -9.1980 O.co2     1 MOL    -0.5492
     15 O          11.8309   23.0341   -7.2728 O.co2     1 MOL    -0.5492
     16 H          19.2748   27.8260   -9.3765 H         1 MOL     0.0232
     17 H          18.0243   26.6158   -9.2143 H         1 MOL     0.0232
     18 H          19.6213   26.3132   -8.5728 H         1 MOL     0.0232
     19 H          19.3193   28.0990   -6.9616 H         1 MOL     0.0299
     20 H          16.5858   28.3427   -8.1090 H         1 MOL     0.0232
     21 H          17.8763   29.5102   -8.2622 H         1 MOL     0.0232
     22 H          17.1871   29.1708   -6.6929 H         1 MOL     0.0232
     23 H          17.9042   26.9277   -5.5346 H         1 MOL     0.0316
     24 H          18.5146   25.7115   -6.6499 H         1 MOL     0.0316
     25 H          15.6842   27.1810   -5.2737 H         1 MOL     0.0620
     26 H          13.4227   26.6588   -5.8361 H         1 MOL     0.0621
     27 H          14.7178   24.6807   -9.2620 H         1 MOL     0.0621
     28 H          16.9957   25.2075   -8.6923 H         1 MOL     0.0620
     29 H          11.8243   25.5741   -7.1905 H         1 MOL     0.0406
     30 H          12.8253   25.7729  -10.0204 H         1 MOL     0.0239
     31 H          12.2001   27.0967   -9.0662 H         1 MOL     0.0239
     32 H          11.1473   25.7814   -9.5305 H         1 MOL     0.0239
@<TRIPOS>BOND
     1    1    2 1 
     2    1   16 1 
     3    1   17 1 
     4    1   18 1 
     5    2    3 1 
     6    2    4 1 
     7    2   19 1 
     8    3   20 1 
     9    3   21 1 
    10    3   22 1 
    11    4    5 1 
    12    4   23 1 
    13    4   24 1 
    14    5    6 ar
    15    5   10 ar
    16    6    7 ar
    17    6   25 1 
    18    7    8 ar
    19    7   26 1 
    20    8    9 ar
    21    8   11 1 
    22    9   10 ar
    23    9   27 1 
    24   10   28 1 
    25   11   12 1 
    26   11   13 1 
    27   11   29 1 
    28   12   30 1 
    29   12   31 1 
    30   12   32 1 
    31   13   14 ar
    32   13   15 ar
@<TRIPOS>SUBSTRUCTURE
1 MOL         1
@<TRIPOS>MOLECULE
query molecule
   32    32     1     0     0
SMALL
NO_CHARGE

@<TRIPOS>ATOM
      1 C           3.6946   26.4470   32.5892 C.3       1 MOL     0.0072
      2 C           3.8489   26.0090   34.0155 C.3       1 MOL    -0.0128
      3 C           4.0306   27.1880   34.9174 C.3       1 MOL     0.0072
      4 C           2.6392   25.2143   34.4216 C.3       1 MOL     0.0379
      5 C           1.9920   24.5838   33.2452 C.ar      1 MOL    -0.0471
      6 C           0.8169   25.1219   32.7741 C.ar      1 MOL     0.0037
      7 C           0.1858   24.5744   31.6940 C.ar      1 MOL     0.0044
      8 C           0.7134   23.4767   31.0590 C.ar      1 MOL    -0.0391
      9 C           1.8859   22.9315   31.5199 C.ar      1 MOL     0.0044
     10 C           2.5209   23.4859   32.6107 C.ar      1 MOL     0.0037
     11 C           0.0534   22.8666   29.8924 C.3       1 MOL     0.0614
     12 C          -0.3208   21.4232   30.2280 C.3       1 MOL     0.0185
     13 C          -1.1764   23.6648   29.6133 C.2       1 MOL     0.0489
     14 O          -2.2883   23.1202   29.5536 O.co2     1 MOL    -0.5492
     15 O          -1.0547   25.0117   29.4239 O.co2     1 MOL    -0.5492
     16 H           4.5542   27.0138   32.2956 H         1 MOL     0.0232
     17 H           2.8182   27.0536   32.4949 H         1 MOL     0.0232
     18 H           3.6028   25.5865   31.9604 H         1 MOL     0.0232
     19 H           4.7213   25.3967   34.1027 H         1 MOL     0.0299
     20 H           3.1709   27.8220   34.8525 H         1 MOL     0.0232
     21 H           4.8999   27.7350   34.6181 H         1 MOL     0.0232
     22 H           4.1500   26.8516   35.9260 H         1 MOL     0.0232
     23 H           1.9376   25.8656   34.8989 H         1 MOL     0.0316
     24 H           2.9517   24.4407   35.0914 H         1 MOL     0.0316
     25 H           0.4082   25.9463   33.2416 H         1 MOL     0.0620
     26 H          -0.6957   24.9893   31.3522 H         1 MOL     0.0621
     27 H           2.2924   22.1071   31.0502 H         1 MOL     0.0621
     28 H           3.4020   23.0729   32.9547 H         1 MOL     0.0620
     29 H           0.6965   22.8624   29.0370 H         1 MOL     0.0406
     30 H          -0.9644   21.4114   31.0829 H         1 MOL     0.0239
     31 H           0.5675   20.8662   30.4429 H         1 MOL     0.0239
     32 H          -0.8253   20.9826   29.3940 H         1 MOL     0.0239
@<TRIPOS>BOND
     1    1    2 1 
     2    1   16 1 
     3    1   17 1 
     4    1   18 1 
     5    2    3 1 
     6    2    4 1 
     7    2   19 1 
     8    3   20 1 
     9    3   21 1 
    10    3   22 1 
    11    4    5 1 
    12    4   23 1 
    13    4   24 1 
    14    5    6 ar
    15    5   10 ar
    16    6    7 ar
    17    6   25 1 
    18    7    8 ar
    19    7   26 1 
    20    8    9 ar
    21    8   11 1 
    22    9   10 ar
    23    9   27 1 
    24   10   28 1 
    25   11   12 1 
    26   11   13 1 
    27   11   29 1 
    28   12   30 1 
    29   12   31 1 
    30   12   32 1 
    31   13   14 ar
    32   13   15 ar
@<TRIPOS>SUBSTRUCTURE
1 MOL         1
@<TRIPOS>MOLECULE
query molecule
   32    32     1     0     0
SMALL
NO_CHARGE

@<TRIPOS>ATOM
      1 C          16.3020   23.8633    5.8398 C.3       1 MOL     0.0072
      2 C          17.2617   23.1654    6.7573 C.3       1 MOL    -0.0128
      3 C          17.0881   21.6820    6.6804 C.3       1 MOL     0.0072
      4 C          18.6667   23.5528    6.3894 C.3       1 MOL     0.0379
      5 C          19.5387   23.6096    7.5880 C.ar      1 MOL    -0.0471
      6 C          18.9512   23.5704    8.8312 C.ar      1 MOL     0.0037
      7 C          19.7144   23.6203    9.9625 C.ar      1 MOL     0.0044
      8 C          21.0824   23.7106    9.8788 C.ar      1 MOL    -0.0391
      9 C          21.6799   23.7499    8.6434 C.ar      1 MOL     0.0044
     10 C          20.9072   23.6998    7.5030 C.ar      1 MOL     0.0037
     11 C          21.9290   23.7659   11.0825 C.3       1 MOL     0.0614
     12 C          21.3540   24.7994   12.0507 C.3       1 MOL     0.0185
     13 C          21.9025   22.4091   11.7036 C.2       1 MOL     0.0489
     14 O          20.9908   21.6096   11.4469 O.co2     1 MOL    -0.5492
     15 O          22.9049   22.0624   12.5638 O.co2     1 MOL    -0.5492
     16 H          15.2995   23.5899    6.0982 H         1 MOL     0.0232
     17 H          16.5009   23.5750    4.8288 H         1 MOL     0.0232
     18 H          16.4200   24.9217    5.9393 H         1 MOL     0.0232
     19 H          17.0639   23.4630    7.7652 H         1 MOL     0.0299
     20 H          17.2800   21.3522    5.6805 H         1 MOL     0.0232
     21 H          16.0859   21.4258    6.9536 H         1 MOL     0.0232
     22 H          17.7735   21.2066    7.3503 H         1 MOL     0.0232
     23 H          18.6527   24.5149    5.9219 H         1 MOL     0.0316
     24 H          19.0575   22.8144    5.7210 H         1 MOL     0.0316
     25 H          17.9243   23.5033    8.9098 H         1 MOL     0.0620
     26 H          19.2589   23.5901   10.8884 H         1 MOL     0.0621
     27 H          22.7072   23.8168    8.5680 H         1 MOL     0.0621
     28 H          21.3599   23.7301    6.5760 H         1 MOL     0.0620
     29 H          22.9335   24.0456   10.8418 H         1 MOL     0.0406
     30 H          20.3482   24.5328   12.3007 H         1 MOL     0.0239
     31 H          21.3624   25.7642   11.5874 H         1 MOL     0.0239
     32 H          21.9489   24.8250   12.9393 H         1 MOL     0.0239
@<TRIPOS>BOND
     1    1    2 1 
     2    1   16 1 
     3    1   17 1 
     4    1   18 1 
     5    2    3 1 
     6    2    4 1 
     7    2   19 1 
     8    3   20 1 
     9    3   21 1 
    10    3   22 1 
    11    4    5 1 
    12    4   23 1 
    13    4   24 1 
    14    5    6 ar
    15    5   10 ar
    16    6    7 ar
    17    6   25 1 
    18    7    8 ar
    19    7   26 1 
    20    8    9 ar
    21    8   11 1 
    22    9   10 ar
    23    9   27 1 
    24   10   28 1 
    25   11   12 1 
    26   11   13 1 
    27   11   29 1 
    28   12   30 1 
    29   12   31 1 
    30   12   32 1 
    31   13   14 ar
    32   13   15 ar
@<TRIPOS>SUBSTRUCTURE
1 MOL         1
@<TRIPOS>MOLECULE
query molecule
   32    32     1     0     0
SMALL
NO_CHARGE

@<TRIPOS>ATOM
      1 C           2.5051   20.6007   -2.6641 C.3       1 MOL     0.0072
      2 C           3.4467   21.3039   -3.5963 C.3       1 MOL    -0.0128
      3 C           4.8680   20.9881   -3.2549 C.3       1 MOL     0.0072
      4 C           3.1392   20.8951   -5.0097 C.3       1 MOL     0.0379
      5 C           3.6714   19.5423   -5.3046 C.ar      1 MOL    -0.0471
      6 C           4.7419   19.4290   -6.1611 C.ar      1 MOL     0.0037
      7 C           5.2648   18.2039   -6.4617 C.ar      1 MOL     0.0044
      8 C           4.7309   17.0630   -5.9140 C.ar      1 MOL    -0.0391
      9 C           3.6628   17.1638   -5.0574 C.ar      1 MOL     0.0044
     10 C           3.1365   18.4018   -4.7559 C.ar      1 MOL     0.0037
     11 C           5.2754   15.7297   -6.2211 C.3       1 MOL     0.0614
     12 C           4.8995   14.7652   -5.0965 C.3       1 MOL     0.0185
     13 C           4.6590   15.2862   -7.5059 C.2       1 MOL     0.0489
     14 O           5.3596   14.8465   -8.4292 O.co2     1 MOL    -0.5492
     15 O           3.3036   15.3738   -7.6474 O.co2     1 MOL    -0.5492
     16 H           2.7207   20.8889   -1.6557 H         1 MOL     0.0232
     17 H           2.6258   19.5425   -2.7660 H         1 MOL     0.0232
     18 H           1.4983   20.8703   -2.9046 H         1 MOL     0.0232
     19 H           3.3164   22.3606   -3.4962 H         1 MOL     0.0299
     20 H           5.0306   19.9343   -3.3461 H         1 MOL     0.0232
     21 H           5.0695   21.2939   -2.2497 H         1 MOL     0.0232
     22 H           5.5206   21.5087   -3.9241 H         1 MOL     0.0232
     23 H           3.5833   21.5991   -5.6815 H         1 MOL     0.0316
     24 H           2.0765   20.8752   -5.1327 H         1 MOL     0.0316
     25 H           5.1531   20.2775   -6.5809 H         1 MOL     0.0620
     26 H           6.0682   18.1350   -7.1064 H         1 MOL     0.0621
     27 H           3.2538   16.3135   -4.6390 H         1 MOL     0.0621
     28 H           2.3332   18.4735   -4.1120 H         1 MOL     0.0620
     29 H           6.3417   15.7532   -6.3083 H         1 MOL     0.0406
     30 H           3.8345   14.7314   -4.9970 H         1 MOL     0.0239
     31 H           5.3327   15.1035   -4.1781 H         1 MOL     0.0239
     32 H           5.2687   13.7880   -5.3267 H         1 MOL     0.0239
@<TRIPOS>BOND
     1    1    2 1 
     2    1   16 1 
     3    1   17 1 
     4    1   18 1 
     5    2    3 1 
     6    2    4 1 
     7    2   19 1 
     8    3   20 1 
     9    3   21 1 
    10    3   22 1 
    11    4    5 1 
    12    4   23 1 
    13    4   24 1 
    14    5    6 ar
    15    5   10 ar
    16    6    7 ar
    17    6   25 1 
    18    7    8 ar
    19    7   26 1 
    20    8    9 ar
    21    8   11 1 
    22    9   10 ar
    23    9   27 1 
    24   10   28 1 
    25   11   12 1 
    26   11   13 1 
    27   11   29 1 
    28   12   30 1 
    29   12   31 1 
    30   12   32 1 
    31   13   14 ar
    32   13   15 ar
@<TRIPOS>SUBSTRUCTURE
1 MOL         1
@<TRIPOS>MOLECULE
query molecule
   32    32     1     0     0
SMALL
NO_CHARGE

@<TRIPOS>ATOM
      1 C          20.5767    0.7547   26.3257 C.3       1 MOL     0.0072
      2 C          21.0230   -0.4556   27.0912 C.3       1 MOL    -0.0128
      3 C          21.8692   -1.3438   26.2359 C.3       1 MOL     0.0072
      4 C          21.7834   -0.0156   28.3109 C.3       1 MOL     0.0379
      5 C          21.1380   -0.5087   29.5521 C.ar      1 MOL    -0.0471
      6 C          21.1920    0.2786   30.6789 C.ar      1 MOL     0.0037
      7 C          20.6120   -0.1349   31.8440 C.ar      1 MOL     0.0044
      8 C          19.9644   -1.3443   31.9111 C.ar      1 MOL    -0.0391
      9 C          19.9036   -2.1382   30.7928 C.ar      1 MOL     0.0044
     10 C          20.4903   -1.7187   29.6180 C.ar      1 MOL     0.0037
     11 C          19.3306   -1.8142   33.1546 C.3       1 MOL     0.0614
     12 C          18.2784   -2.8685   32.8117 C.3       1 MOL     0.0185
     13 C          20.4050   -2.4156   33.9980 C.2       1 MOL     0.0489
     14 O          20.1974   -2.6975   35.1871 O.co2     1 MOL    -0.5492
     15 O          21.6264   -2.6508   33.4343 O.co2     1 MOL    -0.5492
     16 H          20.0346    0.4459   25.4555 H         1 MOL     0.0232
     17 H          21.4320    1.3250   26.0292 H         1 MOL     0.0232
     18 H          19.9444    1.3549   26.9456 H         1 MOL     0.0232
     19 H          20.1643   -1.0176   27.3919 H         1 MOL     0.0299
     20 H          22.7396   -0.8083   25.9181 H         1 MOL     0.0232
     21 H          21.3085   -1.6528   25.3788 H         1 MOL     0.0232
     22 H          22.1658   -2.2045   26.7980 H         1 MOL     0.0232
     23 H          21.8162    1.0533   28.3353 H         1 MOL     0.0316
     24 H          22.7717   -0.4221   28.2586 H         1 MOL     0.0316
     25 H          21.6758    1.1896   30.6437 H         1 MOL     0.0620
     26 H          20.6611    0.4670   32.6814 H         1 MOL     0.0621
     27 H          19.4189   -3.0487   30.8310 H         1 MOL     0.0621
     28 H          20.4429   -2.3184   28.7795 H         1 MOL     0.0620
     29 H          18.8522   -1.0121   33.6772 H         1 MOL     0.0406
     30 H          18.7426   -3.6780   32.2877 H         1 MOL     0.0239
     31 H          17.5236   -2.4296   32.1929 H         1 MOL     0.0239
     32 H          17.8332   -3.2340   33.7130 H         1 MOL     0.0239
@<TRIPOS>BOND
     1    1    2 1 
     2    1   16 1 
     3    1   17 1 
     4    1   18 1 
     5    2    3 1 
     6    2    4 1 
     7    2   19 1 
     8    3   20 1 
     9    3   21 1 
    10    3   22 1 
    11    4    5 1 
    12    4   23 1 
    13    4   24 1 
    14    5    6 ar
    15    5   10 ar
    16    6    7 ar
    17    6   25 1 
    18    7    8 ar
    19    7   26 1 
    20    8    9 ar
    21    8   11 1 
    22    9   10 ar
    23    9   27 1 
    24   10   28 1 
    25   11   12 1 
    26   11   13 1 
    27   11   29 1 
    28   12   30 1 
    29   12   31 1 
    30   12   32 1 
    31   13   14 ar
    32   13   15 ar
@<TRIPOS>SUBSTRUCTURE
1 MOL         1
@<TRIPOS>MOLECULE
query molecule
   32    32     1     0     0
SMALL
NO_CHARGE

@<TRIPOS>ATOM
      1 C           1.7944   28.1568   11.2205 C.3       1 MOL     0.0072
      2 C           2.2125   27.5192    9.9288 C.3       1 MOL    -0.0128
      3 C           3.6473   27.8158    9.6289 C.3       1 MOL     0.0072
      4 C           1.9862   26.0356   10.0145 C.3       1 MOL     0.0379
      5 C           0.6020   25.6804    9.6169 C.ar      1 MOL    -0.0471
      6 C          -0.4004   25.7931   10.5522 C.ar      1 MOL     0.0037
      7 C          -1.6894   25.4768   10.2309 C.ar      1 MOL     0.0044
      8 C          -2.0076   25.0405    8.9680 C.ar      1 MOL    -0.0391
      9 C          -1.0156   24.9247    8.0261 C.ar      1 MOL     0.0044
     10 C           0.2849   25.2442    8.3531 C.ar      1 MOL     0.0037
     11 C          -3.3892   24.6929    8.5951 C.3       1 MOL     0.0614
     12 C          -4.1772   24.3514    9.8594 C.3       1 MOL     0.0185
     13 C          -3.9809   25.8898    7.9281 C.2       1 MOL     0.0489
     14 O          -4.7227   25.7671    6.9426 O.co2     1 MOL    -0.5492
     15 O          -3.6896   27.1280    8.4248 O.co2     1 MOL    -0.5492
     16 H           1.9542   29.2140   11.1641 H         1 MOL     0.0232
     17 H           2.3742   27.7510   12.0230 H         1 MOL     0.0232
     18 H           0.7573   27.9615   11.3948 H         1 MOL     0.0232
     19 H           1.6247   27.9224    9.1315 H         1 MOL     0.0299
     20 H           4.2632   27.4235   10.4112 H         1 MOL     0.0232
     21 H           3.7862   28.8746    9.5634 H         1 MOL     0.0232
     22 H           3.9195   27.3617    8.6992 H         1 MOL     0.0232
     23 H           2.1537   25.7143   11.0210 H         1 MOL     0.0316
     24 H           2.6658   25.5503    9.3457 H         1 MOL     0.0316
     25 H          -0.1762   26.1189   11.5055 H         1 MOL     0.0620
     26 H          -2.4307   25.5663   10.9439 H         1 MOL     0.0621
     27 H          -1.2429   24.5988    7.0735 H         1 MOL     0.0621
     28 H           1.0280   25.1554    7.6425 H         1 MOL     0.0620
     29 H          -3.4164   23.8489    7.9377 H         1 MOL     0.0406
     30 H          -4.1587   25.1872   10.5276 H         1 MOL     0.0239
     31 H          -3.7329   23.5031   10.3373 H         1 MOL     0.0239
     32 H          -5.1894   24.1245    9.5982 H         1 MOL     0.0239
@<TRIPOS>BOND
     1    1    2 1 
     2    1   16 1 
     3    1   17 1 
     4    1   18 1 
     5    2    3 1 
     6    2    4 1 
     7    2   19 1 
     8    3   20 1 
     9    3   21 1 
    10    3   22 1 
    11    4    5 1 
    12    4   23 1 
    13    4   24 1 
    14    5    6 ar
    15    5   10 ar
    16    6    7 ar
    17    6   25 1 
    18    7    8 ar
    19    7   26 1 
    20    8    9 ar
    21    8   11 1 
    22    9   10 ar
    23    9   27 1 
    24   10   28 1 
    25   11   12 1 
    26   11   13 1 
    27   11   29 1 
    28   12   30 1 
    29   12   31 1 
    30   12   32 1 
    31   13   14 ar
    32   13   15 ar
@<TRIPOS>SUBSTRUCTURE
1 MOL         1
