@<TRIPOS>MOLECULE
query molecule
   32    32     1     0     0
SMALL
NO_CHARGE

@<TRIPOS>ATOM
      1 C           0.5508    9.0415   30.5671 C.3       1 MOL     0.0072
      2 C           1.9528    9.4131   31.1133 C.3       1 MOL    -0.0128
      3 C           2.3850    8.4579   32.2537 C.3       1 MOL     0.0072
      4 C           2.9986    9.4946   29.9755 C.3       1 MOL     0.0379
      5 C           4.0476   10.5080   30.2721 C.ar      1 MOL    -0.0471
      6 C           5.3959   10.1571   30.1539 C.ar      1 MOL     0.0037
      7 C           6.3931   11.0924   30.4385 C.ar      1 MOL     0.0044
      8 C           6.0614   12.4004   30.8485 C.ar      1 MOL    -0.0391
      9 C           4.7007   12.7381   30.9433 C.ar      1 MOL     0.0044
     10 C           3.7052   11.8081   30.6558 C.ar      1 MOL     0.0037
     11 C           7.1478   13.3993   31.1331 C.3       1 MOL     0.0614
     12 C           6.6984   14.5299   32.0841 C.3       1 MOL     0.0185
     13 C           8.3765   12.7100   31.7274 C.2       1 MOL     0.0489
     14 O           8.4143   12.5038   32.9760 O.co2     1 MOL    -0.5492
     15 O           9.2672   12.4050   30.8790 O.co2     1 MOL    -0.5492
     16 H          -0.1887    9.0252   31.3961 H         1 MOL     0.0232
     17 H           0.5705    8.0419   30.0875 H         1 MOL     0.0232
     18 H           0.2208    9.7923   29.8184 H         1 MOL     0.0232
     19 H           1.8629   10.4402   31.5540 H         1 MOL     0.0299
     20 H           2.4847    7.4215   31.8668 H         1 MOL     0.0232
     21 H           1.6289    8.4590   33.0668 H         1 MOL     0.0232
     22 H           3.3615    8.7723   32.6775 H         1 MOL     0.0232
     23 H           2.4979    9.8235   29.0374 H         1 MOL     0.0316
     24 H           3.4840    8.5148   29.8065 H         1 MOL     0.0316
     25 H           5.6655    9.1586   29.8430 H         1 MOL     0.0620
     26 H           7.4331   10.8107   30.3407 H         1 MOL     0.0621
     27 H           4.4241   13.7404   31.2418 H         1 MOL     0.0621
     28 H           2.6666   12.0929   30.7362 H         1 MOL     0.0620
     29 H           7.4616   13.8750   30.1682 H         1 MOL     0.0406
     30 H           6.3636   14.0970   33.0519 H         1 MOL     0.0239
     31 H           5.8467   15.0912   31.6456 H         1 MOL     0.0239
     32 H           7.5262   15.2404   32.2821 H         1 MOL     0.0239
@<TRIPOS>BOND
     1    1    2 1 
     2    1   16 1 
     3    1   17 1 
     4    1   18 1 
     5    2    3 1 
     6    2    4 1 
     7    2   19 1 
     8    3   20 1 
     9    3   21 1 
    10    3   22 1 
    11    4    5 1 
    12    4   23 1 
    13    4   24 1 
    14    5    6 ar
    15    5   10 ar
    16    6    7 ar
    17    6   25 1 
    18    7    8 ar
    19    7   26 1 
    20    8    9 ar
    21    8   11 1 
    22    9   10 ar
    23    9   27 1 
    24   10   28 1 
    25   11   12 1 
    26   11   13 1 
    27   11   29 1 
    28   12   30 1 
    29   12   31 1 
    30   12   32 1 
    31   13   14 ar
    32   13   15 ar
@<TRIPOS>SUBSTRUCTURE
1 MOL         1
@<TRIPOS>MOLECULE
query molecule
   32    32     1     0     0
SMALL
NO_CHARGE

@<TRIPOS>ATOM
      1 C           3.1198   11.6381   -3.9041 C.3       1 MOL     0.0072
      2 C           4.5490   11.0712   -4.0788 C.3       1 MOL    -0.0128
      3 C           5.5751   12.1702   -4.4394 C.3       1 MOL     0.0072
      4 C           4.9821   10.2664   -2.8398 C.3       1 MOL     0.0379
      5 C           5.7018    9.0490   -3.2861 C.ar      1 MOL    -0.0471
      6 C           4.9728    7.8974   -3.5978 C.ar      1 MOL     0.0037
      7 C           5.6414    6.7375   -3.9980 C.ar      1 MOL     0.0044
      8 C           7.0430    6.7216   -4.0624 C.ar      1 MOL    -0.0391
      9 C           7.7620    7.8951   -3.7905 C.ar      1 MOL     0.0044
     10 C           7.0935    9.0541   -3.3907 C.ar      1 MOL     0.0037
     11 C           7.7109    5.4222   -4.3891 C.3       1 MOL     0.0614
     12 C           8.4453    5.5343   -5.7295 C.3       1 MOL     0.0185
     13 C           8.6553    5.0764   -3.2479 C.2       1 MOL     0.0489
     14 O           8.1035    4.5296   -2.2483 O.co2     1 MOL    -0.5492
     15 O           9.8683    5.4317   -3.3307 O.co2     1 MOL    -0.5492
     16 H           2.8000   12.1677   -4.8263 H         1 MOL     0.0232
     17 H           3.0862   12.3490   -3.0532 H         1 MOL     0.0232
     18 H           2.4050   10.8114   -3.7058 H         1 MOL     0.0232
     19 H           4.5137   10.3548   -4.9383 H         1 MOL     0.0299
     20 H           5.6498   12.9124   -3.6171 H         1 MOL     0.0232
     21 H           5.2688   12.6976   -5.3674 H         1 MOL     0.0232
     22 H           6.5780   11.7217   -4.6027 H         1 MOL     0.0232
     23 H           4.0988    9.9347   -2.2516 H         1 MOL     0.0316
     24 H           5.6611   10.8552   -2.1884 H         1 MOL     0.0316
     25 H           3.8957    7.9034   -3.5299 H         1 MOL     0.0620
     26 H           5.0791    5.8473   -4.2369 H         1 MOL     0.0621
     27 H           8.8388    7.8961   -3.8753 H         1 MOL     0.0621
     28 H           7.6529    9.9518   -3.1743 H         1 MOL     0.0620
     29 H           6.9439    4.6152   -4.4741 H         1 MOL     0.0406
     30 H           9.2258    6.3218   -5.6880 H         1 MOL     0.0239
     31 H           7.7214    5.7945   -6.5323 H         1 MOL     0.0239
     32 H           8.9251    4.5675   -5.9896 H         1 MOL     0.0239
@<TRIPOS>BOND
     1    1    2 1 
     2    1   16 1 
     3    1   17 1 
     4    1   18 1 
     5    2    3 1 
     6    2    4 1 
     7    2   19 1 
     8    3   20 1 
     9    3   21 1 
    10    3   22 1 
    11    4    5 1 
    12    4   23 1 
    13    4   24 1 
    14    5    6 ar
    15    5   10 ar
    16    6    7 ar
    17    6   25 1 
    18    7    8 ar
    19    7   26 1 
    20    8    9 ar
    21    8   11 1 
    22    9   10 ar
    23    9   27 1 
    24   10   28 1 
    25   11   12 1 
    26   11   13 1 
    27   11   29 1 
    28   12   30 1 
    29   12   31 1 
    30   12   32 1 
    31   13   14 ar
    32   13   15 ar
@<TRIPOS>SUBSTRUCTURE
1 MOL         1
@<TRIPOS>MOLECULE
query molecule
   32    32     1     0     0
SMALL
NO_CHARGE

@<TRIPOS>ATOM
      1 C          10.1440   23.2046    2.5313 C.3       1 MOL     0.0072
      2 C          10.3459   21.7693    3.0831 C.3       1 MOL    -0.0128
      3 C           9.2799   21.4581    4.1614 C.3       1 MOL     0.0072
      4 C          10.3741   20.6761    1.9855 C.3       1 MOL     0.0379
      5 C          11.7219   20.4935    1.3699 C.ar      1 MOL    -0.0471
      6 C          12.5010   21.5722    0.9427 C.ar      1 MOL     0.0037
      7 C          13.7401   21.3628    0.3402 C.ar      1 MOL     0.0044
      8 C          14.2248   20.0618    0.1450 C.ar      1 MOL    -0.0391
      9 C          13.4598   18.9765    0.5843 C.ar      1 MOL     0.0044
     10 C          12.2205   19.1923    1.1956 C.ar      1 MOL     0.0037
     11 C          15.5484   19.9190   -0.5404 C.3       1 MOL     0.0614
     12 C          16.5198   19.2259    0.4317 C.3       1 MOL     0.0185
     13 C          15.4307   19.1668   -1.8687 C.2       1 MOL     0.0489
     14 O          14.2933   19.1578   -2.4181 O.co2     1 MOL    -0.5492
     15 O          16.4987   18.6592   -2.3274 O.co2     1 MOL    -0.5492
     16 H          10.2200   23.9491    3.3523 H         1 MOL     0.0232
     17 H           9.1425   23.3033    2.0600 H         1 MOL     0.0232
     18 H          10.9172   23.4383    1.7707 H         1 MOL     0.0232
     19 H          11.3401   21.7402    3.5987 H         1 MOL     0.0299
     20 H           8.2594   21.4926    3.7259 H         1 MOL     0.0232
     21 H           9.3347   22.2056    4.9823 H         1 MOL     0.0232
     22 H           9.4463   20.4499    4.5953 H         1 MOL     0.0232
     23 H           9.6464   20.9059    1.1815 H         1 MOL     0.0316
     24 H          10.1062   19.6963    2.4439 H         1 MOL     0.0316
     25 H          12.1396   22.5812    1.0800 H         1 MOL     0.0620
     26 H          14.3322   22.2074    0.0183 H         1 MOL     0.0621
     27 H          13.8237   17.9687    0.4449 H         1 MOL     0.0621
     28 H          11.6349   18.3463    1.5280 H         1 MOL     0.0620
     29 H          15.9561   20.9364   -0.7697 H         1 MOL     0.0406
     30 H          16.1709   18.2025    0.6756 H         1 MOL     0.0239
     31 H          16.5809   19.8136    1.3741 H         1 MOL     0.0239
     32 H          17.5372   19.1652   -0.0081 H         1 MOL     0.0239
@<TRIPOS>BOND
     1    1    2 1 
     2    1   16 1 
     3    1   17 1 
     4    1   18 1 
     5    2    3 1 
     6    2    4 1 
     7    2   19 1 
     8    3   20 1 
     9    3   21 1 
    10    3   22 1 
    11    4    5 1 
    12    4   23 1 
    13    4   24 1 
    14    5    6 ar
    15    5   10 ar
    16    6    7 ar
    17    6   25 1 
    18    7    8 ar
    19    7   26 1 
    20    8    9 ar
    21    8   11 1 
    22    9   10 ar
    23    9   27 1 
    24   10   28 1 
    25   11   12 1 
    26   11   13 1 
    27   11   29 1 
    28   12   30 1 
    29   12   31 1 
    30   12   32 1 
    31   13   14 ar
    32   13   15 ar
@<TRIPOS>SUBSTRUCTURE
1 MOL         1
@<TRIPOS>MOLECULE
query molecule
   32    32     1     0     0
SMALL
NO_CHARGE

@<TRIPOS>ATOM
      1 C          19.3863   -0.9637   12.0319 C.3       1 MOL     0.0072
      2 C          18.2409   -0.5660   12.9998 C.3       1 MOL    -0.0128
      3 C          18.0318   -1.6589   14.0838 C.3       1 MOL     0.0072
      4 C          18.4560    0.8259   13.6459 C.3       1 MOL     0.0379
      5 C          18.1041    1.9154   12.6970 C.ar      1 MOL    -0.0471
      6 C          19.0869    2.5326   11.9161 C.ar      1 MOL     0.0037
      7 C          18.7447    3.5723   11.0458 C.ar      1 MOL     0.0044
      8 C          17.4145    4.0086   10.9473 C.ar      1 MOL    -0.0391
      9 C          16.4450    3.3825   11.7378 C.ar      1 MOL     0.0044
     10 C          16.7765    2.3406   12.6019 C.ar      1 MOL     0.0037
     11 C          17.0971    5.1044    9.9856 C.3       1 MOL     0.0614
     12 C          16.1616    4.5302    8.9048 C.3       1 MOL     0.0185
     13 C          16.3994    6.3061   10.6244 C.2       1 MOL     0.0489
     14 O          16.8889    7.4156   10.2540 O.co2     1 MOL    -0.5492
     15 O          15.4077    6.1343   11.3878 O.co2     1 MOL    -0.5492
     16 H          19.1751   -1.9517   11.5713 H         1 MOL     0.0232
     17 H          20.3476   -1.0334   12.5842 H         1 MOL     0.0232
     18 H          19.4947   -0.2110   11.2241 H         1 MOL     0.0232
     19 H          17.2939   -0.5159   12.4031 H         1 MOL     0.0299
     20 H          18.9293   -1.7473   14.7301 H         1 MOL     0.0232
     21 H          17.8339   -2.6428   13.6091 H         1 MOL     0.0232
     22 H          17.1611   -1.3967   14.7222 H         1 MOL     0.0232
     23 H          19.5051    0.9613   13.9711 H         1 MOL     0.0316
     24 H          17.7799    0.9393   14.5218 H         1 MOL     0.0316
     25 H          20.1148    2.2089   11.9849 H         1 MOL     0.0620
     26 H          19.5056    4.0459   10.4419 H         1 MOL     0.0621
     27 H          15.4156    3.7076   11.6751 H         1 MOL     0.0621
     28 H          16.0110    1.8677   13.1995 H         1 MOL     0.0620
     29 H          18.0302    5.4516    9.4715 H         1 MOL     0.0406
     30 H          15.2221    4.1692    9.3746 H         1 MOL     0.0239
     31 H          16.6410    3.6729    8.3858 H         1 MOL     0.0239
     32 H          15.9026    5.2999    8.1488 H         1 MOL     0.0239
@<TRIPOS>BOND
     1    1    2 1 
     2    1   16 1 
     3    1   17 1 
     4    1   18 1 
     5    2    3 1 
     6    2    4 1 
     7    2   19 1 
     8    3   20 1 
     9    3   21 1 
    10    3   22 1 
    11    4    5 1 
    12    4   23 1 
    13    4   24 1 
    14    5    6 ar
    15    5   10 ar
    16    6    7 ar
    17    6   25 1 
    18    7    8 ar
    19    7   26 1 
    20    8    9 ar
    21    8   11 1 
    22    9   10 ar
    23    9   27 1 
    24   10   28 1 
    25   11   12 1 
    26   11   13 1 
    27   11   29 1 
    28   12   30 1 
    29   12   31 1 
    30   12   32 1 
    31   13   14 ar
    32   13   15 ar
@<TRIPOS>SUBSTRUCTURE
1 MOL         1
@<TRIPOS>MOLECULE
query molecule
   32    32     1     0     0
SMALL
NO_CHARGE

@<TRIPOS>ATOM
      1 C           4.5263   -2.2197   18.2729 C.3       1 MOL     0.0072
      2 C           3.9894   -3.6498   18.5425 C.3       1 MOL    -0.0128
      3 C           3.5613   -4.3261   17.2165 C.3       1 MOL     0.0072
      4 C           4.9762   -4.5424   19.3333 C.3       1 MOL     0.0379
      5 C           5.0286   -4.1988   20.7839 C.ar      1 MOL    -0.0471
      6 C           6.0240   -3.3451   21.2749 C.ar      1 MOL     0.0037
      7 C           6.0891   -3.0587   22.6431 C.ar      1 MOL     0.0044
      8 C           5.1569   -3.6152   23.5464 C.ar      1 MOL    -0.0391
      9 C           4.1595   -4.4569   23.0414 C.ar      1 MOL     0.0044
     10 C           4.0978   -4.7535   21.6751 C.ar      1 MOL     0.0037
     11 C           5.2795   -3.2672   24.9955 C.3       1 MOL     0.0614
     12 C           4.5200   -1.9545   25.2269 C.3       1 MOL     0.0185
     13 C           4.7838   -4.3295   25.9754 C.2       1 MOL     0.0489
     14 O           5.6638   -5.1464   26.3654 O.co2     1 MOL    -0.5492
     15 O           3.5813   -4.2877   26.3706 O.co2     1 MOL    -0.5492
     16 H           3.7527   -1.6110   17.7521 H         1 MOL     0.0232
     17 H           5.4297   -2.2636   17.6349 H         1 MOL     0.0232
     18 H           4.7848   -1.7174   19.2279 H         1 MOL     0.0232
     19 H           3.0640   -3.5508   19.1685 H         1 MOL     0.0299
     20 H           4.4387   -4.4715   16.5532 H         1 MOL     0.0232
     21 H           2.8138   -3.6984   16.6873 H         1 MOL     0.0232
     22 H           3.1050   -5.3176   17.4234 H         1 MOL     0.0232
     23 H           5.9996   -4.4683   18.9153 H         1 MOL     0.0316
     24 H           4.6375   -5.6023   19.2718 H         1 MOL     0.0316
     25 H           6.7426   -2.9130   20.5931 H         1 MOL     0.0620
     26 H           6.8661   -2.4007   23.0081 H         1 MOL     0.0621
     27 H           3.4316   -4.8848   23.7168 H         1 MOL     0.0621
     28 H           3.3255   -5.4138   21.3040 H         1 MOL     0.0620
     29 H           6.3590   -3.0756   25.2280 H         1 MOL     0.0406
     30 H           3.4316   -2.1089   25.0128 H         1 MOL     0.0239
     31 H           4.8959   -1.1582   24.5562 H         1 MOL     0.0239
     32 H           4.6255   -1.6199   26.2784 H         1 MOL     0.0239
@<TRIPOS>BOND
     1    1    2 1 
     2    1   16 1 
     3    1   17 1 
     4    1   18 1 
     5    2    3 1 
     6    2    4 1 
     7    2   19 1 
     8    3   20 1 
     9    3   21 1 
    10    3   22 1 
    11    4    5 1 
    12    4   23 1 
    13    4   24 1 
    14    5    6 ar
    15    5   10 ar
    16    6    7 ar
    17    6   25 1 
    18    7    8 ar
    19    7   26 1 
    20    8    9 ar
    21    8   11 1 
    22    9   10 ar
    23    9   27 1 
    24   10   28 1 
    25   11   12 1 
    26   11   13 1 
    27   11   29 1 
    28   12   30 1 
    29   12   31 1 
    30   12   32 1 
    31   13   14 ar
    32   13   15 ar
@<TRIPOS>SUBSTRUCTURE
1 MOL         1
@<TRIPOS>MOLECULE
query molecule
   32    32     1     0     0
SMALL
NO_CHARGE

@<TRIPOS>ATOM
      1 C           5.6450   18.4463   -4.3764 C.3       1 MOL     0.0072
      2 C           4.7348   18.8753   -3.1976 C.3       1 MOL    -0.0128
      3 C           4.0019   17.6528   -2.5830 C.3       1 MOL     0.0072
      4 C           5.4966   19.6623   -2.1102 C.3       1 MOL     0.0379
      5 C           5.9930   20.9779   -2.5889 C.ar      1 MOL    -0.0471
      6 C           7.3450   21.2954   -2.4119 C.ar      1 MOL     0.0037
      7 C           7.8397   22.5243   -2.8524 C.ar      1 MOL     0.0044
      8 C           6.9920   23.4534   -3.4723 C.ar      1 MOL    -0.0391
      9 C           5.6353   23.1301   -3.6397 C.ar      1 MOL     0.0044
     10 C           5.1395   21.9009   -3.1997 C.ar      1 MOL     0.0037
     11 C           7.4688   24.7862   -3.9602 C.3       1 MOL     0.0614
     12 C           8.2644   25.4916   -2.8444 C.3       1 MOL     0.0185
     13 C           8.3633   24.6480   -5.1970 C.2       1 MOL     0.0489
     14 O           9.4624   24.0417   -5.0605 O.co2     1 MOL    -0.5492
     15 O           7.9061   25.1563   -6.2609 O.co2     1 MOL    -0.5492
     16 H           5.0495   17.9267   -5.1551 H         1 MOL     0.0232
     17 H           6.4403   17.7603   -4.0174 H         1 MOL     0.0232
     18 H           6.1237   19.3381   -4.8324 H         1 MOL     0.0232
     19 H           3.9479   19.5569   -3.6114 H         1 MOL     0.0299
     20 H           4.7360   16.9468   -2.1413 H         1 MOL     0.0232
     21 H           3.4201   17.1182   -3.3631 H         1 MOL     0.0232
     22 H           3.3039   17.9838   -1.7855 H         1 MOL     0.0232
     23 H           6.3652   19.0773   -1.7409 H         1 MOL     0.0316
     24 H           4.8135   19.8662   -1.2516 H         1 MOL     0.0316
     25 H           8.0053   20.5879   -1.9323 H         1 MOL     0.0620
     26 H           8.8850   22.7621   -2.7117 H         1 MOL     0.0621
     27 H           4.9689   23.8358   -4.1164 H         1 MOL     0.0621
     28 H           4.0944   21.6614   -3.3320 H         1 MOL     0.0620
     29 H           6.5888   25.4177   -4.2339 H         1 MOL     0.0406
     30 H           9.1439   24.8747   -2.5620 H         1 MOL     0.0239
     31 H           7.6306   25.6329   -1.9434 H         1 MOL     0.0239
     32 H           8.6250   26.4838   -3.1865 H         1 MOL     0.0239
@<TRIPOS>BOND
     1    1    2 1 
     2    1   16 1 
     3    1   17 1 
     4    1   18 1 
     5    2    3 1 
     6    2    4 1 
     7    2   19 1 
     8    3   20 1 
     9    3   21 1 
    10    3   22 1 
    11    4    5 1 
    12    4   23 1 
    13    4   24 1 
    14    5    6 ar
    15    5   10 ar
    16    6    7 ar
    17    6   25 1 
    18    7    8 ar
    19    7   26 1 
    20    8    9 ar
    21    8   11 1 
    22    9   10 ar
    23    9   27 1 
    24   10   28 1 
    25   11   12 1 
    26   11   13 1 
    27   11   29 1 
    28   12   30 1 
    29   12   31 1 
    30   12   32 1 
    31   13   14 ar
    32   13   15 ar
@<TRIPOS>SUBSTRUCTURE
1 MOL         1
@<TRIPOS>MOLECULE
query molecule
   32    32     1     0     0
SMALL
NO_CHARGE

@<TRIPOS>ATOM
      1 C          13.4891   24.2457   28.3210 C.3       1 MOL     0.0072
      2 C          12.6973   22.9420   28.0385 C.3       1 MOL    -0.0128
      3 C          11.1754   23.2462   27.9575 C.3       1 MOL     0.0072
      4 C          13.1667   22.2021   26.7652 C.3       1 MOL     0.0379
      5 C          14.5552   21.6833   26.8860 C.ar      1 MOL    -0.0471
      6 C          14.7830   20.4012   27.3981 C.ar      1 MOL     0.0037
      7 C          16.0827   19.8979   27.4544 C.ar      1 MOL     0.0044
      8 C          17.1650   20.6595   27.0143 C.ar      1 MOL    -0.0391
      9 C          16.9335   21.9541   26.5236 C.ar      1 MOL     0.0044
     10 C          15.6357   22.4599   26.4557 C.ar      1 MOL     0.0037
     11 C          18.5761   20.1728   27.0263 C.3       1 MOL     0.0614
     12 C          18.9704   19.6605   28.4132 C.3       1 MOL     0.0185
     13 C          18.7632   19.1173   25.9482 C.2       1 MOL     0.0489
     14 O          18.1062   18.0352   26.0043 O.co2     1 MOL    -0.5492
     15 O          19.5451   19.4650   25.0162 O.co2     1 MOL    -0.5492
     16 H          13.1283   24.7251   29.2545 H         1 MOL     0.0232
     17 H          13.3601   24.9616   27.4817 H         1 MOL     0.0232
     18 H          14.5715   24.0235   28.4313 H         1 MOL     0.0232
     19 H          12.8570   22.2542   28.9070 H         1 MOL     0.0299
     20 H          10.9638   23.9151   27.0964 H         1 MOL     0.0232
     21 H          10.8284   23.7453   28.8863 H         1 MOL     0.0232
     22 H          10.6034   22.3046   27.8237 H         1 MOL     0.0232
     23 H          13.1297   22.8766   25.8851 H         1 MOL     0.0316
     24 H          12.5085   21.3251   26.5774 H         1 MOL     0.0316
     25 H          13.9530   19.8010   27.7400 H         1 MOL     0.0620
     26 H          16.2515   18.8990   27.8419 H         1 MOL     0.0621
     27 H          17.7667   22.5582   26.1941 H         1 MOL     0.0621
     28 H          15.4662   23.4544   26.0689 H         1 MOL     0.0620
     29 H          19.2554   21.0281   26.7750 H         1 MOL     0.0406
     30 H          18.3270   18.8173   28.7341 H         1 MOL     0.0239
     31 H          18.8559   20.4884   29.1487 H         1 MOL     0.0239
     32 H          20.0299   19.3299   28.4257 H         1 MOL     0.0239
@<TRIPOS>BOND
     1    1    2 1 
     2    1   16 1 
     3    1   17 1 
     4    1   18 1 
     5    2    3 1 
     6    2    4 1 
     7    2   19 1 
     8    3   20 1 
     9    3   21 1 
    10    3   22 1 
    11    4    5 1 
    12    4   23 1 
    13    4   24 1 
    14    5    6 ar
    15    5   10 ar
    16    6    7 ar
    17    6   25 1 
    18    7    8 ar
    19    7   26 1 
    20    8    9 ar
    21    8   11 1 
    22    9   10 ar
    23    9   27 1 
    24   10   28 1 
    25   11   12 1 
    26   11   13 1 
    27   11   29 1 
    28   12   30 1 
    29   12   31 1 
    30   12   32 1 
    31   13   14 ar
    32   13   15 ar
@<TRIPOS>SUBSTRUCTURE
1 MOL         1
@<TRIPOS>MOLECULE
query molecule
   32    32     1     0     0
SMALL
NO_CHARGE

@<TRIPOS>ATOM
      1 C           7.5292    8.4853   21.3253 C.3       1 MOL     0.0072
      2 C           6.6260    7.7037   22.3181 C.3       1 MOL    -0.0128
      3 C           7.2099    7.7451   23.7539 C.3       1 MOL     0.0072
      4 C           5.1752    8.2394   22.2773 C.3       1 MOL     0.0379
      5 C           4.2605    7.2912   21.5881 C.ar      1 MOL    -0.0471
      6 C           3.9045    7.5712   20.2634 C.ar      1 MOL     0.0037
      7 C           3.0130    6.7441   19.5821 C.ar      1 MOL     0.0044
      8 C           2.4560    5.6200   20.2074 C.ar      1 MOL    -0.0391
      9 C           2.8353    5.3328   21.5287 C.ar      1 MOL     0.0044
     10 C           3.7319    6.1616   22.2196 C.ar      1 MOL     0.0037
     11 C           1.4707    4.7239   19.5117 C.3       1 MOL     0.0614
     12 C           0.3417    5.5615   18.8688 C.3       1 MOL     0.0185
     13 C           2.1836    3.9001   18.4293 C.2       1 MOL     0.0489
     14 O           2.2831    2.6548   18.6519 O.co2     1 MOL    -0.5492
     15 O           2.6202    4.5204   17.4117 O.co2     1 MOL    -0.5492
     16 H           8.5577    8.0665   21.3313 H         1 MOL     0.0232
     17 H           7.5860    9.5557   21.6195 H         1 MOL     0.0232
     18 H           7.1247    8.4217   20.2937 H         1 MOL     0.0232
     19 H           6.6071    6.6312   21.9994 H         1 MOL     0.0299
     20 H           7.2536    8.7932   24.1176 H         1 MOL     0.0232
     21 H           8.2393    7.3290   23.7679 H         1 MOL     0.0232
     22 H           6.5768    7.1576   24.4516 H         1 MOL     0.0232
     23 H           5.1493    9.1981   21.7123 H         1 MOL     0.0316
     24 H           4.7821    8.4054   23.2987 H         1 MOL     0.0316
     25 H           4.3209    8.4383   19.7720 H         1 MOL     0.0620
     26 H           2.7459    6.9764   18.5609 H         1 MOL     0.0621
     27 H           2.4263    4.4595   22.0213 H         1 MOL     0.0621
     28 H           4.0075    5.9243   23.2369 H         1 MOL     0.0620
     29 H           1.0202    4.0188   20.2512 H         1 MOL     0.0406
     30 H           0.7724    6.2686   18.1268 H         1 MOL     0.0239
     31 H          -0.2030    6.1505   19.6353 H         1 MOL     0.0239
     32 H          -0.3850    4.9069   18.3408 H         1 MOL     0.0239
@<TRIPOS>BOND
     1    1    2 1 
     2    1   16 1 
     3    1   17 1 
     4    1   18 1 
     5    2    3 1 
     6    2    4 1 
     7    2   19 1 
     8    3   20 1 
     9    3   21 1 
    10    3   22 1 
    11    4    5 1 
    12    4   23 1 
    13    4   24 1 
    14    5    6 ar
    15    5   10 ar
    16    6    7 ar
    17    6   25 1 
    18    7    8 ar
    19    7   26 1 
    20    8    9 ar
    21    8   11 1 
    22    9   10 ar
    23    9   27 1 
    24   10   28 1 
    25   11   12 1 
    26   11   13 1 
    27   11   29 1 
    28   12   30 1 
    29   12   31 1 
    30   12   32 1 
    31   13   14 ar
    32   13   15 ar
@<TRIPOS>SUBSTRUCTURE
1 MOL         1
@<TRIPOS>MOLECULE
query molecule
   32    32     1     0     0
SMALL
NO_CHARGE

@<TRIPOS>ATOM
      1 C           0.2434   15.7301   18.1734 C.3       1 MOL     0.0072
      2 C          -1.1521   16.1626   18.7021 C.3       1 MOL    -0.0128
      3 C          -1.7590   15.0838   19.6435 C.3       1 MOL     0.0072
      4 C          -1.1379   17.5426   19.3997 C.3       1 MOL     0.0379
      5 C          -0.6735   18.6252   18.4944 C.ar      1 MOL    -0.0471
      6 C           0.6731   19.0034   18.5027 C.ar      1 MOL     0.0037
      7 C           1.1130   20.0477   17.6926 C.ar      1 MOL     0.0044
      8 C           0.2131   20.7361   16.8692 C.ar      1 MOL    -0.0391
      9 C          -1.1340   20.3335   16.8436 C.ar      1 MOL     0.0044
     10 C          -1.5748   19.2817   17.6523 C.ar      1 MOL     0.0037
     11 C           0.6182   21.8943   16.0153 C.3       1 MOL     0.0614
     12 C           1.5693   22.8422   16.7571 C.3       1 MOL     0.0185
     13 C           1.3098   21.4024   14.7556 C.2       1 MOL     0.0489
     14 O           2.3223   20.6558   14.8815 O.co2     1 MOL    -0.5492
     15 O           0.7802   21.7767   13.6719 O.co2     1 MOL    -0.5492
     16 H           0.1762   14.7399   17.6782 H         1 MOL     0.0232
     17 H           0.9654   15.6599   19.0134 H         1 MOL     0.0232
     18 H           0.6205   16.4729   17.4403 H         1 MOL     0.0232
     19 H          -1.8341   16.2443   17.8169 H         1 MOL     0.0299
     20 H          -1.1134   14.9531   20.5390 H         1 MOL     0.0232
     21 H          -1.8304   14.1082   19.1182 H         1 MOL     0.0232
     22 H          -2.7733   15.3800   19.9818 H         1 MOL     0.0232
     23 H          -0.4622   17.5254   20.2806 H         1 MOL     0.0316
     24 H          -2.1636   17.8081   19.7364 H         1 MOL     0.0316
     25 H           1.3724   18.4841   19.1411 H         1 MOL     0.0620
     26 H           2.1544   20.3355   17.7072 H         1 MOL     0.0621
     27 H          -1.8355   20.8449   16.1988 H         1 MOL     0.0621
     28 H          -2.6128   18.9834   17.6309 H         1 MOL     0.0620
     29 H          -0.2901   22.4682   15.7075 H         1 MOL     0.0406
     30 H           2.4845   22.2967   17.0714 H         1 MOL     0.0239
     31 H           1.0774   23.2560   17.6625 H         1 MOL     0.0239
     32 H           1.8679   23.6841   16.0986 H         1 MOL     0.0239
@<TRIPOS>BOND
     1    1    2 1 
     2    1   16 1 
     3    1   17 1 
     4    1   18 1 
     5    2    3 1 
     6    2    4 1 
     7    2   19 1 
     8    3   20 1 
     9    3   21 1 
    10    3   22 1 
    11    4    5 1 
    12    4   23 1 
    13    4   24 1 
    14    5    6 ar
    15    5   10 ar
    16    6    7 ar
    17    6   25 1 
    18    7    8 ar
    19    7   26 1 
    20    8    9 ar
    21    8   11 1 
    22    9   10 ar
    23    9   27 1 
    24   10   28 1 
    25   11   12 1 
    26   11   13 1 
    27   11   29 1 
    28   12   30 1 
    29   12   31 1 
    30   12   32 1 
    31   13   14 ar
    32   13   15 ar
@<TRIPOS>SUBSTRUCTURE
1 MOL         1
@<TRIPOS>MOLECULE
query molecule
   32    32     1     0     0
SMALL
NO_CHARGE

@<TRIPOS>ATOM
      1 C           9.3932   21.7349   27.2731 C.3       1 MOL     0.0072
      2 C           7.8827   21.8533   27.5653 C.3       1 MOL    -0.0128
      3 C           7.5310   21.3979   29.0013 C.3       1 MOL     0.0072
      4 C           7.3882   23.2833   27.2640 C.3       1 MOL     0.0379
      5 C           6.0021   23.2619   26.7289 C.ar      1 MOL    -0.0471
      6 C           4.9388   23.6448   27.5526 C.ar      1 MOL     0.0037
      7 C           3.6451   23.7124   27.0295 C.ar      1 MOL     0.0044
      8 C           3.4058   23.3990   25.6839 C.ar      1 MOL    -0.0391
      9 C           4.4707   22.9763   24.8709 C.ar      1 MOL     0.0044
     10 C           5.7618   22.9083   25.3990 C.ar      1 MOL     0.0037
     11 C           2.0075   23.5240   25.1829 C.3       1 MOL     0.0614
     12 C           1.9181   24.4644   23.9728 C.3       1 MOL     0.0185
     13 C           1.4665   22.1585   24.7987 C.2       1 MOL     0.0489
     14 O           0.5501   21.7440   25.5542 O.co2     1 MOL    -0.5492
     15 O           1.9668   21.5825   23.7935 O.co2     1 MOL    -0.5492
     16 H           9.7252   20.6857   27.4201 H         1 MOL     0.0232
     17 H           9.9759   22.3942   27.9459 H         1 MOL     0.0232
     18 H           9.5991   22.0252   26.2157 H         1 MOL     0.0232
     19 H           7.3531   21.1685   26.8500 H         1 MOL     0.0299
     20 H           8.0630   22.0307   29.7471 H         1 MOL     0.0232
     21 H           7.8348   20.3393   29.1529 H         1 MOL     0.0232
     22 H           6.4390   21.4817   29.1801 H         1 MOL     0.0232
     23 H           8.0254   23.7394   26.4753 H         1 MOL     0.0316
     24 H           7.4162   23.9176   28.1695 H         1 MOL     0.0316
     25 H           5.1172   23.8921   28.5884 H         1 MOL     0.0620
     26 H           2.8259   24.0144   27.6672 H         1 MOL     0.0621
     27 H           4.2899   22.7169   23.8464 H         1 MOL     0.0621
     28 H           6.5801   22.5876   24.7682 H         1 MOL     0.0620
     29 H           1.3611   23.9392   25.9961 H         1 MOL     0.0406
     30 H           2.5205   24.0631   23.1298 H         1 MOL     0.0239
     31 H           2.2963   25.4753   24.2282 H         1 MOL     0.0239
     32 H           0.8633   24.5578   23.6339 H         1 MOL     0.0239
@<TRIPOS>BOND
     1    1    2 1 
     2    1   16 1 
     3    1   17 1 
     4    1   18 1 
     5    2    3 1 
     6    2    4 1 
     7    2   19 1 
     8    3   20 1 
     9    3   21 1 
    10    3   22 1 
    11    4    5 1 
    12    4   23 1 
    13    4   24 1 
    14    5    6 ar
    15    5   10 ar
    16    6    7 ar
    17    6   25 1 
    18    7    8 ar
    19    7   26 1 
    20    8    9 ar
    21    8   11 1 
    22    9   10 ar
    23    9   27 1 
    24   10   28 1 
    25   11   12 1 
    26   11   13 1 
    27   11   29 1 
    28   12   30 1 
    29   12   31 1 
    30   12   32 1 
    31   13   14 ar
    32   13   15 ar
@<TRIPOS>SUBSTRUCTURE
1 MOL         1
@<TRIPOS>MOLECULE
query molecule
   32    32     1     0     0
SMALL
NO_CHARGE

@<TRIPOS>ATOM
      1 C          15.6604    8.6773    2.5265 C.3       1 MOL     0.0072
      2 C          14.8971    8.9734    1.2130 C.3       1 MOL    -0.0128
      3 C          14.4535   10.4520    1.1238 C.3       1 MOL     0.0072
      4 C          15.7033    8.4887   -0.0163 C.3       1 MOL     0.0379
      5 C          14.7749    8.0712   -1.1031 C.ar      1 MOL    -0.0471
      6 C          14.2034    6.7919   -1.0770 C.ar      1 MOL     0.0037
      7 C          13.3134    6.3960   -2.0790 C.ar      1 MOL     0.0044
      8 C          12.9876    7.2743   -3.1209 C.ar      1 MOL    -0.0391
      9 C          13.5836    8.5486   -3.1551 C.ar      1 MOL     0.0044
     10 C          14.4747    8.9435   -2.1541 C.ar      1 MOL     0.0037
     11 C          12.0349    6.9099   -4.2175 C.3       1 MOL     0.0614
     12 C          12.7144    5.8656   -5.1225 C.3       1 MOL     0.0185
     13 C          10.7147    6.3699   -3.6585 C.2       1 MOL     0.0489
     14 O           9.9123    7.2648   -3.2586 O.co2     1 MOL    -0.5492
     15 O          10.5227    5.1151   -3.6194 O.co2     1 MOL    -0.5492
     16 H          15.0283    8.9586    3.3953 H         1 MOL     0.0232
     17 H          16.6056    9.2523    2.5666 H         1 MOL     0.0232
     18 H          15.8874    7.5925    2.6032 H         1 MOL     0.0232
     19 H          13.9645    8.3497    1.2428 H         1 MOL     0.0299
     20 H          15.3462   11.1094    1.1013 H         1 MOL     0.0232
     21 H          13.8282   10.7199    2.0002 H         1 MOL     0.0232
     22 H          13.8597   10.6178    0.2007 H         1 MOL     0.0232
     23 H          16.2969    7.5886    0.2562 H         1 MOL     0.0316
     24 H          16.3774    9.2783   -0.3922 H         1 MOL     0.0316
     25 H          14.4509    6.1100   -0.2769 H         1 MOL     0.0620
     26 H          12.8755    5.4095   -2.0506 H         1 MOL     0.0621
     27 H          13.3522    9.2266   -3.9650 H         1 MOL     0.0621
     28 H          14.9316    9.9223   -2.1913 H         1 MOL     0.0620
     29 H          11.8217    7.8133   -4.8416 H         1 MOL     0.0406
     30 H          12.9354    4.9435   -4.5464 H         1 MOL     0.0239
     31 H          13.6658    6.2656   -5.5321 H         1 MOL     0.0239
     32 H          12.0468    5.6031   -5.9697 H         1 MOL     0.0239
@<TRIPOS>BOND
     1    1    2 1 
     2    1   16 1 
     3    1   17 1 
     4    1   18 1 
     5    2    3 1 
     6    2    4 1 
     7    2   19 1 
     8    3   20 1 
     9    3   21 1 
    10    3   22 1 
    11    4    5 1 
    12    4   23 1 
    13    4   24 1 
    14    5    6 ar
    15    5   10 ar
    16    6    7 ar
    17    6   25 1 
    18    7    8 ar
    19    7   26 1 
    20    8    9 ar
    21    8   11 1 
    22    9   10 ar
    23    9   27 1 
    24   10   28 1 
    25   11   12 1 
    26   11   13 1 
    27   11   29 1 
    28   12   30 1 
    29   12   31 1 
    30   12   32 1 
    31   13   14 ar
    32   13   15 ar
@<TRIPOS>SUBSTRUCTURE
1 MOL         1
@<TRIPOS>MOLECULE
query molecule
   32    32     1     0     0
SMALL
NO_CHARGE

@<TRIPOS>ATOM
      1 C           1.2860   -3.2970   37.3845 C.3       1 MOL     0.0072
      2 C           0.2464   -2.2135   36.9943 C.3       1 MOL    -0.0128
      3 C          -1.1351   -2.8337   36.6667 C.3       1 MOL     0.0072
      4 C           0.1446   -1.1269   38.0926 C.3       1 MOL     0.0379
      5 C          -0.0201    0.2232   37.4907 C.ar      1 MOL    -0.0471
      6 C          -1.2109    0.9408   37.6380 C.ar      1 MOL     0.0037
      7 C          -1.3185    2.2296   37.1013 C.ar      1 MOL     0.0044
      8 C          -0.2377    2.8082   36.4143 C.ar      1 MOL    -0.0391
      9 C           0.9415    2.0713   36.2583 C.ar      1 MOL     0.0044
     10 C           1.0493    0.7910   36.7935 C.ar      1 MOL     0.0037
     11 C          -0.3966    4.2040   35.8970 C.3       1 MOL     0.0614
     12 C           0.7051    5.0959   36.5039 C.3       1 MOL     0.0185
     13 C          -0.2931    4.2419   34.3773 C.2       1 MOL     0.0489
     14 O          -1.3282    4.6454   33.7791 O.co2     1 MOL    -0.5492
     15 O           0.7953    3.8659   33.8655 O.co2     1 MOL    -0.5492
     16 H           1.3891   -4.0488   36.5748 H         1 MOL     0.0232
     17 H           0.9726   -3.8152   38.3149 H         1 MOL     0.0232
     18 H           2.2779   -2.8278   37.5590 H         1 MOL     0.0232
     19 H           0.6290   -1.7182   36.0658 H         1 MOL     0.0299
     20 H          -1.5389   -3.3470   37.5660 H         1 MOL     0.0232
     21 H          -1.0480   -3.5759   35.8466 H         1 MOL     0.0232
     22 H          -1.8525   -2.0451   36.3583 H         1 MOL     0.0232
     23 H           1.0929   -1.0992   38.6752 H         1 MOL     0.0316
     24 H          -0.7002   -1.3226   38.7791 H         1 MOL     0.0316
     25 H          -2.0459    0.5122   38.1735 H         1 MOL     0.0620
     26 H          -2.2352    2.7901   37.2230 H         1 MOL     0.0621
     27 H           1.7760    2.4996   35.7211 H         1 MOL     0.0621
     28 H           1.9632    0.2297   36.6739 H         1 MOL     0.0620
     29 H          -1.3965    4.6023   36.1949 H         1 MOL     0.0406
     30 H           1.7073    4.6965   36.2377 H         1 MOL     0.0239
     31 H           0.6150    5.1112   37.6115 H         1 MOL     0.0239
     32 H           0.6270    6.1366   36.1272 H         1 MOL     0.0239
@<TRIPOS>BOND
     1    1    2 1 
     2    1   16 1 
     3    1   17 1 
     4    1   18 1 
     5    2    3 1 
     6    2    4 1 
     7    2   19 1 
     8    3   20 1 
     9    3   21 1 
    10    3   22 1 
    11    4    5 1 
    12    4   23 1 
    13    4   24 1 
    14    5    6 ar
    15    5   10 ar
    16    6    7 ar
    17    6   25 1 
    18    7    8 ar
    19    7   26 1 
    20    8    9 ar
    21    8   11 1 
    22    9   10 ar
    23    9   27 1 
    24   10   28 1 
    25   11   12 1 
    26   11   13 1 
    27   11   29 1 
    28   12   30 1 
    29   12   31 1 
    30   12   32 1 
    31   13   14 ar
    32   13   15 ar
@<TRIPOS>SUBSTRUCTURE
1 MOL         1
@<TRIPOS>MOLECULE
query molecule
   32    32     1     0     0
SMALL
NO_CHARGE

@<TRIPOS>ATOM
      1 C          -0.1565   -4.1203   11.4258 C.3       1 MOL     0.0072
      2 C          -0.5107   -3.1195   10.2927 C.3       1 MOL    -0.0128
      3 C           0.3688   -3.4212    9.0529 C.3       1 MOL     0.0072
      4 C          -2.0185   -3.0859    9.9238 C.3       1 MOL     0.0379
      5 C          -2.8189   -2.3395   10.9371 C.ar      1 MOL    -0.0471
      6 C          -3.1996   -2.9760   12.1229 C.ar      1 MOL     0.0037
      7 C          -3.8692   -2.2691   13.1214 C.ar      1 MOL     0.0044
      8 C          -4.1911   -0.9171   12.9490 C.ar      1 MOL    -0.0391
      9 C          -3.8947   -0.3088   11.7130 C.ar      1 MOL     0.0044
     10 C          -3.1994   -1.0096   10.7177 C.ar      1 MOL     0.0037
     11 C          -4.8393   -0.0970   14.0263 C.3       1 MOL     0.0614
     12 C          -6.2218   -0.7250   14.2825 C.3       1 MOL     0.0185
     13 C          -4.0210   -0.0246   15.3259 C.2       1 MOL     0.0489
     14 O          -3.7158    1.1468   15.7431 O.co2     1 MOL    -0.5492
     15 O          -3.6865   -1.1043   15.8918 O.co2     1 MOL    -0.5492
     16 H           0.9242   -4.0508   11.6879 H         1 MOL     0.0232
     17 H          -0.3762   -5.1629   11.1176 H         1 MOL     0.0232
     18 H          -0.7501   -3.8827   12.3310 H         1 MOL     0.0232
     19 H          -0.2376   -2.0978   10.6605 H         1 MOL     0.0299
     20 H           0.1423   -4.4311    8.6557 H         1 MOL     0.0232
     21 H           1.4450   -3.3807    9.3261 H         1 MOL     0.0232
     22 H           0.1859   -2.6748    8.2457 H         1 MOL     0.0232
     23 H          -2.4271   -4.1129    9.8513 H         1 MOL     0.0316
     24 H          -2.1541   -2.5694    8.9480 H         1 MOL     0.0316
     25 H          -2.9640   -4.0191   12.2699 H         1 MOL     0.0620
     26 H          -4.1322   -2.7714   14.0418 H         1 MOL     0.0621
     27 H          -4.1882    0.7167   11.5364 H         1 MOL     0.0621
     28 H          -2.9516   -0.5232    9.7856 H         1 MOL     0.0620
     29 H          -4.9992    0.9451   13.6570 H         1 MOL     0.0406
     30 H          -6.1220   -1.7715   14.6384 H         1 MOL     0.0239
     31 H          -6.8005   -0.7390   13.3312 H         1 MOL     0.0239
     32 H          -6.7951   -0.1428   15.0315 H         1 MOL     0.0239
@<TRIPOS>BOND
     1    1    2 1 
     2    1   16 1 
     3    1   17 1 
     4    1   18 1 
     5    2    3 1 
     6    2    4 1 
     7    2   19 1 
     8    3   20 1 
     9    3   21 1 
    10    3   22 1 
    11    4    5 1 
    12    4   23 1 
    13    4   24 1 
    14    5    6 ar
    15    5   10 ar
    16    6    7 ar
    17    6   25 1 
    18    7    8 ar
    19    7   26 1 
    20    8    9 ar
    21    8   11 1 
    22    9   10 ar
    23    9   27 1 
    24   10   28 1 
    25   11   12 1 
    26   11   13 1 
    27   11   29 1 
    28   12   30 1 
    29   12   31 1 
    30   12   32 1 
    31   13   14 ar
    32   13   15 ar
@<TRIPOS>SUBSTRUCTURE
1 MOL         1
@<TRIPOS>MOLECULE
query molecule
   32    32     1     0     0
SMALL
NO_CHARGE

@<TRIPOS>ATOM
      1 C          14.9375    1.1558   29.5103 C.3       1 MOL     0.0072
      2 C          14.3089    0.4297   30.7272 C.3       1 MOL    -0.0128
      3 C          14.8101   -1.0362   30.7973 C.3       1 MOL     0.0072
      4 C          14.5411    1.2046   32.0547 C.3       1 MOL     0.0379
      5 C          13.3757    1.0358   32.9743 C.ar      1 MOL    -0.0471
      6 C          12.4699    2.1011   33.1055 C.ar      1 MOL     0.0037
      7 C          11.3239    1.9654   33.8903 C.ar      1 MOL     0.0044
      8 C          11.0830    0.7696   34.5789 C.ar      1 MOL    -0.0391
      9 C          12.0183   -0.2779   34.4908 C.ar      1 MOL     0.0044
     10 C          13.1588   -0.1488   33.6939 C.ar      1 MOL     0.0037
     11 C           9.8557    0.5572   35.4146 C.3       1 MOL     0.0614
     12 C           9.9274    1.5235   36.6135 C.3       1 MOL     0.0185
     13 C           8.5943    0.6969   34.5597 C.2       1 MOL     0.0489
     14 O           8.1594    1.8426   34.2508 O.co2     1 MOL    -0.5492
     15 O           8.0892   -0.4171   34.2152 O.co2     1 MOL    -0.5492
     16 H          14.7215    0.6007   28.5733 H         1 MOL     0.0232
     17 H          16.0380    1.2365   29.6302 H         1 MOL     0.0232
     18 H          14.5186    2.1798   29.4174 H         1 MOL     0.0232
     19 H          13.2031    0.4042   30.5479 H         1 MOL     0.0299
     20 H          15.9083   -1.0569   30.9639 H         1 MOL     0.0232
     21 H          14.5870   -1.5664   29.8480 H         1 MOL     0.0232
     22 H          14.3152   -1.5748   31.6319 H         1 MOL     0.0232
     23 H          14.6181    2.2939   31.8408 H         1 MOL     0.0316
     24 H          15.4576    0.8642   32.5710 H         1 MOL     0.0316
     25 H          12.6522    3.0289   32.5805 H         1 MOL     0.0620
     26 H          10.6221    2.7840   33.9659 H         1 MOL     0.0621
     27 H          11.8382   -1.1963   35.0313 H         1 MOL     0.0621
     28 H          13.8635   -0.9657   33.6234 H         1 MOL     0.0620
     29 H           9.8707   -0.4886   35.8165 H         1 MOL     0.0406
     30 H           9.9390    2.5752   36.2660 H         1 MOL     0.0239
     31 H          10.8569    1.3121   37.1930 H         1 MOL     0.0239
     32 H           9.0570    1.3568   37.2829 H         1 MOL     0.0239
@<TRIPOS>BOND
     1    1    2 1 
     2    1   16 1 
     3    1   17 1 
     4    1   18 1 
     5    2    3 1 
     6    2    4 1 
     7    2   19 1 
     8    3   20 1 
     9    3   21 1 
    10    3   22 1 
    11    4    5 1 
    12    4   23 1 
    13    4   24 1 
    14    5    6 ar
    15    5   10 ar
    16    6    7 ar
    17    6   25 1 
    18    7    8 ar
    19    7   26 1 
    20    8    9 ar
    21    8   11 1 
    22    9   10 ar
    23    9   27 1 
    24   10   28 1 
    25   11   12 1 
    26   11   13 1 
    27   11   29 1 
    28   12   30 1 
    29   12   31 1 
    30   12   32 1 
    31   13   14 ar
    32   13   15 ar
@<TRIPOS>SUBSTRUCTURE
1 MOL         1
@<TRIPOS>MOLECULE
query molecule
   32    32     1     0     0
SMALL
NO_CHARGE

@<TRIPOS>ATOM
      1 C          18.3165   14.5350   31.6327 C.3       1 MOL     0.0072
      2 C          17.6594   13.2905   30.9825 C.3       1 MOL    -0.0128
      3 C          18.1579   13.1084   29.5242 C.3       1 MOL     0.0072
      4 C          17.8644   11.9986   31.8161 C.3       1 MOL     0.0379
      5 C          16.5832   11.2519   31.9870 C.ar      1 MOL    -0.0471
      6 C          16.1342   10.9274   33.2737 C.ar      1 MOL     0.0037
      7 C          14.9288   10.2371   33.4436 C.ar      1 MOL     0.0044
      8 C          14.1475    9.8720   32.3387 C.ar      1 MOL    -0.0391
      9 C          14.6172   10.1788   31.0539 C.ar      1 MOL     0.0044
     10 C          15.8242   10.8569   30.8815 C.ar      1 MOL     0.0037
     11 C          12.8268    9.1734   32.4570 C.3       1 MOL     0.0614
     12 C          12.9799    7.8932   33.2941 C.3       1 MOL     0.0185
     13 C          11.7846   10.0629   33.1331 C.2       1 MOL     0.0489
     14 O          10.8821   10.5296   32.3790 O.co2     1 MOL    -0.5492
     15 O          11.9200   10.3233   34.3654 O.co2     1 MOL    -0.5492
     16 H          18.0928   15.4398   31.0270 H         1 MOL     0.0232
     17 H          19.4185   14.4070   31.6790 H         1 MOL     0.0232
     18 H          17.9313   14.6942   32.6607 H         1 MOL     0.0232
     19 H          16.5568   13.4821   30.9374 H         1 MOL     0.0299
     20 H          19.2536   12.9249   29.5208 H         1 MOL     0.0232
     21 H          17.9501   14.0210   28.9282 H         1 MOL     0.0232
     22 H          17.6539   12.2442   29.0449 H         1 MOL     0.0232
     23 H          18.2582   12.2383   32.8251 H         1 MOL     0.0316
     24 H          18.5759   11.3210   31.2976 H         1 MOL     0.0316
     25 H          16.7162   11.2099   34.1397 H         1 MOL     0.0620
     26 H          14.5927    9.9846   34.4401 H         1 MOL     0.0621
     27 H          14.0404    9.8925   30.1867 H         1 MOL     0.0621
     28 H          16.1785   11.0864   29.8874 H         1 MOL     0.0620
     29 H          12.4570    8.8960   31.4402 H         1 MOL     0.0406
     30 H          13.3237    8.1410   34.3206 H         1 MOL     0.0239
     31 H          13.7194    7.2150   32.8253 H         1 MOL     0.0239
     32 H          12.0042    7.3698   33.3674 H         1 MOL     0.0239
@<TRIPOS>BOND
     1    1    2 1 
     2    1   16 1 
     3    1   17 1 
     4    1   18 1 
     5    2    3 1 
     6    2    4 1 
     7    2   19 1 
     8    3   20 1 
     9    3   21 1 
    10    3   22 1 
    11    4    5 1 
    12    4   23 1 
    13    4   24 1 
    14    5    6 ar
    15    5   10 ar
    16    6    7 ar
    17    6   25 1 
    18    7    8 ar
    19    7   26 1 
    20    8    9 ar
    21    8   11 1 
    22    9   10 ar
    23    9   27 1 
    24   10   28 1 
    25   11   12 1 
    26   11   13 1 
    27   11   29 1 
    28   12   30 1 
    29   12   31 1 
    30   12   32 1 
    31   13   14 ar
    32   13   15 ar
@<TRIPOS>SUBSTRUCTURE
1 MOL         1
