@<TRIPOS>MOLECULE
query molecule
   32    32     1     0     0
SMALL
NO_CHARGE

@<TRIPOS>ATOM
      1 C           7.5292    8.4853   21.3253 C.3       1 MOL     0.0072
      2 C           6.6260    7.7037   22.3181 C.3       1 MOL    -0.0128
      3 C           7.2099    7.7451   23.7539 C.3       1 MOL     0.0072
      4 C           5.1752    8.2394   22.2773 C.3       1 MOL     0.0379
      5 C           4.2605    7.2912   21.5881 C.ar      1 MOL    -0.0471
      6 C           3.9045    7.5712   20.2634 C.ar      1 MOL     0.0037
      7 C           3.0130    6.7441   19.5821 C.ar      1 MOL     0.0044
      8 C           2.4560    5.6200   20.2074 C.ar      1 MOL    -0.0391
      9 C           2.8353    5.3328   21.5287 C.ar      1 MOL     0.0044
     10 C           3.7319    6.1616   22.2196 C.ar      1 MOL     0.0037
     11 C           1.4707    4.7239   19.5117 C.3       1 MOL     0.0614
     12 C           0.3417    5.5615   18.8688 C.3       1 MOL     0.0185
     13 C           2.1836    3.9001   18.4293 C.2       1 MOL     0.0489
     14 O           2.2831    2.6548   18.6519 O.co2     1 MOL    -0.5492
     15 O           2.6202    4.5204   17.4117 O.co2     1 MOL    -0.5492
     16 H           8.5577    8.0665   21.3313 H         1 MOL     0.0232
     17 H           7.5860    9.5557   21.6195 H         1 MOL     0.0232
     18 H           7.1247    8.4217   20.2937 H         1 MOL     0.0232
     19 H           6.6071    6.6312   21.9994 H         1 MOL     0.0299
     20 H           7.2536    8.7932   24.1176 H         1 MOL     0.0232
     21 H           8.2393    7.3290   23.7679 H         1 MOL     0.0232
     22 H           6.5768    7.1576   24.4516 H         1 MOL     0.0232
     23 H           5.1493    9.1981   21.7123 H         1 MOL     0.0316
     24 H           4.7821    8.4054   23.2987 H         1 MOL     0.0316
     25 H           4.3209    8.4383   19.7720 H         1 MOL     0.0620
     26 H           2.7459    6.9764   18.5609 H         1 MOL     0.0621
     27 H           2.4263    4.4595   22.0213 H         1 MOL     0.0621
     28 H           4.0075    5.9243   23.2369 H         1 MOL     0.0620
     29 H           1.0202    4.0188   20.2512 H         1 MOL     0.0406
     30 H           0.7724    6.2686   18.1268 H         1 MOL     0.0239
     31 H          -0.2030    6.1505   19.6353 H         1 MOL     0.0239
     32 H          -0.3850    4.9069   18.3408 H         1 MOL     0.0239
@<TRIPOS>BOND
     1    1    2 1 
     2    1   16 1 
     3    1   17 1 
     4    1   18 1 
     5    2    3 1 
     6    2    4 1 
     7    2   19 1 
     8    3   20 1 
     9    3   21 1 
    10    3   22 1 
    11    4    5 1 
    12    4   23 1 
    13    4   24 1 
    14    5    6 ar
    15    5   10 ar
    16    6    7 ar
    17    6   25 1 
    18    7    8 ar
    19    7   26 1 
    20    8    9 ar
    21    8   11 1 
    22    9   10 ar
    23    9   27 1 
    24   10   28 1 
    25   11   12 1 
    26   11   13 1 
    27   11   29 1 
    28   12   30 1 
    29   12   31 1 
    30   12   32 1 
    31   13   14 ar
    32   13   15 ar
@<TRIPOS>SUBSTRUCTURE
1 MOL         1
@<TRIPOS>MOLECULE
query molecule
   32    32     1     0     0
SMALL
NO_CHARGE

@<TRIPOS>ATOM
      1 C          -0.1272    7.0355   18.9543 C.3       1 MOL     0.0072
      2 C           0.7788    5.8156   19.2415 C.3       1 MOL    -0.0128
      3 C           0.0347    4.5033   19.0140 C.3       1 MOL     0.0072
      4 C           2.1104    5.8350   18.4588 C.3       1 MOL     0.0379
      5 C           3.0955    6.6858   19.1878 C.ar      1 MOL    -0.0471
      6 C           3.2311    6.5978   20.5809 C.ar      1 MOL     0.0037
      7 C           4.1174    7.4358   21.2562 C.ar      1 MOL     0.0044
      8 C           4.8906    8.3667   20.5437 C.ar      1 MOL    -0.0391
      9 C           4.7873    8.4141   19.1453 C.ar      1 MOL     0.0044
     10 C           3.8890    7.5857   18.4684 C.ar      1 MOL     0.0037
     11 C           5.7993    9.2779   21.3090 C.3       1 MOL     0.0614
     12 C           7.2496    8.7974   21.0736 C.3       1 MOL     0.0185
     13 C           5.6427   10.7583   20.9178 C.2       1 MOL     0.0489
     14 O           4.5288   11.1275   20.4311 O.co2     1 MOL    -0.5492
     15 O           6.6407   11.5082   21.1585 O.co2     1 MOL    -0.5492
     16 H          -1.0263    7.0026   19.6085 H         1 MOL     0.0232
     17 H          -0.4570    7.0379   17.9004 H         1 MOL     0.0232
     18 H           0.4184    7.9807   19.1619 H         1 MOL     0.0232
     19 H           1.0501    5.8466   20.3289 H         1 MOL     0.0299
     20 H          -0.2618    4.3971   17.9497 H         1 MOL     0.0232
     21 H          -0.8827    4.4649   19.6436 H         1 MOL     0.0232
     22 H           0.6752    3.6384   19.2872 H         1 MOL     0.0232
     23 H           1.9736    6.2322   17.4351 H         1 MOL     0.0316
     24 H           2.5428    4.8132   18.4053 H         1 MOL     0.0316
     25 H           2.6285    5.8819   21.1218 H         1 MOL     0.0620
     26 H           4.1997    7.3608   22.3291 H         1 MOL     0.0621
     27 H           5.4025    9.1055   18.5869 H         1 MOL     0.0621
     28 H           3.8060    7.6453   17.3929 H         1 MOL     0.0620
     29 H           5.5883    9.1843   22.4017 H         1 MOL     0.0406
     30 H           7.5281    8.8923   20.0037 H         1 MOL     0.0239
     31 H           7.3549    7.7324   21.3718 H         1 MOL     0.0239
     32 H           7.9561    9.4018   21.6807 H         1 MOL     0.0239
@<TRIPOS>BOND
     1    1    2 1 
     2    1   16 1 
     3    1   17 1 
     4    1   18 1 
     5    2    3 1 
     6    2    4 1 
     7    2   19 1 
     8    3   20 1 
     9    3   21 1 
    10    3   22 1 
    11    4    5 1 
    12    4   23 1 
    13    4   24 1 
    14    5    6 ar
    15    5   10 ar
    16    6    7 ar
    17    6   25 1 
    18    7    8 ar
    19    7   26 1 
    20    8    9 ar
    21    8   11 1 
    22    9   10 ar
    23    9   27 1 
    24   10   28 1 
    25   11   12 1 
    26   11   13 1 
    27   11   29 1 
    28   12   30 1 
    29   12   31 1 
    30   12   32 1 
    31   13   14 ar
    32   13   15 ar
@<TRIPOS>SUBSTRUCTURE
1 MOL         1
@<TRIPOS>MOLECULE
query molecule
   32    32     1     0     0
SMALL
NO_CHARGE

@<TRIPOS>ATOM
      1 C           6.0675    7.1927   13.2860 C.3       1 MOL     0.0072
      2 C           6.4752    6.9004   14.7496 C.3       1 MOL    -0.0128
      3 C           7.1551    5.5179   14.8529 C.3       1 MOL     0.0072
      4 C           7.3579    8.0267   15.3463 C.3       1 MOL     0.0379
      5 C           7.0108    8.2724   16.7762 C.ar      1 MOL    -0.0471
      6 C           7.8496    7.8165   17.7998 C.ar      1 MOL     0.0037
      7 C           7.5231    8.0620   19.1380 C.ar      1 MOL     0.0044
      8 C           6.3563    8.7638   19.4782 C.ar      1 MOL    -0.0391
      9 C           5.5156    9.2056   18.4357 C.ar      1 MOL     0.0044
     10 C           5.8421    8.9712   17.1014 C.ar      1 MOL     0.0037
     11 C           5.9480    9.0571   20.8936 C.3       1 MOL     0.0614
     12 C           6.9866    8.5999   21.9335 C.3       1 MOL     0.0185
     13 C           5.7058   10.5641   21.0680 C.2       1 MOL     0.0489
     14 O           4.4867   10.9013   21.1329 O.co2     1 MOL    -0.5492
     15 O           6.7122   11.3264   21.1253 O.co2     1 MOL    -0.5492
     16 H           5.4045    6.3882   12.9030 H         1 MOL     0.0232
     17 H           6.9665    7.2480   12.6369 H         1 MOL     0.0232
     18 H           5.5242    8.1585   13.2222 H         1 MOL     0.0232
     19 H           5.5311    6.8604   15.3508 H         1 MOL     0.0299
     20 H           8.0959    5.5049   14.2631 H         1 MOL     0.0232
     21 H           6.4827    4.7234   14.4679 H         1 MOL     0.0232
     22 H           7.4026    5.2871   15.9111 H         1 MOL     0.0232
     23 H           7.1772    8.9774   14.7989 H         1 MOL     0.0316
     24 H           8.4325    7.7664   15.2843 H         1 MOL     0.0316
     25 H           8.7527    7.2770   17.5552 H         1 MOL     0.0620
     26 H           8.1797    7.7068   19.9205 H         1 MOL     0.0621
     27 H           4.6054    9.7381   18.6748 H         1 MOL     0.0621
     28 H           5.1913    9.3272   16.3158 H         1 MOL     0.0620
     29 H           4.9877    8.5224   21.1069 H         1 MOL     0.0406
     30 H           7.9545    9.1182   21.7645 H         1 MOL     0.0239
     31 H           7.1587    7.5055   21.8578 H         1 MOL     0.0239
     32 H           6.6353    8.8344   22.9601 H         1 MOL     0.0239
@<TRIPOS>BOND
     1    1    2 1 
     2    1   16 1 
     3    1   17 1 
     4    1   18 1 
     5    2    3 1 
     6    2    4 1 
     7    2   19 1 
     8    3   20 1 
     9    3   21 1 
    10    3   22 1 
    11    4    5 1 
    12    4   23 1 
    13    4   24 1 
    14    5    6 ar
    15    5   10 ar
    16    6    7 ar
    17    6   25 1 
    18    7    8 ar
    19    7   26 1 
    20    8    9 ar
    21    8   11 1 
    22    9   10 ar
    23    9   27 1 
    24   10   28 1 
    25   11   12 1 
    26   11   13 1 
    27   11   29 1 
    28   12   30 1 
    29   12   31 1 
    30   12   32 1 
    31   13   14 ar
    32   13   15 ar
@<TRIPOS>SUBSTRUCTURE
1 MOL         1
@<TRIPOS>MOLECULE
query molecule
   32    32     1     0     0
SMALL
NO_CHARGE

@<TRIPOS>ATOM
      1 C          -0.1565   -4.1203   11.4258 C.3       1 MOL     0.0072
      2 C          -0.5107   -3.1195   10.2927 C.3       1 MOL    -0.0128
      3 C           0.3688   -3.4212    9.0529 C.3       1 MOL     0.0072
      4 C          -2.0185   -3.0859    9.9238 C.3       1 MOL     0.0379
      5 C          -2.8189   -2.3395   10.9371 C.ar      1 MOL    -0.0471
      6 C          -3.1996   -2.9760   12.1229 C.ar      1 MOL     0.0037
      7 C          -3.8692   -2.2691   13.1214 C.ar      1 MOL     0.0044
      8 C          -4.1911   -0.9171   12.9490 C.ar      1 MOL    -0.0391
      9 C          -3.8947   -0.3088   11.7130 C.ar      1 MOL     0.0044
     10 C          -3.1994   -1.0096   10.7177 C.ar      1 MOL     0.0037
     11 C          -4.8393   -0.0970   14.0263 C.3       1 MOL     0.0614
     12 C          -6.2218   -0.7250   14.2825 C.3       1 MOL     0.0185
     13 C          -4.0210   -0.0246   15.3259 C.2       1 MOL     0.0489
     14 O          -3.7158    1.1468   15.7431 O.co2     1 MOL    -0.5492
     15 O          -3.6865   -1.1043   15.8918 O.co2     1 MOL    -0.5492
     16 H           0.9242   -4.0508   11.6879 H         1 MOL     0.0232
     17 H          -0.3762   -5.1629   11.1176 H         1 MOL     0.0232
     18 H          -0.7501   -3.8827   12.3310 H         1 MOL     0.0232
     19 H          -0.2376   -2.0978   10.6605 H         1 MOL     0.0299
     20 H           0.1423   -4.4311    8.6557 H         1 MOL     0.0232
     21 H           1.4450   -3.3807    9.3261 H         1 MOL     0.0232
     22 H           0.1859   -2.6748    8.2457 H         1 MOL     0.0232
     23 H          -2.4271   -4.1129    9.8513 H         1 MOL     0.0316
     24 H          -2.1541   -2.5694    8.9480 H         1 MOL     0.0316
     25 H          -2.9640   -4.0191   12.2699 H         1 MOL     0.0620
     26 H          -4.1322   -2.7714   14.0418 H         1 MOL     0.0621
     27 H          -4.1882    0.7167   11.5364 H         1 MOL     0.0621
     28 H          -2.9516   -0.5232    9.7856 H         1 MOL     0.0620
     29 H          -4.9992    0.9451   13.6570 H         1 MOL     0.0406
     30 H          -6.1220   -1.7715   14.6384 H         1 MOL     0.0239
     31 H          -6.8005   -0.7390   13.3312 H         1 MOL     0.0239
     32 H          -6.7951   -0.1428   15.0315 H         1 MOL     0.0239
@<TRIPOS>BOND
     1    1    2 1 
     2    1   16 1 
     3    1   17 1 
     4    1   18 1 
     5    2    3 1 
     6    2    4 1 
     7    2   19 1 
     8    3   20 1 
     9    3   21 1 
    10    3   22 1 
    11    4    5 1 
    12    4   23 1 
    13    4   24 1 
    14    5    6 ar
    15    5   10 ar
    16    6    7 ar
    17    6   25 1 
    18    7    8 ar
    19    7   26 1 
    20    8    9 ar
    21    8   11 1 
    22    9   10 ar
    23    9   27 1 
    24   10   28 1 
    25   11   12 1 
    26   11   13 1 
    27   11   29 1 
    28   12   30 1 
    29   12   31 1 
    30   12   32 1 
    31   13   14 ar
    32   13   15 ar
@<TRIPOS>SUBSTRUCTURE
1 MOL         1
@<TRIPOS>MOLECULE
query molecule
   32    32     1     0     0
SMALL
NO_CHARGE

@<TRIPOS>ATOM
      1 C           3.0324   12.8713   18.5546 C.3       1 MOL     0.0072
      2 C           3.4206   12.4175   17.1300 C.3       1 MOL    -0.0128
      3 C           3.1101   13.5009   16.0677 C.3       1 MOL     0.0072
      4 C           4.8904   11.9345   17.0403 C.3       1 MOL     0.0379
      5 C           4.9964   10.6205   16.3313 C.ar      1 MOL    -0.0471
      6 C           4.0668   10.2017   15.3710 C.ar      1 MOL     0.0037
      7 C           4.1934    8.9564   14.7535 C.ar      1 MOL     0.0044
      8 C           5.2647    8.1040   15.0806 C.ar      1 MOL    -0.0391
      9 C           6.2070    8.5290   16.0251 C.ar      1 MOL     0.0044
     10 C           6.0721    9.7746   16.6487 C.ar      1 MOL     0.0037
     11 C           5.3506    6.7851   14.3845 C.3       1 MOL     0.0614
     12 C           6.4271    6.9199   13.2874 C.3       1 MOL     0.0185
     13 C           5.6282    5.5968   15.3125 C.2       1 MOL     0.0489
     14 O           6.6889    4.9262   15.1251 O.co2     1 MOL    -0.5492
     15 O           4.7082    5.3047   16.1391 O.co2     1 MOL    -0.5492
     16 H           1.9556   13.1473   18.5872 H         1 MOL     0.0232
     17 H           3.6310   13.7498   18.8697 H         1 MOL     0.0232
     18 H           3.2012   12.0462   19.2787 H         1 MOL     0.0232
     19 H           2.7784   11.5287   16.8959 H         1 MOL     0.0299
     20 H           3.7095   14.4135   16.2684 H         1 MOL     0.0232
     21 H           2.0335   13.7675   16.0903 H         1 MOL     0.0232
     22 H           3.3635   13.1260   15.0535 H         1 MOL     0.0232
     23 H           5.3025   11.7862   18.0631 H         1 MOL     0.0316
     24 H           5.5161   12.6752   16.5027 H         1 MOL     0.0316
     25 H           3.2413   10.8512   15.1144 H         1 MOL     0.0620
     26 H           3.4618    8.6503   14.0196 H         1 MOL     0.0621
     27 H           7.0407    7.8889   16.2746 H         1 MOL     0.0621
     28 H           6.8010   10.0857   17.3839 H         1 MOL     0.0620
     29 H           4.3800    6.5937   13.8578 H         1 MOL     0.0406
     30 H           7.4231    7.1165   13.7352 H         1 MOL     0.0239
     31 H           6.1783    7.7523   12.5959 H         1 MOL     0.0239
     32 H           6.4825    5.9791   12.6988 H         1 MOL     0.0239
@<TRIPOS>BOND
     1    1    2 1 
     2    1   16 1 
     3    1   17 1 
     4    1   18 1 
     5    2    3 1 
     6    2    4 1 
     7    2   19 1 
     8    3   20 1 
     9    3   21 1 
    10    3   22 1 
    11    4    5 1 
    12    4   23 1 
    13    4   24 1 
    14    5    6 ar
    15    5   10 ar
    16    6    7 ar
    17    6   25 1 
    18    7    8 ar
    19    7   26 1 
    20    8    9 ar
    21    8   11 1 
    22    9   10 ar
    23    9   27 1 
    24   10   28 1 
    25   11   12 1 
    26   11   13 1 
    27   11   29 1 
    28   12   30 1 
    29   12   31 1 
    30   12   32 1 
    31   13   14 ar
    32   13   15 ar
@<TRIPOS>SUBSTRUCTURE
1 MOL         1
@<TRIPOS>MOLECULE
query molecule
   32    32     1     0     0
SMALL
NO_CHARGE

@<TRIPOS>ATOM
      1 C           3.5233    5.3080   22.7085 C.3       1 MOL     0.0072
      2 C           3.3714    6.3951   23.7955 C.3       1 MOL    -0.0128
      3 C           2.3380    6.0636   24.8697 C.3       1 MOL     0.0072
      4 C           4.6846    6.7680   24.5038 C.3       1 MOL     0.0379
      5 C           5.5991    7.4484   23.5673 C.ar      1 MOL    -0.0471
      6 C           5.1254    8.1437   22.4514 C.ar      1 MOL     0.0037
      7 C           6.0099    8.6658   21.5340 C.ar      1 MOL     0.0044
      8 C           7.3787    8.5273   21.7570 C.ar      1 MOL    -0.0391
      9 C           7.8568    7.9067   22.9149 C.ar      1 MOL     0.0044
     10 C           6.9675    7.3523   23.8211 C.ar      1 MOL     0.0037
     11 C           8.3572    9.0519   20.7788 C.3       1 MOL     0.0614
     12 C           7.9552    8.6591   19.3623 C.3       1 MOL     0.0185
     13 C           8.3767   10.5336   21.0567 C.2       1 MOL     0.0489
     14 O           9.2902   10.8637   21.8740 O.co2     1 MOL    -0.5492
     15 O           7.4557   11.2762   20.6138 O.co2     1 MOL    -0.5492
     16 H           2.5775    5.1937   22.1395 H         1 MOL     0.0232
     17 H           3.7693    4.3308   23.1773 H         1 MOL     0.0232
     18 H           4.3352    5.5750   22.0054 H         1 MOL     0.0232
     19 H           3.0126    7.3181   23.2750 H         1 MOL     0.0299
     20 H           2.6537    5.1940   25.4720 H         1 MOL     0.0232
     21 H           1.3523    5.8599   24.4058 H         1 MOL     0.0232
     22 H           2.2361    6.9362   25.5461 H         1 MOL     0.0232
     23 H           5.1941    5.8624   24.8919 H         1 MOL     0.0316
     24 H           4.4865    7.4677   25.3412 H         1 MOL     0.0316
     25 H           4.0643    8.2492   22.2912 H         1 MOL     0.0620
     26 H           5.6473    9.1688   20.6514 H         1 MOL     0.0621
     27 H           8.9196    7.8472   23.0965 H         1 MOL     0.0621
     28 H           7.3254    6.8432   24.7018 H         1 MOL     0.0620
     29 H           9.3687    8.6392   21.0030 H         1 MOL     0.0406
     30 H           6.9422    9.0410   19.1245 H         1 MOL     0.0239
     31 H           7.9557    7.5510   19.2529 H         1 MOL     0.0239
     32 H           8.6764    9.0858   18.6352 H         1 MOL     0.0239
@<TRIPOS>BOND
     1    1    2 1 
     2    1   16 1 
     3    1   17 1 
     4    1   18 1 
     5    2    3 1 
     6    2    4 1 
     7    2   19 1 
     8    3   20 1 
     9    3   21 1 
    10    3   22 1 
    11    4    5 1 
    12    4   23 1 
    13    4   24 1 
    14    5    6 ar
    15    5   10 ar
    16    6    7 ar
    17    6   25 1 
    18    7    8 ar
    19    7   26 1 
    20    8    9 ar
    21    8   11 1 
    22    9   10 ar
    23    9   27 1 
    24   10   28 1 
    25   11   12 1 
    26   11   13 1 
    27   11   29 1 
    28   12   30 1 
    29   12   31 1 
    30   12   32 1 
    31   13   14 ar
    32   13   15 ar
@<TRIPOS>SUBSTRUCTURE
1 MOL         1
@<TRIPOS>MOLECULE
query molecule
   32    32     1     0     0
SMALL
NO_CHARGE

@<TRIPOS>ATOM
      1 C           5.2772    6.9858   20.7401 C.3       1 MOL     0.0072
      2 C           5.7981    8.4354   20.9311 C.3       1 MOL    -0.0128
      3 C           6.1192    8.6330   22.4385 C.3       1 MOL     0.0072
      4 C           7.0007    8.8502   20.0404 C.3       1 MOL     0.0379
      5 C           6.7837    8.6449   18.5779 C.ar      1 MOL    -0.0471
      6 C           6.8500    7.3585   18.0276 C.ar      1 MOL     0.0037
      7 C           6.5983    7.1484   16.6763 C.ar      1 MOL     0.0044
      8 C           6.3154    8.2224   15.8186 C.ar      1 MOL    -0.0391
      9 C           6.3081    9.5202   16.3635 C.ar      1 MOL     0.0044
     10 C           6.5266    9.7305   17.7297 C.ar      1 MOL     0.0037
     11 C           6.0461    8.0195   14.3576 C.3       1 MOL     0.0614
     12 C           5.9917    6.5358   13.9772 C.3       1 MOL     0.0185
     13 C           4.7342    8.6777   13.9264 C.2       1 MOL     0.0489
     14 O           4.9062    9.6723   13.1653 O.co2     1 MOL    -0.5492
     15 O           3.6432    8.2086   14.3499 O.co2     1 MOL    -0.5492
     16 H           4.4044    6.7999   21.3990 H         1 MOL     0.0232
     17 H           6.0802    6.2607   20.9879 H         1 MOL     0.0232
     18 H           4.9780    6.8162   19.6860 H         1 MOL     0.0232
     19 H           4.9490    9.1162   20.6793 H         1 MOL     0.0299
     20 H           6.9765    7.9923   22.7390 H         1 MOL     0.0232
     21 H           5.2413    8.3454   23.0578 H         1 MOL     0.0232
     22 H           6.3736    9.6904   22.6597 H         1 MOL     0.0232
     23 H           7.9085    8.2776   20.3253 H         1 MOL     0.0316
     24 H           7.2051    9.9365   20.1904 H         1 MOL     0.0316
     25 H           7.0861    6.5174   18.6627 H         1 MOL     0.0620
     26 H           6.6167    6.1432   16.2761 H         1 MOL     0.0621
     27 H           6.1284   10.3670   15.7152 H         1 MOL     0.0621
     28 H           6.5060   10.7362   18.1245 H         1 MOL     0.0620
     29 H           6.8662    8.4987   13.7662 H         1 MOL     0.0406
     30 H           5.1617    6.0379   14.5253 H         1 MOL     0.0239
     31 H           6.9417    6.0299   14.2432 H         1 MOL     0.0239
     32 H           5.8110    6.4152   12.8896 H         1 MOL     0.0239
@<TRIPOS>BOND
     1    1    2 1 
     2    1   16 1 
     3    1   17 1 
     4    1   18 1 
     5    2    3 1 
     6    2    4 1 
     7    2   19 1 
     8    3   20 1 
     9    3   21 1 
    10    3   22 1 
    11    4    5 1 
    12    4   23 1 
    13    4   24 1 
    14    5    6 ar
    15    5   10 ar
    16    6    7 ar
    17    6   25 1 
    18    7    8 ar
    19    7   26 1 
    20    8    9 ar
    21    8   11 1 
    22    9   10 ar
    23    9   27 1 
    24   10   28 1 
    25   11   12 1 
    26   11   13 1 
    27   11   29 1 
    28   12   30 1 
    29   12   31 1 
    30   12   32 1 
    31   13   14 ar
    32   13   15 ar
@<TRIPOS>SUBSTRUCTURE
1 MOL         1
@<TRIPOS>MOLECULE
query molecule
   32    32     1     0     0
SMALL
NO_CHARGE

@<TRIPOS>ATOM
      1 C           0.5508    9.0415   30.5671 C.3       1 MOL     0.0072
      2 C           1.9528    9.4131   31.1133 C.3       1 MOL    -0.0128
      3 C           2.3850    8.4579   32.2537 C.3       1 MOL     0.0072
      4 C           2.9986    9.4946   29.9755 C.3       1 MOL     0.0379
      5 C           4.0476   10.5080   30.2721 C.ar      1 MOL    -0.0471
      6 C           5.3959   10.1571   30.1539 C.ar      1 MOL     0.0037
      7 C           6.3931   11.0924   30.4385 C.ar      1 MOL     0.0044
      8 C           6.0614   12.4004   30.8485 C.ar      1 MOL    -0.0391
      9 C           4.7007   12.7381   30.9433 C.ar      1 MOL     0.0044
     10 C           3.7052   11.8081   30.6558 C.ar      1 MOL     0.0037
     11 C           7.1478   13.3993   31.1331 C.3       1 MOL     0.0614
     12 C           6.6984   14.5299   32.0841 C.3       1 MOL     0.0185
     13 C           8.3765   12.7100   31.7274 C.2       1 MOL     0.0489
     14 O           8.4143   12.5038   32.9760 O.co2     1 MOL    -0.5492
     15 O           9.2672   12.4050   30.8790 O.co2     1 MOL    -0.5492
     16 H          -0.1887    9.0252   31.3961 H         1 MOL     0.0232
     17 H           0.5705    8.0419   30.0875 H         1 MOL     0.0232
     18 H           0.2208    9.7923   29.8184 H         1 MOL     0.0232
     19 H           1.8629   10.4402   31.5540 H         1 MOL     0.0299
     20 H           2.4847    7.4215   31.8668 H         1 MOL     0.0232
     21 H           1.6289    8.4590   33.0668 H         1 MOL     0.0232
     22 H           3.3615    8.7723   32.6775 H         1 MOL     0.0232
     23 H           2.4979    9.8235   29.0374 H         1 MOL     0.0316
     24 H           3.4840    8.5148   29.8065 H         1 MOL     0.0316
     25 H           5.6655    9.1586   29.8430 H         1 MOL     0.0620
     26 H           7.4331   10.8107   30.3407 H         1 MOL     0.0621
     27 H           4.4241   13.7404   31.2418 H         1 MOL     0.0621
     28 H           2.6666   12.0929   30.7362 H         1 MOL     0.0620
     29 H           7.4616   13.8750   30.1682 H         1 MOL     0.0406
     30 H           6.3636   14.0970   33.0519 H         1 MOL     0.0239
     31 H           5.8467   15.0912   31.6456 H         1 MOL     0.0239
     32 H           7.5262   15.2404   32.2821 H         1 MOL     0.0239
@<TRIPOS>BOND
     1    1    2 1 
     2    1   16 1 
     3    1   17 1 
     4    1   18 1 
     5    2    3 1 
     6    2    4 1 
     7    2   19 1 
     8    3   20 1 
     9    3   21 1 
    10    3   22 1 
    11    4    5 1 
    12    4   23 1 
    13    4   24 1 
    14    5    6 ar
    15    5   10 ar
    16    6    7 ar
    17    6   25 1 
    18    7    8 ar
    19    7   26 1 
    20    8    9 ar
    21    8   11 1 
    22    9   10 ar
    23    9   27 1 
    24   10   28 1 
    25   11   12 1 
    26   11   13 1 
    27   11   29 1 
    28   12   30 1 
    29   12   31 1 
    30   12   32 1 
    31   13   14 ar
    32   13   15 ar
@<TRIPOS>SUBSTRUCTURE
1 MOL         1
@<TRIPOS>MOLECULE
query molecule
   32    32     1     0     0
SMALL
NO_CHARGE

@<TRIPOS>ATOM
      1 C           4.5263   -2.2197   18.2729 C.3       1 MOL     0.0072
      2 C           3.9894   -3.6498   18.5425 C.3       1 MOL    -0.0128
      3 C           3.5613   -4.3261   17.2165 C.3       1 MOL     0.0072
      4 C           4.9762   -4.5424   19.3333 C.3       1 MOL     0.0379
      5 C           5.0286   -4.1988   20.7839 C.ar      1 MOL    -0.0471
      6 C           6.0240   -3.3451   21.2749 C.ar      1 MOL     0.0037
      7 C           6.0891   -3.0587   22.6431 C.ar      1 MOL     0.0044
      8 C           5.1569   -3.6152   23.5464 C.ar      1 MOL    -0.0391
      9 C           4.1595   -4.4569   23.0414 C.ar      1 MOL     0.0044
     10 C           4.0978   -4.7535   21.6751 C.ar      1 MOL     0.0037
     11 C           5.2795   -3.2672   24.9955 C.3       1 MOL     0.0614
     12 C           4.5200   -1.9545   25.2269 C.3       1 MOL     0.0185
     13 C           4.7838   -4.3295   25.9754 C.2       1 MOL     0.0489
     14 O           5.6638   -5.1464   26.3654 O.co2     1 MOL    -0.5492
     15 O           3.5813   -4.2877   26.3706 O.co2     1 MOL    -0.5492
     16 H           3.7527   -1.6110   17.7521 H         1 MOL     0.0232
     17 H           5.4297   -2.2636   17.6349 H         1 MOL     0.0232
     18 H           4.7848   -1.7174   19.2279 H         1 MOL     0.0232
     19 H           3.0640   -3.5508   19.1685 H         1 MOL     0.0299
     20 H           4.4387   -4.4715   16.5532 H         1 MOL     0.0232
     21 H           2.8138   -3.6984   16.6873 H         1 MOL     0.0232
     22 H           3.1050   -5.3176   17.4234 H         1 MOL     0.0232
     23 H           5.9996   -4.4683   18.9153 H         1 MOL     0.0316
     24 H           4.6375   -5.6023   19.2718 H         1 MOL     0.0316
     25 H           6.7426   -2.9130   20.5931 H         1 MOL     0.0620
     26 H           6.8661   -2.4007   23.0081 H         1 MOL     0.0621
     27 H           3.4316   -4.8848   23.7168 H         1 MOL     0.0621
     28 H           3.3255   -5.4138   21.3040 H         1 MOL     0.0620
     29 H           6.3590   -3.0756   25.2280 H         1 MOL     0.0406
     30 H           3.4316   -2.1089   25.0128 H         1 MOL     0.0239
     31 H           4.8959   -1.1582   24.5562 H         1 MOL     0.0239
     32 H           4.6255   -1.6199   26.2784 H         1 MOL     0.0239
@<TRIPOS>BOND
     1    1    2 1 
     2    1   16 1 
     3    1   17 1 
     4    1   18 1 
     5    2    3 1 
     6    2    4 1 
     7    2   19 1 
     8    3   20 1 
     9    3   21 1 
    10    3   22 1 
    11    4    5 1 
    12    4   23 1 
    13    4   24 1 
    14    5    6 ar
    15    5   10 ar
    16    6    7 ar
    17    6   25 1 
    18    7    8 ar
    19    7   26 1 
    20    8    9 ar
    21    8   11 1 
    22    9   10 ar
    23    9   27 1 
    24   10   28 1 
    25   11   12 1 
    26   11   13 1 
    27   11   29 1 
    28   12   30 1 
    29   12   31 1 
    30   12   32 1 
    31   13   14 ar
    32   13   15 ar
@<TRIPOS>SUBSTRUCTURE
1 MOL         1
@<TRIPOS>MOLECULE
query molecule
   32    32     1     0     0
SMALL
NO_CHARGE

@<TRIPOS>ATOM
      1 C          10.1440   23.2046    2.5313 C.3       1 MOL     0.0072
      2 C          10.3459   21.7693    3.0831 C.3       1 MOL    -0.0128
      3 C           9.2799   21.4581    4.1614 C.3       1 MOL     0.0072
      4 C          10.3741   20.6761    1.9855 C.3       1 MOL     0.0379
      5 C          11.7219   20.4935    1.3699 C.ar      1 MOL    -0.0471
      6 C          12.5010   21.5722    0.9427 C.ar      1 MOL     0.0037
      7 C          13.7401   21.3628    0.3402 C.ar      1 MOL     0.0044
      8 C          14.2248   20.0618    0.1450 C.ar      1 MOL    -0.0391
      9 C          13.4598   18.9765    0.5843 C.ar      1 MOL     0.0044
     10 C          12.2205   19.1923    1.1956 C.ar      1 MOL     0.0037
     11 C          15.5484   19.9190   -0.5404 C.3       1 MOL     0.0614
     12 C          16.5198   19.2259    0.4317 C.3       1 MOL     0.0185
     13 C          15.4307   19.1668   -1.8687 C.2       1 MOL     0.0489
     14 O          14.2933   19.1578   -2.4181 O.co2     1 MOL    -0.5492
     15 O          16.4987   18.6592   -2.3274 O.co2     1 MOL    -0.5492
     16 H          10.2200   23.9491    3.3523 H         1 MOL     0.0232
     17 H           9.1425   23.3033    2.0600 H         1 MOL     0.0232
     18 H          10.9172   23.4383    1.7707 H         1 MOL     0.0232
     19 H          11.3401   21.7402    3.5987 H         1 MOL     0.0299
     20 H           8.2594   21.4926    3.7259 H         1 MOL     0.0232
     21 H           9.3347   22.2056    4.9823 H         1 MOL     0.0232
     22 H           9.4463   20.4499    4.5953 H         1 MOL     0.0232
     23 H           9.6464   20.9059    1.1815 H         1 MOL     0.0316
     24 H          10.1062   19.6963    2.4439 H         1 MOL     0.0316
     25 H          12.1396   22.5812    1.0800 H         1 MOL     0.0620
     26 H          14.3322   22.2074    0.0183 H         1 MOL     0.0621
     27 H          13.8237   17.9687    0.4449 H         1 MOL     0.0621
     28 H          11.6349   18.3463    1.5280 H         1 MOL     0.0620
     29 H          15.9561   20.9364   -0.7697 H         1 MOL     0.0406
     30 H          16.1709   18.2025    0.6756 H         1 MOL     0.0239
     31 H          16.5809   19.8136    1.3741 H         1 MOL     0.0239
     32 H          17.5372   19.1652   -0.0081 H         1 MOL     0.0239
@<TRIPOS>BOND
     1    1    2 1 
     2    1   16 1 
     3    1   17 1 
     4    1   18 1 
     5    2    3 1 
     6    2    4 1 
     7    2   19 1 
     8    3   20 1 
     9    3   21 1 
    10    3   22 1 
    11    4    5 1 
    12    4   23 1 
    13    4   24 1 
    14    5    6 ar
    15    5   10 ar
    16    6    7 ar
    17    6   25 1 
    18    7    8 ar
    19    7   26 1 
    20    8    9 ar
    21    8   11 1 
    22    9   10 ar
    23    9   27 1 
    24   10   28 1 
    25   11   12 1 
    26   11   13 1 
    27   11   29 1 
    28   12   30 1 
    29   12   31 1 
    30   12   32 1 
    31   13   14 ar
    32   13   15 ar
@<TRIPOS>SUBSTRUCTURE
1 MOL         1
@<TRIPOS>MOLECULE
query molecule
   32    32     1     0     0
SMALL
NO_CHARGE

@<TRIPOS>ATOM
      1 C          16.1581   18.4448    0.3769 C.3       1 MOL     0.0072
      2 C          15.2023   19.5990    0.7718 C.3       1 MOL    -0.0128
      3 C          15.9390   20.9634    0.7331 C.3       1 MOL     0.0072
      4 C          13.9083   19.5917   -0.0849 C.3       1 MOL     0.0379
      5 C          12.8043   20.2527    0.6643 C.ar      1 MOL    -0.0471
      6 C          12.3952   21.5487    0.3340 C.ar      1 MOL     0.0037
      7 C          11.3925   22.1774    1.0788 C.ar      1 MOL     0.0044
      8 C          10.7951   21.5157    2.1644 C.ar      1 MOL    -0.0391
      9 C          11.1752   20.1987    2.4499 C.ar      1 MOL     0.0044
     10 C          12.1757   19.5698    1.7108 C.ar      1 MOL     0.0037
     11 C           9.7898   22.2651    2.9929 C.3       1 MOL     0.0614
     12 C           8.5853   21.3488    3.2561 C.3       1 MOL     0.0185
     13 C          10.4422   22.7538    4.3010 C.2       1 MOL     0.0489
     14 O          11.6067   23.2441    4.1767 O.co2     1 MOL    -0.5492
     15 O           9.7822   22.6464    5.3785 O.co2     1 MOL    -0.5492
     16 H          17.0474   18.4357    1.0412 H         1 MOL     0.0232
     17 H          16.4993   18.5672   -0.6722 H         1 MOL     0.0232
     18 H          15.6371   17.4685    0.4688 H         1 MOL     0.0232
     19 H          14.8954   19.4120    1.8333 H         1 MOL     0.0299
     20 H          16.2772   21.1881   -0.3009 H         1 MOL     0.0232
     21 H          16.8296   20.9389    1.3961 H         1 MOL     0.0232
     22 H          15.2681   21.7802    1.0711 H         1 MOL     0.0232
     23 H          13.5838   18.5472   -0.2780 H         1 MOL     0.0316
     24 H          14.0555   20.1195   -1.0458 H         1 MOL     0.0316
     25 H          12.8584   22.0716   -0.4899 H         1 MOL     0.0620
     26 H          11.0833   23.1825    0.8295 H         1 MOL     0.0621
     27 H          10.6978   19.6704    3.2639 H         1 MOL     0.0621
     28 H          12.4716   18.5602    1.9527 H         1 MOL     0.0620
     29 H           9.4454   23.1659    2.4278 H         1 MOL     0.0406
     30 H           8.8990   20.4616    3.8484 H         1 MOL     0.0239
     31 H           8.1587   20.9915    2.2949 H         1 MOL     0.0239
     32 H           7.7960   21.8859    3.8204 H         1 MOL     0.0239
@<TRIPOS>BOND
     1    1    2 1 
     2    1   16 1 
     3    1   17 1 
     4    1   18 1 
     5    2    3 1 
     6    2    4 1 
     7    2   19 1 
     8    3   20 1 
     9    3   21 1 
    10    3   22 1 
    11    4    5 1 
    12    4   23 1 
    13    4   24 1 
    14    5    6 ar
    15    5   10 ar
    16    6    7 ar
    17    6   25 1 
    18    7    8 ar
    19    7   26 1 
    20    8    9 ar
    21    8   11 1 
    22    9   10 ar
    23    9   27 1 
    24   10   28 1 
    25   11   12 1 
    26   11   13 1 
    27   11   29 1 
    28   12   30 1 
    29   12   31 1 
    30   12   32 1 
    31   13   14 ar
    32   13   15 ar
@<TRIPOS>SUBSTRUCTURE
1 MOL         1
@<TRIPOS>MOLECULE
query molecule
   32    32     1     0     0
SMALL
NO_CHARGE

@<TRIPOS>ATOM
      1 C           7.8455   -5.9833   19.7898 C.3       1 MOL     0.0072
      2 C           8.9273   -5.7304   20.8721 C.3       1 MOL    -0.0128
      3 C          10.3182   -6.2402   20.4072 C.3       1 MOL     0.0072
      4 C           8.9599   -4.2649   21.3855 C.3       1 MOL     0.0379
      5 C           7.7578   -3.9297   22.2055 C.ar      1 MOL    -0.0471
      6 C           7.4980   -4.6309   23.3846 C.ar      1 MOL     0.0037
      7 C           6.3668   -4.3333   24.1422 C.ar      1 MOL     0.0044
      8 C           5.4735   -3.3231   23.7532 C.ar      1 MOL    -0.0391
      9 C           5.7517   -2.6059   22.5744 C.ar      1 MOL     0.0044
     10 C           6.8828   -2.9126   21.8043 C.ar      1 MOL     0.0037
     11 C           4.2369   -3.0032   24.5476 C.3       1 MOL     0.0614
     12 C           3.0699   -3.8394   23.9818 C.3       1 MOL     0.0185
     13 C           4.3567   -3.3443   26.0373 C.2       1 MOL     0.0489
     14 O           4.3216   -2.3466   26.8070 O.co2     1 MOL    -0.5492
     15 O           4.4741   -4.5580   26.3787 O.co2     1 MOL    -0.5492
     16 H           7.7997   -7.0645   19.5373 H         1 MOL     0.0232
     17 H           8.0638   -5.4078   18.8655 H         1 MOL     0.0232
     18 H           6.8536   -5.6720   20.1764 H         1 MOL     0.0232
     19 H           8.6558   -6.3680   21.7553 H         1 MOL     0.0299
     20 H          10.6853   -5.6756   19.5246 H         1 MOL     0.0232
     21 H          10.2598   -7.3170   20.1300 H         1 MOL     0.0232
     22 H          11.0635   -6.1350   21.2247 H         1 MOL     0.0232
     23 H           9.0158   -3.5524   20.5399 H         1 MOL     0.0316
     24 H           9.8510   -4.1261   22.0370 H         1 MOL     0.0316
     25 H           8.1606   -5.4127   23.7228 H         1 MOL     0.0620
     26 H           6.1647   -4.8784   25.0507 H         1 MOL     0.0621
     27 H           5.0879   -1.8160   22.2543 H         1 MOL     0.0621
     28 H           7.0780   -2.3694   20.8933 H         1 MOL     0.0620
     29 H           3.9891   -1.9173   24.4479 H         1 MOL     0.0406
     30 H           3.2936   -4.9227   24.0947 H         1 MOL     0.0239
     31 H           2.9213   -3.6224   22.9033 H         1 MOL     0.0239
     32 H           2.1264   -3.6158   24.5206 H         1 MOL     0.0239
@<TRIPOS>BOND
     1    1    2 1 
     2    1   16 1 
     3    1   17 1 
     4    1   18 1 
     5    2    3 1 
     6    2    4 1 
     7    2   19 1 
     8    3   20 1 
     9    3   21 1 
    10    3   22 1 
    11    4    5 1 
    12    4   23 1 
    13    4   24 1 
    14    5    6 ar
    15    5   10 ar
    16    6    7 ar
    17    6   25 1 
    18    7    8 ar
    19    7   26 1 
    20    8    9 ar
    21    8   11 1 
    22    9   10 ar
    23    9   27 1 
    24   10   28 1 
    25   11   12 1 
    26   11   13 1 
    27   11   29 1 
    28   12   30 1 
    29   12   31 1 
    30   12   32 1 
    31   13   14 ar
    32   13   15 ar
@<TRIPOS>SUBSTRUCTURE
1 MOL         1
@<TRIPOS>MOLECULE
query molecule
   32    32     1     0     0
SMALL
NO_CHARGE

@<TRIPOS>ATOM
      1 C           9.7785   22.1907    4.2724 C.3       1 MOL     0.0072
      2 C          10.4688   22.2464    2.8845 C.3       1 MOL    -0.0128
      3 C           9.4180   22.1211    1.7501 C.3       1 MOL     0.0072
      4 C          11.3569   23.5124    2.7266 C.3       1 MOL     0.0379
      5 C          12.6453   23.3509    3.4635 C.ar      1 MOL    -0.0471
      6 C          12.8338   24.0403    4.6659 C.ar      1 MOL     0.0037
      7 C          14.0173   23.8793    5.3885 C.ar      1 MOL     0.0044
      8 C          15.0275   23.0137    4.9421 C.ar      1 MOL    -0.0391
      9 C          14.8507   22.3574    3.7105 C.ar      1 MOL     0.0044
     10 C          13.6692   22.5276    2.9750 C.ar      1 MOL     0.0037
     11 C          16.2832   22.7663    5.7284 C.3       1 MOL     0.0614
     12 C          16.9748   24.1256    5.9686 C.3       1 MOL     0.0185
     13 C          16.0124   22.0800    7.0673 C.2       1 MOL     0.0489
     14 O          15.4060   22.7307    7.9681 O.co2     1 MOL    -0.5492
     15 O          16.4399   20.8911    7.1575 O.co2     1 MOL    -0.5492
     16 H           9.1830   21.2619    4.3820 H         1 MOL     0.0232
     17 H           9.1085   23.0671    4.3997 H         1 MOL     0.0232
     18 H          10.5468   22.2181    5.0768 H         1 MOL     0.0232
     19 H          11.1447   21.3571    2.7961 H         1 MOL     0.0299
     20 H           8.7189   22.9828    1.7763 H         1 MOL     0.0232
     21 H           8.8332   21.1852    1.8744 H         1 MOL     0.0232
     22 H           9.9161   22.0971    0.7581 H         1 MOL     0.0232
     23 H          10.8352   24.4041    3.1306 H         1 MOL     0.0316
     24 H          11.6104   23.6852    1.6597 H         1 MOL     0.0316
     25 H          12.0596   24.6919    5.0395 H         1 MOL     0.0620
     26 H          14.1501   24.4148    6.3184 H         1 MOL     0.0621
     27 H          15.6321   21.7138    3.3321 H         1 MOL     0.0621
     28 H          13.5481   22.0153    2.0312 H         1 MOL     0.0620
     29 H          16.9717   22.1204    5.1323 H         1 MOL     0.0406
     30 H          16.3169   24.7878    6.5704 H         1 MOL     0.0239
     31 H          17.1796   24.6262    4.9975 H         1 MOL     0.0239
     32 H          17.9331   23.9919    6.5087 H         1 MOL     0.0239
@<TRIPOS>BOND
     1    1    2 1 
     2    1   16 1 
     3    1   17 1 
     4    1   18 1 
     5    2    3 1 
     6    2    4 1 
     7    2   19 1 
     8    3   20 1 
     9    3   21 1 
    10    3   22 1 
    11    4    5 1 
    12    4   23 1 
    13    4   24 1 
    14    5    6 ar
    15    5   10 ar
    16    6    7 ar
    17    6   25 1 
    18    7    8 ar
    19    7   26 1 
    20    8    9 ar
    21    8   11 1 
    22    9   10 ar
    23    9   27 1 
    24   10   28 1 
    25   11   12 1 
    26   11   13 1 
    27   11   29 1 
    28   12   30 1 
    29   12   31 1 
    30   12   32 1 
    31   13   14 ar
    32   13   15 ar
@<TRIPOS>SUBSTRUCTURE
1 MOL         1
@<TRIPOS>MOLECULE
query molecule
   32    32     1     0     0
SMALL
NO_CHARGE

@<TRIPOS>ATOM
      1 C           0.2434   15.7301   18.1734 C.3       1 MOL     0.0072
      2 C          -1.1521   16.1626   18.7021 C.3       1 MOL    -0.0128
      3 C          -1.7590   15.0838   19.6435 C.3       1 MOL     0.0072
      4 C          -1.1379   17.5426   19.3997 C.3       1 MOL     0.0379
      5 C          -0.6735   18.6252   18.4944 C.ar      1 MOL    -0.0471
      6 C           0.6731   19.0034   18.5027 C.ar      1 MOL     0.0037
      7 C           1.1130   20.0477   17.6926 C.ar      1 MOL     0.0044
      8 C           0.2131   20.7361   16.8692 C.ar      1 MOL    -0.0391
      9 C          -1.1340   20.3335   16.8436 C.ar      1 MOL     0.0044
     10 C          -1.5748   19.2817   17.6523 C.ar      1 MOL     0.0037
     11 C           0.6182   21.8943   16.0153 C.3       1 MOL     0.0614
     12 C           1.5693   22.8422   16.7571 C.3       1 MOL     0.0185
     13 C           1.3098   21.4024   14.7556 C.2       1 MOL     0.0489
     14 O           2.3223   20.6558   14.8815 O.co2     1 MOL    -0.5492
     15 O           0.7802   21.7767   13.6719 O.co2     1 MOL    -0.5492
     16 H           0.1762   14.7399   17.6782 H         1 MOL     0.0232
     17 H           0.9654   15.6599   19.0134 H         1 MOL     0.0232
     18 H           0.6205   16.4729   17.4403 H         1 MOL     0.0232
     19 H          -1.8341   16.2443   17.8169 H         1 MOL     0.0299
     20 H          -1.1134   14.9531   20.5390 H         1 MOL     0.0232
     21 H          -1.8304   14.1082   19.1182 H         1 MOL     0.0232
     22 H          -2.7733   15.3800   19.9818 H         1 MOL     0.0232
     23 H          -0.4622   17.5254   20.2806 H         1 MOL     0.0316
     24 H          -2.1636   17.8081   19.7364 H         1 MOL     0.0316
     25 H           1.3724   18.4841   19.1411 H         1 MOL     0.0620
     26 H           2.1544   20.3355   17.7072 H         1 MOL     0.0621
     27 H          -1.8355   20.8449   16.1988 H         1 MOL     0.0621
     28 H          -2.6128   18.9834   17.6309 H         1 MOL     0.0620
     29 H          -0.2901   22.4682   15.7075 H         1 MOL     0.0406
     30 H           2.4845   22.2967   17.0714 H         1 MOL     0.0239
     31 H           1.0774   23.2560   17.6625 H         1 MOL     0.0239
     32 H           1.8679   23.6841   16.0986 H         1 MOL     0.0239
@<TRIPOS>BOND
     1    1    2 1 
     2    1   16 1 
     3    1   17 1 
     4    1   18 1 
     5    2    3 1 
     6    2    4 1 
     7    2   19 1 
     8    3   20 1 
     9    3   21 1 
    10    3   22 1 
    11    4    5 1 
    12    4   23 1 
    13    4   24 1 
    14    5    6 ar
    15    5   10 ar
    16    6    7 ar
    17    6   25 1 
    18    7    8 ar
    19    7   26 1 
    20    8    9 ar
    21    8   11 1 
    22    9   10 ar
    23    9   27 1 
    24   10   28 1 
    25   11   12 1 
    26   11   13 1 
    27   11   29 1 
    28   12   30 1 
    29   12   31 1 
    30   12   32 1 
    31   13   14 ar
    32   13   15 ar
@<TRIPOS>SUBSTRUCTURE
1 MOL         1
@<TRIPOS>MOLECULE
query molecule
   32    32     1     0     0
SMALL
NO_CHARGE

@<TRIPOS>ATOM
      1 C          -0.9102   25.2307    8.1562 C.3       1 MOL     0.0072
      2 C          -0.1012   25.6642    9.4101 C.3       1 MOL    -0.0128
      3 C          -1.0509   26.0496   10.5747 C.3       1 MOL     0.0072
      4 C           0.9205   24.5761    9.8191 C.3       1 MOL     0.0379
      5 C           2.1687   25.1700   10.3677 C.ar      1 MOL    -0.0471
      6 C           2.4156   25.1573   11.7413 C.ar      1 MOL     0.0037
      7 C           3.6048   25.6771   12.2552 C.ar      1 MOL     0.0044
      8 C           4.5613   26.2327   11.3977 C.ar      1 MOL    -0.0391
      9 C           4.3025   26.2504   10.0194 C.ar      1 MOL     0.0044
     10 C           3.1187   25.7223    9.5044 C.ar      1 MOL     0.0037
     11 C           5.8516   26.8090   11.8936 C.3       1 MOL     0.0614
     12 C           5.5680   27.9212   12.9175 C.3       1 MOL     0.0185
     13 C           6.6884   25.7044   12.5319 C.2       1 MOL     0.0489
     14 O           6.4944   25.4167   13.7413 O.co2     1 MOL    -0.5492
     15 O           7.5135   25.1567   11.7543 O.co2     1 MOL    -0.5492
     16 H          -1.6076   26.0389    7.8491 H         1 MOL     0.0232
     17 H          -1.5029   24.3171    8.3715 H         1 MOL     0.0232
     18 H          -0.2249   25.0165    7.3092 H         1 MOL     0.0232
     19 H           0.4772   26.5784    9.1215 H         1 MOL     0.0299
     20 H          -1.6567   25.1706   10.8824 H         1 MOL     0.0232
     21 H          -1.7429   26.8578   10.2562 H         1 MOL     0.0232
     22 H          -0.4701   26.4039   11.4511 H         1 MOL     0.0232
     23 H           1.2169   23.9921    8.9190 H         1 MOL     0.0316
     24 H           0.4895   23.8885   10.5724 H         1 MOL     0.0316
     25 H           1.6817   24.7371   12.4125 H         1 MOL     0.0620
     26 H           3.7871   25.6518   13.3197 H         1 MOL     0.0621
     27 H           5.0324   26.6767    9.3449 H         1 MOL     0.0621
     28 H           2.9363   25.7386    8.4402 H         1 MOL     0.0620
     29 H           6.4282   27.2380   11.0384 H         1 MOL     0.0406
     30 H           5.0343   27.4988   13.7957 H         1 MOL     0.0239
     31 H           4.9288   28.7123   12.4732 H         1 MOL     0.0239
     32 H           6.5104   28.3883   13.2690 H         1 MOL     0.0239
@<TRIPOS>BOND
     1    1    2 1 
     2    1   16 1 
     3    1   17 1 
     4    1   18 1 
     5    2    3 1 
     6    2    4 1 
     7    2   19 1 
     8    3   20 1 
     9    3   21 1 
    10    3   22 1 
    11    4    5 1 
    12    4   23 1 
    13    4   24 1 
    14    5    6 ar
    15    5   10 ar
    16    6    7 ar
    17    6   25 1 
    18    7    8 ar
    19    7   26 1 
    20    8    9 ar
    21    8   11 1 
    22    9   10 ar
    23    9   27 1 
    24   10   28 1 
    25   11   12 1 
    26   11   13 1 
    27   11   29 1 
    28   12   30 1 
    29   12   31 1 
    30   12   32 1 
    31   13   14 ar
    32   13   15 ar
@<TRIPOS>SUBSTRUCTURE
1 MOL         1
@<TRIPOS>MOLECULE
query molecule
   32    32     1     0     0
SMALL
NO_CHARGE

@<TRIPOS>ATOM
      1 C           4.1509   -2.5975   25.9278 C.3       1 MOL     0.0072
      2 C           3.5383   -3.8704   25.2965 C.3       1 MOL    -0.0128
      3 C           2.1641   -4.2524   25.8936 C.3       1 MOL     0.0072
      4 C           3.4367   -3.7782   23.7569 C.3       1 MOL     0.0379
      5 C           4.7526   -4.1151   23.1521 C.ar      1 MOL    -0.0471
      6 C           5.5445   -3.1141   22.5809 C.ar      1 MOL     0.0037
      7 C           6.7971   -3.4328   22.0527 C.ar      1 MOL     0.0044
      8 C           7.2657   -4.7507   22.0919 C.ar      1 MOL    -0.0391
      9 C           6.4478   -5.7601   22.6280 C.ar      1 MOL     0.0044
     10 C           5.1972   -5.4421   23.1576 C.ar      1 MOL     0.0037
     11 C           8.5930   -5.1732   21.5816 C.3       1 MOL     0.0614
     12 C           8.6143   -4.9392   20.0643 C.3       1 MOL     0.0185
     13 C           9.7827   -4.4558   22.1931 C.2       1 MOL     0.0489
     14 O          10.8863   -5.0144   21.9046 O.co2     1 MOL    -0.5492
     15 O           9.6211   -3.4061   22.8781 O.co2     1 MOL    -0.5492
     16 H           4.2643   -2.7184   27.0246 H         1 MOL     0.0232
     17 H           3.4935   -1.7190   25.7385 H         1 MOL     0.0232
     18 H           5.1483   -2.3869   25.4875 H         1 MOL     0.0232
     19 H           4.2299   -4.7210   25.5301 H         1 MOL     0.0299
     20 H           1.4141   -3.4605   25.6872 H         1 MOL     0.0232
     21 H           2.2429   -4.3870   26.9929 H         1 MOL     0.0232
     22 H           1.8040   -5.2037   25.4473 H         1 MOL     0.0232
     23 H           3.1376   -2.7652   23.4300 H         1 MOL     0.0316
     24 H           2.7030   -4.5227   23.3802 H         1 MOL     0.0316
     25 H           5.1854   -2.0965   22.5495 H         1 MOL     0.0620
     26 H           7.4089   -2.6585   21.6139 H         1 MOL     0.0621
     27 H           6.7895   -6.7853   22.6342 H         1 MOL     0.0621
     28 H           4.5761   -6.2195   23.5780 H         1 MOL     0.0620
     29 H           8.7186   -6.2694   21.7683 H         1 MOL     0.0406
     30 H           8.4891   -3.8571   19.8515 H         1 MOL     0.0239
     31 H           7.7935   -5.4993   19.5721 H         1 MOL     0.0239
     32 H           9.5822   -5.2767   19.6387 H         1 MOL     0.0239
@<TRIPOS>BOND
     1    1    2 1 
     2    1   16 1 
     3    1   17 1 
     4    1   18 1 
     5    2    3 1 
     6    2    4 1 
     7    2   19 1 
     8    3   20 1 
     9    3   21 1 
    10    3   22 1 
    11    4    5 1 
    12    4   23 1 
    13    4   24 1 
    14    5    6 ar
    15    5   10 ar
    16    6    7 ar
    17    6   25 1 
    18    7    8 ar
    19    7   26 1 
    20    8    9 ar
    21    8   11 1 
    22    9   10 ar
    23    9   27 1 
    24   10   28 1 
    25   11   12 1 
    26   11   13 1 
    27   11   29 1 
    28   12   30 1 
    29   12   31 1 
    30   12   32 1 
    31   13   14 ar
    32   13   15 ar
@<TRIPOS>SUBSTRUCTURE
1 MOL         1
@<TRIPOS>MOLECULE
query molecule
   32    32     1     0     0
SMALL
NO_CHARGE

@<TRIPOS>ATOM
      1 C          15.6604    8.6773    2.5265 C.3       1 MOL     0.0072
      2 C          14.8971    8.9734    1.2130 C.3       1 MOL    -0.0128
      3 C          14.4535   10.4520    1.1238 C.3       1 MOL     0.0072
      4 C          15.7033    8.4887   -0.0163 C.3       1 MOL     0.0379
      5 C          14.7749    8.0712   -1.1031 C.ar      1 MOL    -0.0471
      6 C          14.2034    6.7919   -1.0770 C.ar      1 MOL     0.0037
      7 C          13.3134    6.3960   -2.0790 C.ar      1 MOL     0.0044
      8 C          12.9876    7.2743   -3.1209 C.ar      1 MOL    -0.0391
      9 C          13.5836    8.5486   -3.1551 C.ar      1 MOL     0.0044
     10 C          14.4747    8.9435   -2.1541 C.ar      1 MOL     0.0037
     11 C          12.0349    6.9099   -4.2175 C.3       1 MOL     0.0614
     12 C          12.7144    5.8656   -5.1225 C.3       1 MOL     0.0185
     13 C          10.7147    6.3699   -3.6585 C.2       1 MOL     0.0489
     14 O           9.9123    7.2648   -3.2586 O.co2     1 MOL    -0.5492
     15 O          10.5227    5.1151   -3.6194 O.co2     1 MOL    -0.5492
     16 H          15.0283    8.9586    3.3953 H         1 MOL     0.0232
     17 H          16.6056    9.2523    2.5666 H         1 MOL     0.0232
     18 H          15.8874    7.5925    2.6032 H         1 MOL     0.0232
     19 H          13.9645    8.3497    1.2428 H         1 MOL     0.0299
     20 H          15.3462   11.1094    1.1013 H         1 MOL     0.0232
     21 H          13.8282   10.7199    2.0002 H         1 MOL     0.0232
     22 H          13.8597   10.6178    0.2007 H         1 MOL     0.0232
     23 H          16.2969    7.5886    0.2562 H         1 MOL     0.0316
     24 H          16.3774    9.2783   -0.3922 H         1 MOL     0.0316
     25 H          14.4509    6.1100   -0.2769 H         1 MOL     0.0620
     26 H          12.8755    5.4095   -2.0506 H         1 MOL     0.0621
     27 H          13.3522    9.2266   -3.9650 H         1 MOL     0.0621
     28 H          14.9316    9.9223   -2.1913 H         1 MOL     0.0620
     29 H          11.8217    7.8133   -4.8416 H         1 MOL     0.0406
     30 H          12.9354    4.9435   -4.5464 H         1 MOL     0.0239
     31 H          13.6658    6.2656   -5.5321 H         1 MOL     0.0239
     32 H          12.0468    5.6031   -5.9697 H         1 MOL     0.0239
@<TRIPOS>BOND
     1    1    2 1 
     2    1   16 1 
     3    1   17 1 
     4    1   18 1 
     5    2    3 1 
     6    2    4 1 
     7    2   19 1 
     8    3   20 1 
     9    3   21 1 
    10    3   22 1 
    11    4    5 1 
    12    4   23 1 
    13    4   24 1 
    14    5    6 ar
    15    5   10 ar
    16    6    7 ar
    17    6   25 1 
    18    7    8 ar
    19    7   26 1 
    20    8    9 ar
    21    8   11 1 
    22    9   10 ar
    23    9   27 1 
    24   10   28 1 
    25   11   12 1 
    26   11   13 1 
    27   11   29 1 
    28   12   30 1 
    29   12   31 1 
    30   12   32 1 
    31   13   14 ar
    32   13   15 ar
@<TRIPOS>SUBSTRUCTURE
1 MOL         1
@<TRIPOS>MOLECULE
query molecule
   32    32     1     0     0
SMALL
NO_CHARGE

@<TRIPOS>ATOM
      1 C           4.5265   -3.9068   14.7764 C.3       1 MOL     0.0072
      2 C           4.0184   -5.2089   15.4433 C.3       1 MOL    -0.0128
      3 C           3.3348   -6.1338   14.4005 C.3       1 MOL     0.0072
      4 C           5.1183   -5.9753   16.2101 C.3       1 MOL     0.0379
      5 C           5.5215   -5.3699   17.5063 C.ar      1 MOL    -0.0471
      6 C           4.8501   -4.3105   18.1232 C.ar      1 MOL     0.0037
      7 C           5.3122   -3.7838   19.3341 C.ar      1 MOL     0.0044
      8 C           6.4560   -4.3205   19.9504 C.ar      1 MOL    -0.0391
      9 C           7.1093   -5.4050   19.3489 C.ar      1 MOL     0.0044
     10 C           6.6506   -5.9212   18.1366 C.ar      1 MOL     0.0037
     11 C           6.9409   -3.7181   21.2319 C.3       1 MOL     0.0614
     12 C           6.6966   -4.7463   22.3600 C.3       1 MOL     0.0185
     13 C           8.4278   -3.3356   21.1871 C.2       1 MOL     0.0489
     14 O           9.0401   -3.3460   22.3004 O.co2     1 MOL    -0.5492
     15 O           8.9202   -2.9683   20.0742 O.co2     1 MOL    -0.5492
     16 H           3.6907   -3.3597   14.2906 H         1 MOL     0.0232
     17 H           5.2885   -4.1489   14.0060 H         1 MOL     0.0232
     18 H           4.9927   -3.2464   15.5365 H         1 MOL     0.0232
     19 H           3.2359   -4.9184   16.1903 H         1 MOL     0.0299
     20 H           4.0689   -6.4899   13.6494 H         1 MOL     0.0232
     21 H           2.5230   -5.5874   13.8759 H         1 MOL     0.0232
     22 H           2.8915   -7.0163   14.9098 H         1 MOL     0.0232
     23 H           6.0280   -6.0741   15.5797 H         1 MOL     0.0316
     24 H           4.7436   -6.9985   16.4476 H         1 MOL     0.0316
     25 H           3.9690   -3.8940   17.6555 H         1 MOL     0.0620
     26 H           4.7841   -2.9613   19.7951 H         1 MOL     0.0621
     27 H           7.9767   -5.8389   19.8251 H         1 MOL     0.0621
     28 H           7.1708   -6.7496   17.6767 H         1 MOL     0.0620
     29 H           6.3416   -2.8053   21.4670 H         1 MOL     0.0406
     30 H           7.3168   -5.6531   22.1995 H         1 MOL     0.0239
     31 H           5.6292   -5.0484   22.3884 H         1 MOL     0.0239
     32 H           6.9670   -4.3054   23.3433 H         1 MOL     0.0239
@<TRIPOS>BOND
     1    1    2 1 
     2    1   16 1 
     3    1   17 1 
     4    1   18 1 
     5    2    3 1 
     6    2    4 1 
     7    2   19 1 
     8    3   20 1 
     9    3   21 1 
    10    3   22 1 
    11    4    5 1 
    12    4   23 1 
    13    4   24 1 
    14    5    6 ar
    15    5   10 ar
    16    6    7 ar
    17    6   25 1 
    18    7    8 ar
    19    7   26 1 
    20    8    9 ar
    21    8   11 1 
    22    9   10 ar
    23    9   27 1 
    24   10   28 1 
    25   11   12 1 
    26   11   13 1 
    27   11   29 1 
    28   12   30 1 
    29   12   31 1 
    30   12   32 1 
    31   13   14 ar
    32   13   15 ar
@<TRIPOS>SUBSTRUCTURE
1 MOL         1
@<TRIPOS>MOLECULE
query molecule
   32    32     1     0     0
SMALL
NO_CHARGE

@<TRIPOS>ATOM
      1 C          14.8994   26.4529    5.1916 C.3       1 MOL     0.0072
      2 C          14.1866   25.0919    5.0168 C.3       1 MOL    -0.0128
      3 C          14.8782   23.9804    5.8447 C.3       1 MOL     0.0072
      4 C          12.6617   25.2057    5.2789 C.3       1 MOL     0.0379
      5 C          11.8789   24.1569    4.5523 C.ar      1 MOL    -0.0471
      6 C          10.5551   23.9036    4.9406 C.ar      1 MOL     0.0037
      7 C           9.7810   22.9686    4.2428 C.ar      1 MOL     0.0044
      8 C          10.3048   22.2854    3.1327 C.ar      1 MOL    -0.0391
      9 C          11.6383   22.5089    2.7720 C.ar      1 MOL     0.0044
     10 C          12.4109   23.4346    3.4730 C.ar      1 MOL     0.0037
     11 C           9.3899   21.3842    2.3735 C.3       1 MOL     0.0614
     12 C           9.4297   21.7466    0.8740 C.3       1 MOL     0.0185
     13 C           9.7268   19.9062    2.4996 C.2       1 MOL     0.0489
     14 O           8.7088   19.1537    2.4144 O.co2     1 MOL    -0.5492
     15 O          10.9250   19.5464    2.6553 O.co2     1 MOL    -0.5492
     16 H          15.9535   26.3833    4.8488 H         1 MOL     0.0232
     17 H          14.8854   26.7495    6.2596 H         1 MOL     0.0232
     18 H          14.3846   27.2320    4.5908 H         1 MOL     0.0232
     19 H          14.2949   24.8149    3.9350 H         1 MOL     0.0299
     20 H          14.8673   24.2529    6.9202 H         1 MOL     0.0232
     21 H          15.9307   23.8466    5.5175 H         1 MOL     0.0232
     22 H          14.3439   23.0158    5.7131 H         1 MOL     0.0232
     23 H          12.3089   26.1852    4.8770 H         1 MOL     0.0316
     24 H          12.4227   25.1736    6.3588 H         1 MOL     0.0316
     25 H          10.1277   24.4406    5.7748 H         1 MOL     0.0620
     26 H           8.7672   22.7858    4.5561 H         1 MOL     0.0621
     27 H          12.0671   21.9664    1.9415 H         1 MOL     0.0621
     28 H          13.4379   23.6012    3.1739 H         1 MOL     0.0620
     29 H           8.3415   21.5220    2.7408 H         1 MOL     0.0406
     30 H          10.4710   21.6760    0.4922 H         1 MOL     0.0239
     31 H           9.0679   22.7833    0.7126 H         1 MOL     0.0239
     32 H           8.7925   21.0510    0.2896 H         1 MOL     0.0239
@<TRIPOS>BOND
     1    1    2 1 
     2    1   16 1 
     3    1   17 1 
     4    1   18 1 
     5    2    3 1 
     6    2    4 1 
     7    2   19 1 
     8    3   20 1 
     9    3   21 1 
    10    3   22 1 
    11    4    5 1 
    12    4   23 1 
    13    4   24 1 
    14    5    6 ar
    15    5   10 ar
    16    6    7 ar
    17    6   25 1 
    18    7    8 ar
    19    7   26 1 
    20    8    9 ar
    21    8   11 1 
    22    9   10 ar
    23    9   27 1 
    24   10   28 1 
    25   11   12 1 
    26   11   13 1 
    27   11   29 1 
    28   12   30 1 
    29   12   31 1 
    30   12   32 1 
    31   13   14 ar
    32   13   15 ar
@<TRIPOS>SUBSTRUCTURE
1 MOL         1
@<TRIPOS>MOLECULE
query molecule
   32    32     1     0     0
SMALL
NO_CHARGE

@<TRIPOS>ATOM
      1 C           1.3763   18.3745   18.1295 C.3       1 MOL     0.0072
      2 C           0.1041   19.1188   18.5979 C.3       1 MOL    -0.0128
      3 C           0.1370   20.6012   18.1407 C.3       1 MOL     0.0072
      4 C          -1.1833   18.4012   18.1335 C.3       1 MOL     0.0379
      5 C          -1.5948   17.3493   19.1089 C.ar      1 MOL    -0.0471
      6 C          -2.2343   17.7171   20.2986 C.ar      1 MOL     0.0037
      7 C          -2.6793   16.7341   21.1866 C.ar      1 MOL     0.0044
      8 C          -2.5050   15.3618   20.9043 C.ar      1 MOL    -0.0391
      9 C          -1.8407   15.0109   19.7292 C.ar      1 MOL     0.0044
     10 C          -1.3818   15.9931   18.8387 C.ar      1 MOL     0.0037
     11 C          -3.0839   14.4006   21.8775 C.3       1 MOL     0.0614
     12 C          -4.5419   14.1182   21.4595 C.3       1 MOL     0.0185
     13 C          -2.3873   13.0722   22.0463 C.2       1 MOL     0.0489
     14 O          -1.8521   12.9440   23.1848 O.co2     1 MOL    -0.5492
     15 O          -2.4814   12.2024   21.1394 O.co2     1 MOL    -0.5492
     16 H           2.2808   18.8777   18.5352 H         1 MOL     0.0232
     17 H           1.4390   18.3687   17.0224 H         1 MOL     0.0232
     18 H           1.3671   17.3265   18.4959 H         1 MOL     0.0232
     19 H           0.0948   19.1249   19.7180 H         1 MOL     0.0299
     20 H           0.1610   20.6690   17.0330 H         1 MOL     0.0232
     21 H           1.0371   21.1102   18.5475 H         1 MOL     0.0232
     22 H          -0.7643   21.1360   18.5102 H         1 MOL     0.0232
     23 H          -1.0422   17.9347   17.1399 H         1 MOL     0.0316
     24 H          -2.0179   19.1351   18.0794 H         1 MOL     0.0316
     25 H          -2.3915   18.7628   20.5238 H         1 MOL     0.0620
     26 H          -3.1786   17.0359   22.0979 H         1 MOL     0.0621
     27 H          -1.6809   13.9689   19.4905 H         1 MOL     0.0621
     28 H          -0.8712   15.7090   17.9293 H         1 MOL     0.0620
     29 H          -3.1105   14.8932   22.8843 H         1 MOL     0.0406
     30 H          -4.5730   13.6530   20.4536 H         1 MOL     0.0239
     31 H          -5.1163   15.0672   21.4375 H         1 MOL     0.0239
     32 H          -5.0142   13.4281   22.1891 H         1 MOL     0.0239
@<TRIPOS>BOND
     1    1    2 1 
     2    1   16 1 
     3    1   17 1 
     4    1   18 1 
     5    2    3 1 
     6    2    4 1 
     7    2   19 1 
     8    3   20 1 
     9    3   21 1 
    10    3   22 1 
    11    4    5 1 
    12    4   23 1 
    13    4   24 1 
    14    5    6 ar
    15    5   10 ar
    16    6    7 ar
    17    6   25 1 
    18    7    8 ar
    19    7   26 1 
    20    8    9 ar
    21    8   11 1 
    22    9   10 ar
    23    9   27 1 
    24   10   28 1 
    25   11   12 1 
    26   11   13 1 
    27   11   29 1 
    28   12   30 1 
    29   12   31 1 
    30   12   32 1 
    31   13   14 ar
    32   13   15 ar
@<TRIPOS>SUBSTRUCTURE
1 MOL         1
@<TRIPOS>MOLECULE
query molecule
   32    32     1     0     0
SMALL
NO_CHARGE

@<TRIPOS>ATOM
      1 C           2.3305    8.2857   29.8550 C.3       1 MOL     0.0072
      2 C           2.9270    9.5282   30.5552 C.3       1 MOL    -0.0128
      3 C           3.1291    9.2755   32.0722 C.3       1 MOL     0.0072
      4 C           4.2191   10.0210   29.8543 C.3       1 MOL     0.0379
      5 C           4.5132   11.4291   30.2480 C.ar      1 MOL    -0.0471
      6 C           5.7734   11.7690   30.7500 C.ar      1 MOL     0.0037
      7 C           6.0516   13.0984   31.0861 C.ar      1 MOL     0.0044
      8 C           5.0854   14.1112   30.9321 C.ar      1 MOL    -0.0391
      9 C           3.8126   13.7407   30.4619 C.ar      1 MOL     0.0044
     10 C           3.5346   12.4211   30.1132 C.ar      1 MOL     0.0037
     11 C           5.3350   15.5589   31.2648 C.3       1 MOL     0.0614
     12 C           6.7738   15.7708   31.7710 C.3       1 MOL     0.0185
     13 C           5.0849   16.4806   30.0632 C.2       1 MOL     0.0489
     14 O           3.9298   16.9888   29.9786 O.co2     1 MOL    -0.5492
     15 O           6.0313   16.6481   29.2338 O.co2     1 MOL    -0.5492
     16 H           1.3757    7.9958   30.3420 H         1 MOL     0.0232
     17 H           3.0393    7.4339   29.9199 H         1 MOL     0.0232
     18 H           2.1322    8.5061   28.7851 H         1 MOL     0.0232
     19 H           2.1715   10.3501   30.4526 H         1 MOL     0.0299
     20 H           3.8714    8.4668   32.2357 H         1 MOL     0.0232
     21 H           2.1690    8.9774   32.5436 H         1 MOL     0.0232
     22 H           3.4952   10.1982   32.5710 H         1 MOL     0.0232
     23 H           4.0813   10.0134   28.7514 H         1 MOL     0.0316
     24 H           5.0874    9.3876   30.1205 H         1 MOL     0.0316
     25 H           6.5297   11.0074   30.8755 H         1 MOL     0.0620
     26 H           7.0306   13.3508   31.4709 H         1 MOL     0.0621
     27 H           3.0423   14.4919   30.3583 H         1 MOL     0.0621
     28 H           2.5581   12.1580   29.7341 H         1 MOL     0.0620
     29 H           4.6366   15.8640   32.0856 H         1 MOL     0.0406
     30 H           7.5046   15.4943   30.9817 H         1 MOL     0.0239
     31 H           6.9634   15.1293   32.6571 H         1 MOL     0.0239
     32 H           6.9385   16.8297   32.0545 H         1 MOL     0.0239
@<TRIPOS>BOND
     1    1    2 1 
     2    1   16 1 
     3    1   17 1 
     4    1   18 1 
     5    2    3 1 
     6    2    4 1 
     7    2   19 1 
     8    3   20 1 
     9    3   21 1 
    10    3   22 1 
    11    4    5 1 
    12    4   23 1 
    13    4   24 1 
    14    5    6 ar
    15    5   10 ar
    16    6    7 ar
    17    6   25 1 
    18    7    8 ar
    19    7   26 1 
    20    8    9 ar
    21    8   11 1 
    22    9   10 ar
    23    9   27 1 
    24   10   28 1 
    25   11   12 1 
    26   11   13 1 
    27   11   29 1 
    28   12   30 1 
    29   12   31 1 
    30   12   32 1 
    31   13   14 ar
    32   13   15 ar
@<TRIPOS>SUBSTRUCTURE
1 MOL         1
@<TRIPOS>MOLECULE
query molecule
   32    32     1     0     0
SMALL
NO_CHARGE

@<TRIPOS>ATOM
      1 C          13.4891   24.2457   28.3210 C.3       1 MOL     0.0072
      2 C          12.6973   22.9420   28.0385 C.3       1 MOL    -0.0128
      3 C          11.1754   23.2462   27.9575 C.3       1 MOL     0.0072
      4 C          13.1667   22.2021   26.7652 C.3       1 MOL     0.0379
      5 C          14.5552   21.6833   26.8860 C.ar      1 MOL    -0.0471
      6 C          14.7830   20.4012   27.3981 C.ar      1 MOL     0.0037
      7 C          16.0827   19.8979   27.4544 C.ar      1 MOL     0.0044
      8 C          17.1650   20.6595   27.0143 C.ar      1 MOL    -0.0391
      9 C          16.9335   21.9541   26.5236 C.ar      1 MOL     0.0044
     10 C          15.6357   22.4599   26.4557 C.ar      1 MOL     0.0037
     11 C          18.5761   20.1728   27.0263 C.3       1 MOL     0.0614
     12 C          18.9704   19.6605   28.4132 C.3       1 MOL     0.0185
     13 C          18.7632   19.1173   25.9482 C.2       1 MOL     0.0489
     14 O          18.1062   18.0352   26.0043 O.co2     1 MOL    -0.5492
     15 O          19.5451   19.4650   25.0162 O.co2     1 MOL    -0.5492
     16 H          13.1283   24.7251   29.2545 H         1 MOL     0.0232
     17 H          13.3601   24.9616   27.4817 H         1 MOL     0.0232
     18 H          14.5715   24.0235   28.4313 H         1 MOL     0.0232
     19 H          12.8570   22.2542   28.9070 H         1 MOL     0.0299
     20 H          10.9638   23.9151   27.0964 H         1 MOL     0.0232
     21 H          10.8284   23.7453   28.8863 H         1 MOL     0.0232
     22 H          10.6034   22.3046   27.8237 H         1 MOL     0.0232
     23 H          13.1297   22.8766   25.8851 H         1 MOL     0.0316
     24 H          12.5085   21.3251   26.5774 H         1 MOL     0.0316
     25 H          13.9530   19.8010   27.7400 H         1 MOL     0.0620
     26 H          16.2515   18.8990   27.8419 H         1 MOL     0.0621
     27 H          17.7667   22.5582   26.1941 H         1 MOL     0.0621
     28 H          15.4662   23.4544   26.0689 H         1 MOL     0.0620
     29 H          19.2554   21.0281   26.7750 H         1 MOL     0.0406
     30 H          18.3270   18.8173   28.7341 H         1 MOL     0.0239
     31 H          18.8559   20.4884   29.1487 H         1 MOL     0.0239
     32 H          20.0299   19.3299   28.4257 H         1 MOL     0.0239
@<TRIPOS>BOND
     1    1    2 1 
     2    1   16 1 
     3    1   17 1 
     4    1   18 1 
     5    2    3 1 
     6    2    4 1 
     7    2   19 1 
     8    3   20 1 
     9    3   21 1 
    10    3   22 1 
    11    4    5 1 
    12    4   23 1 
    13    4   24 1 
    14    5    6 ar
    15    5   10 ar
    16    6    7 ar
    17    6   25 1 
    18    7    8 ar
    19    7   26 1 
    20    8    9 ar
    21    8   11 1 
    22    9   10 ar
    23    9   27 1 
    24   10   28 1 
    25   11   12 1 
    26   11   13 1 
    27   11   29 1 
    28   12   30 1 
    29   12   31 1 
    30   12   32 1 
    31   13   14 ar
    32   13   15 ar
@<TRIPOS>SUBSTRUCTURE
1 MOL         1
@<TRIPOS>MOLECULE
query molecule
   32    32     1     0     0
SMALL
NO_CHARGE

@<TRIPOS>ATOM
      1 C          11.3187   27.0833    4.7315 C.3       1 MOL     0.0072
      2 C          12.2436   25.8485    4.5893 C.3       1 MOL    -0.0128
      3 C          13.5321   26.0332    5.4353 C.3       1 MOL     0.0072
      4 C          11.5088   24.5097    4.8801 C.3       1 MOL     0.0379
      5 C          11.8945   23.4690    3.8767 C.ar      1 MOL    -0.0471
      6 C          13.2443   23.1462    3.6830 C.ar      1 MOL     0.0037
      7 C          13.6158   22.2061    2.7241 C.ar      1 MOL     0.0044
      8 C          12.6585   21.5546    1.9294 C.ar      1 MOL    -0.0391
      9 C          11.2987   21.8564    2.1557 C.ar      1 MOL     0.0044
     10 C          10.9199   22.8035    3.1210 C.ar      1 MOL     0.0037
     11 C          13.0480   20.5936    0.8447 C.3       1 MOL     0.0614
     12 C          14.5623   20.6253    0.5340 C.3       1 MOL     0.0185
     13 C          12.7102   19.1344    1.1345 C.2       1 MOL     0.0489
     14 O          12.7061   18.4048    0.1062 O.co2     1 MOL    -0.5492
     15 O          12.4900   18.7886    2.3252 O.co2     1 MOL    -0.5492
     16 H          11.8701   28.0138    4.4750 H         1 MOL     0.0232
     17 H          10.9443   27.1697    5.7729 H         1 MOL     0.0232
     18 H          10.4496   26.9881    4.0483 H         1 MOL     0.0232
     19 H          12.5766   25.8099    3.5197 H         1 MOL     0.0299
     20 H          13.2897   26.0783    6.5160 H         1 MOL     0.0232
     21 H          14.0380   26.9815    5.1487 H         1 MOL     0.0232
     22 H          14.2365   25.1936    5.2604 H         1 MOL     0.0232
     23 H          10.4087   24.6436    4.8375 H         1 MOL     0.0316
     24 H          11.7939   24.1290    5.8826 H         1 MOL     0.0316
     25 H          14.0048   23.6317    4.2791 H         1 MOL     0.0620
     26 H          14.6647   21.9807    2.5825 H         1 MOL     0.0621
     27 H          10.5364   21.3588    1.5725 H         1 MOL     0.0621
     28 H           9.8741   23.0252    3.2777 H         1 MOL     0.0620
     29 H          12.5054   20.8860   -0.0901 H         1 MOL     0.0406
     30 H          15.1511   20.3306    1.4289 H         1 MOL     0.0239
     31 H          14.8697   21.6476    0.2321 H         1 MOL     0.0239
     32 H          14.8035   19.9224   -0.2919 H         1 MOL     0.0239
@<TRIPOS>BOND
     1    1    2 1 
     2    1   16 1 
     3    1   17 1 
     4    1   18 1 
     5    2    3 1 
     6    2    4 1 
     7    2   19 1 
     8    3   20 1 
     9    3   21 1 
    10    3   22 1 
    11    4    5 1 
    12    4   23 1 
    13    4   24 1 
    14    5    6 ar
    15    5   10 ar
    16    6    7 ar
    17    6   25 1 
    18    7    8 ar
    19    7   26 1 
    20    8    9 ar
    21    8   11 1 
    22    9   10 ar
    23    9   27 1 
    24   10   28 1 
    25   11   12 1 
    26   11   13 1 
    27   11   29 1 
    28   12   30 1 
    29   12   31 1 
    30   12   32 1 
    31   13   14 ar
    32   13   15 ar
@<TRIPOS>SUBSTRUCTURE
1 MOL         1
@<TRIPOS>MOLECULE
query molecule
   32    32     1     0     0
SMALL
NO_CHARGE

@<TRIPOS>ATOM
      1 C           7.8374   -6.2527   22.7979 C.3       1 MOL     0.0072
      2 C           8.3095   -4.7814   22.6068 C.3       1 MOL    -0.0128
      3 C           9.5442   -4.4825   23.4997 C.3       1 MOL     0.0072
      4 C           8.5870   -4.3977   21.1290 C.3       1 MOL     0.0379
      5 C           7.3127   -4.2096   20.3807 C.ar      1 MOL    -0.0471
      6 C           6.8776   -5.1991   19.4923 C.ar      1 MOL     0.0037
      7 C           5.6726   -5.0416   18.8054 C.ar      1 MOL     0.0044
      8 C           4.8837   -3.9001   18.9964 C.ar      1 MOL    -0.0391
      9 C           5.3415   -2.8969   19.8664 C.ar      1 MOL     0.0044
     10 C           6.5480   -3.0502   20.5550 C.ar      1 MOL     0.0037
     11 C           3.5603   -3.7136   18.3176 C.3       1 MOL     0.0614
     12 C           3.8073   -3.4068   16.8262 C.3       1 MOL     0.0185
     13 C           2.6646   -4.9485   18.4923 C.2       1 MOL     0.0489
     14 O           2.9543   -5.9634   17.7906 O.co2     1 MOL    -0.5492
     15 O           1.6857   -4.8377   19.2897 O.co2     1 MOL    -0.5492
     16 H           7.5994   -6.4458   23.8636 H         1 MOL     0.0232
     17 H           8.6350   -6.9561   22.4786 H         1 MOL     0.0232
     18 H           6.9296   -6.4488   22.1893 H         1 MOL     0.0232
     19 H           7.4815   -4.1167   22.9659 H         1 MOL     0.0299
     20 H          10.4059   -5.1106   23.1930 H         1 MOL     0.0232
     21 H           9.3074   -4.7004   24.5628 H         1 MOL     0.0232
     22 H           9.8325   -3.4142   23.4133 H         1 MOL     0.0232
     23 H           9.1849   -5.1776   20.6186 H         1 MOL     0.0316
     24 H           9.1309   -3.4294   21.0855 H         1 MOL     0.0316
     25 H           7.4683   -6.0904   19.3407 H         1 MOL     0.0620
     26 H           5.3360   -5.8144   18.1281 H         1 MOL     0.0621
     27 H           4.7507   -2.0034   20.0103 H         1 MOL     0.0621
     28 H           6.8876   -2.2758   21.2260 H         1 MOL     0.0620
     29 H           3.0378   -2.8280   18.7572 H         1 MOL     0.0406
     30 H           4.3488   -4.2496   16.3456 H         1 MOL     0.0239
     31 H           4.4289   -2.4908   16.7185 H         1 MOL     0.0239
     32 H           2.8519   -3.2449   16.2850 H         1 MOL     0.0239
@<TRIPOS>BOND
     1    1    2 1 
     2    1   16 1 
     3    1   17 1 
     4    1   18 1 
     5    2    3 1 
     6    2    4 1 
     7    2   19 1 
     8    3   20 1 
     9    3   21 1 
    10    3   22 1 
    11    4    5 1 
    12    4   23 1 
    13    4   24 1 
    14    5    6 ar
    15    5   10 ar
    16    6    7 ar
    17    6   25 1 
    18    7    8 ar
    19    7   26 1 
    20    8    9 ar
    21    8   11 1 
    22    9   10 ar
    23    9   27 1 
    24   10   28 1 
    25   11   12 1 
    26   11   13 1 
    27   11   29 1 
    28   12   30 1 
    29   12   31 1 
    30   12   32 1 
    31   13   14 ar
    32   13   15 ar
@<TRIPOS>SUBSTRUCTURE
1 MOL         1
@<TRIPOS>MOLECULE
query molecule
   32    32     1     0     0
SMALL
NO_CHARGE

@<TRIPOS>ATOM
      1 C          -6.2710    3.3402   28.7851 C.3       1 MOL     0.0072
      2 C          -4.9420    3.2174   29.5773 C.3       1 MOL    -0.0128
      3 C          -4.7582    1.7824   30.1341 C.3       1 MOL     0.0072
      4 C          -3.7025    3.6690   28.7610 C.3       1 MOL     0.0379
      5 C          -3.7081    5.1464   28.5864 C.ar      1 MOL    -0.0471
      6 C          -4.0704    5.6972   27.3542 C.ar      1 MOL     0.0037
      7 C          -4.0813    7.0824   27.1837 C.ar      1 MOL     0.0044
      8 C          -3.7453    7.9385   28.2416 C.ar      1 MOL    -0.0391
      9 C          -3.3717    7.3702   29.4815 C.ar      1 MOL     0.0044
     10 C          -3.3568    5.9869   29.6471 C.ar      1 MOL     0.0037
     11 C          -3.7698    9.4343   28.1077 C.3       1 MOL     0.0614
     12 C          -2.4063    9.8691   27.5221 C.3       1 MOL     0.0185
     13 C          -4.9226    9.9590   27.2337 C.2       1 MOL     0.0489
     14 O          -6.0824    9.4937   27.4650 O.co2     1 MOL    -0.5492
     15 O          -4.6442   10.8187   26.3439 O.co2     1 MOL    -0.5492
     16 H          -7.1324    3.0634   29.4283 H         1 MOL     0.0232
     17 H          -6.2573    2.6708   27.9000 H         1 MOL     0.0232
     18 H          -6.4123    4.3851   28.4361 H         1 MOL     0.0232
     19 H          -5.0174    3.9040   30.4606 H         1 MOL     0.0299
     20 H          -4.6712    1.0530   29.3032 H         1 MOL     0.0232
     21 H          -5.6273    1.5011   30.7659 H         1 MOL     0.0232
     22 H          -3.8381    1.7273   30.7541 H         1 MOL     0.0232
     23 H          -3.6926    3.1991   27.7584 H         1 MOL     0.0316
     24 H          -2.7695    3.4025   29.3024 H         1 MOL     0.0316
     25 H          -4.3448    5.0506   26.5342 H         1 MOL     0.0620
     26 H          -4.3605    7.5020   26.2274 H         1 MOL     0.0621
     27 H          -3.0967    8.0162   30.3027 H         1 MOL     0.0621
     28 H          -3.0679    5.5626   30.5985 H         1 MOL     0.0620
     29 H          -3.8641    9.8910   29.1249 H         1 MOL     0.0406
     30 H          -2.2664    9.4421   26.5076 H         1 MOL     0.0239
     31 H          -1.5767    9.5251   28.1737 H         1 MOL     0.0239
     32 H          -2.3626   10.9770   27.4486 H         1 MOL     0.0239
@<TRIPOS>BOND
     1    1    2 1 
     2    1   16 1 
     3    1   17 1 
     4    1   18 1 
     5    2    3 1 
     6    2    4 1 
     7    2   19 1 
     8    3   20 1 
     9    3   21 1 
    10    3   22 1 
    11    4    5 1 
    12    4   23 1 
    13    4   24 1 
    14    5    6 ar
    15    5   10 ar
    16    6    7 ar
    17    6   25 1 
    18    7    8 ar
    19    7   26 1 
    20    8    9 ar
    21    8   11 1 
    22    9   10 ar
    23    9   27 1 
    24   10   28 1 
    25   11   12 1 
    26   11   13 1 
    27   11   29 1 
    28   12   30 1 
    29   12   31 1 
    30   12   32 1 
    31   13   14 ar
    32   13   15 ar
@<TRIPOS>SUBSTRUCTURE
1 MOL         1
@<TRIPOS>MOLECULE
query molecule
   32    32     1     0     0
SMALL
NO_CHARGE

@<TRIPOS>ATOM
      1 C          18.3165   14.5350   31.6327 C.3       1 MOL     0.0072
      2 C          17.6594   13.2905   30.9825 C.3       1 MOL    -0.0128
      3 C          18.1579   13.1084   29.5242 C.3       1 MOL     0.0072
      4 C          17.8644   11.9986   31.8161 C.3       1 MOL     0.0379
      5 C          16.5832   11.2519   31.9870 C.ar      1 MOL    -0.0471
      6 C          16.1342   10.9274   33.2737 C.ar      1 MOL     0.0037
      7 C          14.9288   10.2371   33.4436 C.ar      1 MOL     0.0044
      8 C          14.1475    9.8720   32.3387 C.ar      1 MOL    -0.0391
      9 C          14.6172   10.1788   31.0539 C.ar      1 MOL     0.0044
     10 C          15.8242   10.8569   30.8815 C.ar      1 MOL     0.0037
     11 C          12.8268    9.1734   32.4570 C.3       1 MOL     0.0614
     12 C          12.9799    7.8932   33.2941 C.3       1 MOL     0.0185
     13 C          11.7846   10.0629   33.1331 C.2       1 MOL     0.0489
     14 O          10.8821   10.5296   32.3790 O.co2     1 MOL    -0.5492
     15 O          11.9200   10.3233   34.3654 O.co2     1 MOL    -0.5492
     16 H          18.0928   15.4398   31.0270 H         1 MOL     0.0232
     17 H          19.4185   14.4070   31.6790 H         1 MOL     0.0232
     18 H          17.9313   14.6942   32.6607 H         1 MOL     0.0232
     19 H          16.5568   13.4821   30.9374 H         1 MOL     0.0299
     20 H          19.2536   12.9249   29.5208 H         1 MOL     0.0232
     21 H          17.9501   14.0210   28.9282 H         1 MOL     0.0232
     22 H          17.6539   12.2442   29.0449 H         1 MOL     0.0232
     23 H          18.2582   12.2383   32.8251 H         1 MOL     0.0316
     24 H          18.5759   11.3210   31.2976 H         1 MOL     0.0316
     25 H          16.7162   11.2099   34.1397 H         1 MOL     0.0620
     26 H          14.5927    9.9846   34.4401 H         1 MOL     0.0621
     27 H          14.0404    9.8925   30.1867 H         1 MOL     0.0621
     28 H          16.1785   11.0864   29.8874 H         1 MOL     0.0620
     29 H          12.4570    8.8960   31.4402 H         1 MOL     0.0406
     30 H          13.3237    8.1410   34.3206 H         1 MOL     0.0239
     31 H          13.7194    7.2150   32.8253 H         1 MOL     0.0239
     32 H          12.0042    7.3698   33.3674 H         1 MOL     0.0239
@<TRIPOS>BOND
     1    1    2 1 
     2    1   16 1 
     3    1   17 1 
     4    1   18 1 
     5    2    3 1 
     6    2    4 1 
     7    2   19 1 
     8    3   20 1 
     9    3   21 1 
    10    3   22 1 
    11    4    5 1 
    12    4   23 1 
    13    4   24 1 
    14    5    6 ar
    15    5   10 ar
    16    6    7 ar
    17    6   25 1 
    18    7    8 ar
    19    7   26 1 
    20    8    9 ar
    21    8   11 1 
    22    9   10 ar
    23    9   27 1 
    24   10   28 1 
    25   11   12 1 
    26   11   13 1 
    27   11   29 1 
    28   12   30 1 
    29   12   31 1 
    30   12   32 1 
    31   13   14 ar
    32   13   15 ar
@<TRIPOS>SUBSTRUCTURE
1 MOL         1
@<TRIPOS>MOLECULE
query molecule
   32    32     1     0     0
SMALL
NO_CHARGE

@<TRIPOS>ATOM
      1 C          18.1187    2.2416    0.6719 C.3       1 MOL     0.0072
      2 C          18.3130    3.6817    1.2201 C.3       1 MOL    -0.0128
      3 C          19.6518    3.7975    1.9969 C.3       1 MOL     0.0072
      4 C          18.1985    4.7125    0.0738 C.3       1 MOL     0.0379
      5 C          17.5677    5.9843    0.5156 C.ar      1 MOL    -0.0471
      6 C          18.1418    6.8081    1.4868 C.ar      1 MOL     0.0037
      7 C          17.5270    8.0194    1.8359 C.ar      1 MOL     0.0044
      8 C          16.3388    8.4163    1.2046 C.ar      1 MOL    -0.0391
      9 C          15.7572    7.5786    0.2482 C.ar      1 MOL     0.0044
     10 C          16.3655    6.3682   -0.0972 C.ar      1 MOL     0.0037
     11 C          15.7347    9.7317    1.5801 C.3       1 MOL     0.0614
     12 C          15.4905   10.5671    0.3209 C.3       1 MOL     0.0185
     13 C          14.4524    9.4835    2.3521 C.2       1 MOL     0.0489
     14 O          13.3219    9.7068    1.8332 O.co2     1 MOL    -0.5492
     15 O          14.6970    9.0344    3.5042 O.co2     1 MOL    -0.5492
     16 H          18.1500    1.5035    1.4999 H         1 MOL     0.0232
     17 H          18.9205    1.9939   -0.0556 H         1 MOL     0.0232
     18 H          17.1378    2.1569    0.1576 H         1 MOL     0.0232
     19 H          17.4760    3.8778    1.9364 H         1 MOL     0.0299
     20 H          20.5059    3.5847    1.3184 H         1 MOL     0.0232
     21 H          19.6767    3.0670    2.8324 H         1 MOL     0.0232
     22 H          19.7764    4.8193    2.4119 H         1 MOL     0.0232
     23 H          17.5415    4.3001   -0.7260 H         1 MOL     0.0316
     24 H          19.1929    4.9401   -0.3597 H         1 MOL     0.0316
     25 H          19.0640    6.5123    1.9668 H         1 MOL     0.0620
     26 H          17.9788    8.6461    2.5890 H         1 MOL     0.0621
     27 H          14.8344    7.8695   -0.2311 H         1 MOL     0.0621
     28 H          15.9123    5.7312   -0.8425 H         1 MOL     0.0620
     29 H          16.4428   10.2840    2.2477 H         1 MOL     0.0406
     30 H          14.7578   10.0472   -0.3304 H         1 MOL     0.0239
     31 H          16.4383   10.7072   -0.2434 H         1 MOL     0.0239
     32 H          15.0852   11.5631    0.5983 H         1 MOL     0.0239
@<TRIPOS>BOND
     1    1    2 1 
     2    1   16 1 
     3    1   17 1 
     4    1   18 1 
     5    2    3 1 
     6    2    4 1 
     7    2   19 1 
     8    3   20 1 
     9    3   21 1 
    10    3   22 1 
    11    4    5 1 
    12    4   23 1 
    13    4   24 1 
    14    5    6 ar
    15    5   10 ar
    16    6    7 ar
    17    6   25 1 
    18    7    8 ar
    19    7   26 1 
    20    8    9 ar
    21    8   11 1 
    22    9   10 ar
    23    9   27 1 
    24   10   28 1 
    25   11   12 1 
    26   11   13 1 
    27   11   29 1 
    28   12   30 1 
    29   12   31 1 
    30   12   32 1 
    31   13   14 ar
    32   13   15 ar
@<TRIPOS>SUBSTRUCTURE
1 MOL         1
@<TRIPOS>MOLECULE
query molecule
   32    32     1     0     0
SMALL
NO_CHARGE

@<TRIPOS>ATOM
      1 C          -2.8803    8.3171   27.0205 C.3       1 MOL     0.0072
      2 C          -2.3182    9.7015   27.4383 C.3       1 MOL    -0.0128
      3 C          -2.6595   10.7824   26.3773 C.3       1 MOL     0.0072
      4 C          -2.8043   10.1628   28.8336 C.3       1 MOL     0.0379
      5 C          -2.2994    9.2882   29.9232 C.ar      1 MOL    -0.0471
      6 C          -3.2180    8.4911   30.6159 C.ar      1 MOL     0.0037
      7 C          -2.7835    7.6661   31.6503 C.ar      1 MOL     0.0044
      8 C          -1.4266    7.6082   32.0034 C.ar      1 MOL    -0.0391
      9 C          -0.5137    8.4361   31.3227 C.ar      1 MOL     0.0044
     10 C          -0.9469    9.2620   30.2765 C.ar      1 MOL     0.0037
     11 C          -0.9225    6.6521   33.0469 C.3       1 MOL     0.0614
     12 C          -1.9437    6.4460   34.1807 C.3       1 MOL     0.0185
     13 C          -0.6982    5.2815   32.3840 C.2       1 MOL     0.0489
     14 O          -1.6301    4.8553   31.6401 O.co2     1 MOL    -0.5492
     15 O           0.4184    4.7175   32.5965 O.co2     1 MOL    -0.5492
     16 H          -2.4788    8.0210   26.0286 H         1 MOL     0.0232
     17 H          -3.9887    8.3577   26.9534 H         1 MOL     0.0232
     18 H          -2.6001    7.5427   27.7641 H         1 MOL     0.0232
     19 H          -1.2033    9.6165   27.4821 H         1 MOL     0.0299
     20 H          -3.7605   10.9098   26.2991 H         1 MOL     0.0232
     21 H          -2.2661   10.4911   25.3817 H         1 MOL     0.0232
     22 H          -2.2134   11.7578   26.6650 H         1 MOL     0.0232
     23 H          -3.9137   10.1525   28.8800 H         1 MOL     0.0316
     24 H          -2.4420   11.1908   29.0460 H         1 MOL     0.0316
     25 H          -4.2650    8.5130   30.3501 H         1 MOL     0.0620
     26 H          -3.4982    7.0558   32.1853 H         1 MOL     0.0621
     27 H           0.5312    8.4255   31.5980 H         1 MOL     0.0621
     28 H          -0.2381    9.8773   29.7421 H         1 MOL     0.0620
     29 H           0.0409    7.0133   33.4728 H         1 MOL     0.0406
     30 H          -2.8662    5.9670   33.7878 H         1 MOL     0.0239
     31 H          -2.2243    7.4123   34.6460 H         1 MOL     0.0239
     32 H          -1.5179    5.7853   34.9646 H         1 MOL     0.0239
@<TRIPOS>BOND
     1    1    2 1 
     2    1   16 1 
     3    1   17 1 
     4    1   18 1 
     5    2    3 1 
     6    2    4 1 
     7    2   19 1 
     8    3   20 1 
     9    3   21 1 
    10    3   22 1 
    11    4    5 1 
    12    4   23 1 
    13    4   24 1 
    14    5    6 ar
    15    5   10 ar
    16    6    7 ar
    17    6   25 1 
    18    7    8 ar
    19    7   26 1 
    20    8    9 ar
    21    8   11 1 
    22    9   10 ar
    23    9   27 1 
    24   10   28 1 
    25   11   12 1 
    26   11   13 1 
    27   11   29 1 
    28   12   30 1 
    29   12   31 1 
    30   12   32 1 
    31   13   14 ar
    32   13   15 ar
@<TRIPOS>SUBSTRUCTURE
1 MOL         1
@<TRIPOS>MOLECULE
query molecule
   32    32     1     0     0
SMALL
NO_CHARGE

@<TRIPOS>ATOM
      1 C          18.8806   12.7783   26.5178 C.3       1 MOL     0.0072
      2 C          19.9927   13.0216   27.5725 C.3       1 MOL    -0.0128
      3 C          21.3052   13.5032   26.8996 C.3       1 MOL     0.0072
      4 C          19.5600   14.0042   28.6881 C.3       1 MOL     0.0379
      5 C          18.8806   13.2886   29.8001 C.ar      1 MOL    -0.0471
      6 C          19.5552   13.0974   31.0137 C.ar      1 MOL     0.0037
      7 C          18.9140   12.4575   32.0801 C.ar      1 MOL     0.0044
      8 C          17.5927   12.0038   31.9445 C.ar      1 MOL    -0.0391
      9 C          16.9396   12.1910   30.7186 C.ar      1 MOL     0.0044
     10 C          17.5742   12.8222   29.6531 C.ar      1 MOL     0.0037
     11 C          16.9289   11.3387   33.1139 C.3       1 MOL     0.0614
     12 C          15.6923   12.1579   33.5219 C.3       1 MOL     0.0185
     13 C          16.4822    9.9203   32.7525 C.2       1 MOL     0.0489
     14 O          15.7966    9.7255   31.7067 O.co2     1 MOL    -0.5492
     15 O          16.9197    9.0308   33.5360 O.co2     1 MOL    -0.5492
     16 H          19.2254   12.0459   25.7579 H         1 MOL     0.0232
     17 H          18.6281   13.7292   26.0022 H         1 MOL     0.0232
     18 H          17.9642   12.3832   27.0028 H         1 MOL     0.0232
     19 H          20.2232   12.0396   28.0602 H         1 MOL     0.0299
     20 H          21.1489   14.4839   26.4039 H         1 MOL     0.0232
     21 H          21.6448   12.7696   26.1394 H         1 MOL     0.0232
     22 H          22.1052   13.6174   27.6621 H         1 MOL     0.0232
     23 H          18.8754   14.7802   28.2970 H         1 MOL     0.0316
     24 H          20.4585   14.4888   29.1300 H         1 MOL     0.0316
     25 H          20.5717   13.4469   31.1300 H         1 MOL     0.0620
     26 H          19.4364   12.3150   33.0153 H         1 MOL     0.0621
     27 H          15.9261   11.8348   30.5980 H         1 MOL     0.0621
     28 H          17.0557   12.9509   28.7143 H         1 MOL     0.0620
     29 H          17.6355   11.2949   33.9807 H         1 MOL     0.0406
     30 H          14.9506   12.1574   32.6956 H         1 MOL     0.0239
     31 H          15.9786   13.2072   33.7402 H         1 MOL     0.0239
     32 H          15.2181   11.7191   34.4234 H         1 MOL     0.0239
@<TRIPOS>BOND
     1    1    2 1 
     2    1   16 1 
     3    1   17 1 
     4    1   18 1 
     5    2    3 1 
     6    2    4 1 
     7    2   19 1 
     8    3   20 1 
     9    3   21 1 
    10    3   22 1 
    11    4    5 1 
    12    4   23 1 
    13    4   24 1 
    14    5    6 ar
    15    5   10 ar
    16    6    7 ar
    17    6   25 1 
    18    7    8 ar
    19    7   26 1 
    20    8    9 ar
    21    8   11 1 
    22    9   10 ar
    23    9   27 1 
    24   10   28 1 
    25   11   12 1 
    26   11   13 1 
    27   11   29 1 
    28   12   30 1 
    29   12   31 1 
    30   12   32 1 
    31   13   14 ar
    32   13   15 ar
@<TRIPOS>SUBSTRUCTURE
1 MOL         1
@<TRIPOS>MOLECULE
query molecule
   32    32     1     0     0
SMALL
NO_CHARGE

@<TRIPOS>ATOM
      1 C           3.1198   11.6381   -3.9041 C.3       1 MOL     0.0072
      2 C           4.5490   11.0712   -4.0788 C.3       1 MOL    -0.0128
      3 C           5.5751   12.1702   -4.4394 C.3       1 MOL     0.0072
      4 C           4.9821   10.2664   -2.8398 C.3       1 MOL     0.0379
      5 C           5.7018    9.0490   -3.2861 C.ar      1 MOL    -0.0471
      6 C           4.9728    7.8974   -3.5978 C.ar      1 MOL     0.0037
      7 C           5.6414    6.7375   -3.9980 C.ar      1 MOL     0.0044
      8 C           7.0430    6.7216   -4.0624 C.ar      1 MOL    -0.0391
      9 C           7.7620    7.8951   -3.7905 C.ar      1 MOL     0.0044
     10 C           7.0935    9.0541   -3.3907 C.ar      1 MOL     0.0037
     11 C           7.7109    5.4222   -4.3891 C.3       1 MOL     0.0614
     12 C           8.4453    5.5343   -5.7295 C.3       1 MOL     0.0185
     13 C           8.6553    5.0764   -3.2479 C.2       1 MOL     0.0489
     14 O           8.1035    4.5296   -2.2483 O.co2     1 MOL    -0.5492
     15 O           9.8683    5.4317   -3.3307 O.co2     1 MOL    -0.5492
     16 H           2.8000   12.1677   -4.8263 H         1 MOL     0.0232
     17 H           3.0862   12.3490   -3.0532 H         1 MOL     0.0232
     18 H           2.4050   10.8114   -3.7058 H         1 MOL     0.0232
     19 H           4.5137   10.3548   -4.9383 H         1 MOL     0.0299
     20 H           5.6498   12.9124   -3.6171 H         1 MOL     0.0232
     21 H           5.2688   12.6976   -5.3674 H         1 MOL     0.0232
     22 H           6.5780   11.7217   -4.6027 H         1 MOL     0.0232
     23 H           4.0988    9.9347   -2.2516 H         1 MOL     0.0316
     24 H           5.6611   10.8552   -2.1884 H         1 MOL     0.0316
     25 H           3.8957    7.9034   -3.5299 H         1 MOL     0.0620
     26 H           5.0791    5.8473   -4.2369 H         1 MOL     0.0621
     27 H           8.8388    7.8961   -3.8753 H         1 MOL     0.0621
     28 H           7.6529    9.9518   -3.1743 H         1 MOL     0.0620
     29 H           6.9439    4.6152   -4.4741 H         1 MOL     0.0406
     30 H           9.2258    6.3218   -5.6880 H         1 MOL     0.0239
     31 H           7.7214    5.7945   -6.5323 H         1 MOL     0.0239
     32 H           8.9251    4.5675   -5.9896 H         1 MOL     0.0239
@<TRIPOS>BOND
     1    1    2 1 
     2    1   16 1 
     3    1   17 1 
     4    1   18 1 
     5    2    3 1 
     6    2    4 1 
     7    2   19 1 
     8    3   20 1 
     9    3   21 1 
    10    3   22 1 
    11    4    5 1 
    12    4   23 1 
    13    4   24 1 
    14    5    6 ar
    15    5   10 ar
    16    6    7 ar
    17    6   25 1 
    18    7    8 ar
    19    7   26 1 
    20    8    9 ar
    21    8   11 1 
    22    9   10 ar
    23    9   27 1 
    24   10   28 1 
    25   11   12 1 
    26   11   13 1 
    27   11   29 1 
    28   12   30 1 
    29   12   31 1 
    30   12   32 1 
    31   13   14 ar
    32   13   15 ar
@<TRIPOS>SUBSTRUCTURE
1 MOL         1
@<TRIPOS>MOLECULE
query molecule
   32    32     1     0     0
SMALL
NO_CHARGE

@<TRIPOS>ATOM
      1 C           4.0673   17.8122   30.9492 C.3       1 MOL     0.0072
      2 C           5.2714   16.9344   30.5215 C.3       1 MOL    -0.0128
      3 C           6.4631   17.8334   30.1099 C.3       1 MOL     0.0072
      4 C           5.6714   15.9146   31.6152 C.3       1 MOL     0.0379
      5 C           5.3692   14.5120   31.2059 C.ar      1 MOL    -0.0471
      6 C           6.3998   13.5598   31.2365 C.ar      1 MOL     0.0037
      7 C           6.1449   12.2331   30.8787 C.ar      1 MOL     0.0044
      8 C           4.8605   11.8384   30.4766 C.ar      1 MOL    -0.0391
      9 C           3.8327   12.7959   30.4451 C.ar      1 MOL     0.0044
     10 C           4.0847   14.1208   30.8099 C.ar      1 MOL     0.0037
     11 C           4.5187   10.4379   30.0757 C.3       1 MOL     0.0614
     12 C           5.7226    9.7877   29.3815 C.3       1 MOL     0.0185
     13 C           4.1146    9.5618   31.2710 C.2       1 MOL     0.0489
     14 O           3.6474    8.4205   30.9667 O.co2     1 MOL    -0.5492
     15 O           4.2683   10.0285   32.4370 O.co2     1 MOL    -0.5492
     16 H           3.7916   18.5078   30.1278 H         1 MOL     0.0232
     17 H           4.3360   18.4182   31.8410 H         1 MOL     0.0232
     18 H           3.1864   17.1863   31.1964 H         1 MOL     0.0232
     19 H           4.9634   16.3539   29.6153 H         1 MOL     0.0299
     20 H           6.7982   18.4445   30.9750 H         1 MOL     0.0232
     21 H           6.1685   18.5170   29.2870 H         1 MOL     0.0232
     22 H           7.3158   17.2103   29.7674 H         1 MOL     0.0232
     23 H           5.1220   16.1181   32.5578 H         1 MOL     0.0316
     24 H           6.7640   15.9723   31.8088 H         1 MOL     0.0316
     25 H           7.3943   13.8522   31.5445 H         1 MOL     0.0620
     26 H           6.9453   11.5065   30.9080 H         1 MOL     0.0621
     27 H           2.8407   12.4993   30.1353 H         1 MOL     0.0621
     28 H           3.2815   14.8432   30.7861 H         1 MOL     0.0620
     29 H           3.6592   10.4584   29.3610 H         1 MOL     0.0406
     30 H           6.5990    9.7560   30.0601 H         1 MOL     0.0239
     31 H           5.9962   10.3423   28.4619 H         1 MOL     0.0239
     32 H           5.4639    8.7410   29.0947 H         1 MOL     0.0239
@<TRIPOS>BOND
     1    1    2 1 
     2    1   16 1 
     3    1   17 1 
     4    1   18 1 
     5    2    3 1 
     6    2    4 1 
     7    2   19 1 
     8    3   20 1 
     9    3   21 1 
    10    3   22 1 
    11    4    5 1 
    12    4   23 1 
    13    4   24 1 
    14    5    6 ar
    15    5   10 ar
    16    6    7 ar
    17    6   25 1 
    18    7    8 ar
    19    7   26 1 
    20    8    9 ar
    21    8   11 1 
    22    9   10 ar
    23    9   27 1 
    24   10   28 1 
    25   11   12 1 
    26   11   13 1 
    27   11   29 1 
    28   12   30 1 
    29   12   31 1 
    30   12   32 1 
    31   13   14 ar
    32   13   15 ar
@<TRIPOS>SUBSTRUCTURE
1 MOL         1
@<TRIPOS>MOLECULE
query molecule
   32    32     1     0     0
SMALL
NO_CHARGE

@<TRIPOS>ATOM
      1 C           3.0420   25.2321   16.8035 C.3       1 MOL     0.0072
      2 C           2.1742   24.7935   15.5984 C.3       1 MOL    -0.0128
      3 C           2.3138   25.7619   14.3958 C.3       1 MOL     0.0072
      4 C           2.4023   23.3148   15.1959 C.3       1 MOL     0.0379
      5 C           1.6254   22.3720   16.0504 C.ar      1 MOL    -0.0471
      6 C           0.4683   22.7711   16.7306 C.ar      1 MOL     0.0037
      7 C          -0.2642   21.8606   17.4833 C.ar      1 MOL     0.0044
      8 C           0.1419   20.5174   17.5600 C.ar      1 MOL    -0.0391
      9 C           1.3067   20.1310   16.8996 C.ar      1 MOL     0.0044
     10 C           2.0531   21.0418   16.1533 C.ar      1 MOL     0.0037
     11 C          -0.7404   19.6089   18.3347 C.3       1 MOL     0.0614
     12 C          -1.8449   19.1057   17.3673 C.3       1 MOL     0.0185
     13 C          -0.0687   18.4637   19.0758 C.2       1 MOL     0.0489
     14 O          -0.8263   17.9405   19.9526 O.co2     1 MOL    -0.5492
     15 O           1.1369   18.1406   18.8709 O.co2     1 MOL    -0.5492
     16 H           2.7761   26.2637   17.1156 H         1 MOL     0.0232
     17 H           4.1175   25.2130   16.5272 H         1 MOL     0.0232
     18 H           2.8859   24.5489   17.6643 H         1 MOL     0.0232
     19 H           1.1032   24.8666   15.9275 H         1 MOL     0.0299
     20 H           3.3529   25.7559   14.0054 H         1 MOL     0.0232
     21 H           2.0576   26.7927   14.7135 H         1 MOL     0.0232
     22 H           1.6237   25.4590   13.5825 H         1 MOL     0.0232
     23 H           3.4734   23.0414   15.2473 H         1 MOL     0.0316
     24 H           2.0350   23.1577   14.1564 H         1 MOL     0.0316
     25 H           0.1361   23.7976   16.6679 H         1 MOL     0.0620
     26 H          -1.1559   22.1818   18.0032 H         1 MOL     0.0621
     27 H           1.6335   19.1041   16.9763 H         1 MOL     0.0621
     28 H           2.9544   20.7137   15.6579 H         1 MOL     0.0620
     29 H          -1.2788   20.2250   19.1068 H         1 MOL     0.0406
     30 H          -1.3886   18.5058   16.5484 H         1 MOL     0.0239
     31 H          -2.3895   19.9569   16.9174 H         1 MOL     0.0239
     32 H          -2.5682   18.4627   17.9080 H         1 MOL     0.0239
@<TRIPOS>BOND
     1    1    2 1 
     2    1   16 1 
     3    1   17 1 
     4    1   18 1 
     5    2    3 1 
     6    2    4 1 
     7    2   19 1 
     8    3   20 1 
     9    3   21 1 
    10    3   22 1 
    11    4    5 1 
    12    4   23 1 
    13    4   24 1 
    14    5    6 ar
    15    5   10 ar
    16    6    7 ar
    17    6   25 1 
    18    7    8 ar
    19    7   26 1 
    20    8    9 ar
    21    8   11 1 
    22    9   10 ar
    23    9   27 1 
    24   10   28 1 
    25   11   12 1 
    26   11   13 1 
    27   11   29 1 
    28   12   30 1 
    29   12   31 1 
    30   12   32 1 
    31   13   14 ar
    32   13   15 ar
@<TRIPOS>SUBSTRUCTURE
1 MOL         1
@<TRIPOS>MOLECULE
query molecule
   32    32     1     0     0
SMALL
NO_CHARGE

@<TRIPOS>ATOM
      1 C          16.3702   19.0712   14.5992 C.3       1 MOL     0.0072
      2 C          17.8197   19.1385   15.1424 C.3       1 MOL    -0.0128
      3 C          18.8375   18.6229   14.0911 C.3       1 MOL     0.0072
      4 C          18.2290   20.5453   15.6513 C.3       1 MOL     0.0379
      5 C          17.4917   20.9466   16.8797 C.ar      1 MOL    -0.0471
      6 C          16.9057   22.2196   16.9395 C.ar      1 MOL     0.0037
      7 C          16.1621   22.6005   18.0583 C.ar      1 MOL     0.0044
      8 C          15.9773   21.7190   19.1266 C.ar      1 MOL    -0.0391
      9 C          16.6181   20.4713   19.0868 C.ar      1 MOL     0.0044
     10 C          17.3662   20.0885   17.9740 C.ar      1 MOL     0.0037
     11 C          15.1054   22.0152   20.3063 C.3       1 MOL     0.0614
     12 C          15.1281   23.5040   20.6687 C.3       1 MOL     0.0185
     13 C          13.6835   21.5313   20.0030 C.2       1 MOL     0.0489
     14 O          12.8109   22.3777   19.6550 O.co2     1 MOL    -0.5492
     15 O          13.5312   20.2779   20.0991 O.co2     1 MOL    -0.5492
     16 H          16.1299   18.0363   14.2763 H         1 MOL     0.0232
     17 H          16.2562   19.7492   13.7273 H         1 MOL     0.0232
     18 H          15.6470   19.3756   15.3838 H         1 MOL     0.0232
     19 H          17.8792   18.4425   16.0190 H         1 MOL     0.0299
     20 H          18.8359   19.2839   13.1991 H         1 MOL     0.0232
     21 H          18.5832   17.5916   13.7719 H         1 MOL     0.0232
     22 H          19.8611   18.6185   14.5233 H         1 MOL     0.0232
     23 H          18.0420   21.3113   14.8703 H         1 MOL     0.0316
     24 H          19.3109   20.5504   15.9103 H         1 MOL     0.0316
     25 H          17.0265   22.9042   16.1112 H         1 MOL     0.0620
     26 H          15.7088   23.5800   18.0897 H         1 MOL     0.0621
     27 H          16.5196   19.7904   19.9213 H         1 MOL     0.0621
     28 H          17.8458   19.1206   17.9533 H         1 MOL     0.0620
     29 H          15.4800   21.4421   21.1903 H         1 MOL     0.0406
     30 H          14.6649   24.1016   19.8562 H         1 MOL     0.0239
     31 H          16.1738   23.8509   20.8118 H         1 MOL     0.0239
     32 H          14.5653   23.6793   21.6093 H         1 MOL     0.0239
@<TRIPOS>BOND
     1    1    2 1 
     2    1   16 1 
     3    1   17 1 
     4    1   18 1 
     5    2    3 1 
     6    2    4 1 
     7    2   19 1 
     8    3   20 1 
     9    3   21 1 
    10    3   22 1 
    11    4    5 1 
    12    4   23 1 
    13    4   24 1 
    14    5    6 ar
    15    5   10 ar
    16    6    7 ar
    17    6   25 1 
    18    7    8 ar
    19    7   26 1 
    20    8    9 ar
    21    8   11 1 
    22    9   10 ar
    23    9   27 1 
    24   10   28 1 
    25   11   12 1 
    26   11   13 1 
    27   11   29 1 
    28   12   30 1 
    29   12   31 1 
    30   12   32 1 
    31   13   14 ar
    32   13   15 ar
@<TRIPOS>SUBSTRUCTURE
1 MOL         1
@<TRIPOS>MOLECULE
query molecule
   32    32     1     0     0
SMALL
NO_CHARGE

@<TRIPOS>ATOM
      1 C          16.1190   -5.9840   23.5607 C.3       1 MOL     0.0072
      2 C          14.8775   -5.9495   22.6290 C.3       1 MOL    -0.0128
      3 C          15.2467   -6.3582   21.1791 C.3       1 MOL     0.0072
      4 C          13.7211   -6.7964   23.2130 C.3       1 MOL     0.0379
      5 C          12.4060   -6.3021   22.7226 C.ar      1 MOL    -0.0471
      6 C          11.7082   -5.3515   23.4781 C.ar      1 MOL     0.0037
      7 C          10.4672   -4.8838   23.0400 C.ar      1 MOL     0.0044
      8 C           9.9194   -5.3466   21.8359 C.ar      1 MOL    -0.0391
      9 C          10.6195   -6.3098   21.0886 C.ar      1 MOL     0.0044
     10 C          11.8560   -6.7851   21.5312 C.ar      1 MOL     0.0037
     11 C           8.6090   -4.8557   21.3022 C.3       1 MOL     0.0614
     12 C           7.4977   -5.2453   22.2902 C.3       1 MOL     0.0185
     13 C           8.6577   -3.3504   21.0900 C.2       1 MOL     0.0489
     14 O           9.1809   -2.9819   20.0003 O.co2     1 MOL    -0.5492
     15 O           8.2720   -2.6050   22.0298 O.co2     1 MOL    -0.5492
     16 H          16.9244   -5.3345   23.1592 H         1 MOL     0.0232
     17 H          16.5088   -7.0204   23.6484 H         1 MOL     0.0232
     18 H          15.8475   -5.6220   24.5750 H         1 MOL     0.0232
     19 H          14.5270   -4.8853   22.6028 H         1 MOL     0.0299
     20 H          15.6187   -7.4047   21.1667 H         1 MOL     0.0232
     21 H          16.0418   -5.6952   20.7806 H         1 MOL     0.0232
     22 H          14.3587   -6.2897   20.5170 H         1 MOL     0.0232
     23 H          13.7052   -6.6969   24.3204 H         1 MOL     0.0316
     24 H          13.8303   -7.8633   22.9407 H         1 MOL     0.0316
     25 H          12.1319   -4.9801   24.3998 H         1 MOL     0.0620
     26 H           9.9282   -4.1612   23.6342 H         1 MOL     0.0621
     27 H          10.1999   -6.6843   20.1661 H         1 MOL     0.0621
     28 H          12.3870   -7.5280   20.9538 H         1 MOL     0.0620
     29 H           8.3860   -5.3419   20.3237 H         1 MOL     0.0406
     30 H           7.6698   -4.7931   23.2888 H         1 MOL     0.0239
     31 H           7.4890   -6.3501   22.4019 H         1 MOL     0.0239
     32 H           6.5065   -4.9185   21.9159 H         1 MOL     0.0239
@<TRIPOS>BOND
     1    1    2 1 
     2    1   16 1 
     3    1   17 1 
     4    1   18 1 
     5    2    3 1 
     6    2    4 1 
     7    2   19 1 
     8    3   20 1 
     9    3   21 1 
    10    3   22 1 
    11    4    5 1 
    12    4   23 1 
    13    4   24 1 
    14    5    6 ar
    15    5   10 ar
    16    6    7 ar
    17    6   25 1 
    18    7    8 ar
    19    7   26 1 
    20    8    9 ar
    21    8   11 1 
    22    9   10 ar
    23    9   27 1 
    24   10   28 1 
    25   11   12 1 
    26   11   13 1 
    27   11   29 1 
    28   12   30 1 
    29   12   31 1 
    30   12   32 1 
    31   13   14 ar
    32   13   15 ar
@<TRIPOS>SUBSTRUCTURE
1 MOL         1
@<TRIPOS>MOLECULE
query molecule
   32    32     1     0     0
SMALL
NO_CHARGE

@<TRIPOS>ATOM
      1 C           8.6397   21.0778    3.1471 C.3       1 MOL     0.0072
      2 C          10.0639   21.4038    2.6474 C.3       1 MOL    -0.0128
      3 C          10.4818   20.4480    1.5014 C.3       1 MOL     0.0072
      4 C          10.1879   22.8928    2.2439 C.3       1 MOL     0.0379
      5 C          11.0288   23.6268    3.2301 C.ar      1 MOL    -0.0471
      6 C          12.3583   23.9542    2.9394 C.ar      1 MOL     0.0037
      7 C          13.1283   24.6601    3.8685 C.ar      1 MOL     0.0044
      8 C          12.5787   25.0438    5.0978 C.ar      1 MOL    -0.0391
      9 C          11.2454   24.7107    5.3807 C.ar      1 MOL     0.0044
     10 C          10.4748   24.0071    4.4561 C.ar      1 MOL     0.0037
     11 C          13.3377   25.8087    6.1323 C.3       1 MOL     0.0614
     12 C          14.8120   25.3825    6.2185 C.3       1 MOL     0.0185
     13 C          13.2546   27.3012    5.8187 C.2       1 MOL     0.0489
     14 O          12.5243   27.9705    6.6030 O.co2     1 MOL    -0.5492
     15 O          13.9043   27.7253    4.8230 O.co2     1 MOL    -0.5492
     16 H           8.5698   20.0212    3.4677 H         1 MOL     0.0232
     17 H           7.8974   21.2539    2.3379 H         1 MOL     0.0232
     18 H           8.3725   21.7303    4.0099 H         1 MOL     0.0232
     19 H          10.7718   21.2248    3.4966 H         1 MOL     0.0299
     20 H           9.8192   20.5822    0.6216 H         1 MOL     0.0232
     21 H          10.4124   19.3933    1.8421 H         1 MOL     0.0232
     22 H          11.5289   20.6497    1.1922 H         1 MOL     0.0232
     23 H           9.1881   23.3708    2.2176 H         1 MOL     0.0316
     24 H          10.6739   22.9931    1.2516 H         1 MOL     0.0316
     25 H          12.7909   23.6675    1.9912 H         1 MOL     0.0620
     26 H          14.1535   24.9115    3.6362 H         1 MOL     0.0621
     27 H          10.8106   25.0051    6.3266 H         1 MOL     0.0621
     28 H           9.4489   23.7611    4.6818 H         1 MOL     0.0620
     29 H          12.8628   25.6404    7.1318 H         1 MOL     0.0406
     30 H          15.3172   25.5461    5.2431 H         1 MOL     0.0239
     31 H          14.8963   24.3089    6.4860 H         1 MOL     0.0239
     32 H          15.3380   25.9820    6.9917 H         1 MOL     0.0239
@<TRIPOS>BOND
     1    1    2 1 
     2    1   16 1 
     3    1   17 1 
     4    1   18 1 
     5    2    3 1 
     6    2    4 1 
     7    2   19 1 
     8    3   20 1 
     9    3   21 1 
    10    3   22 1 
    11    4    5 1 
    12    4   23 1 
    13    4   24 1 
    14    5    6 ar
    15    5   10 ar
    16    6    7 ar
    17    6   25 1 
    18    7    8 ar
    19    7   26 1 
    20    8    9 ar
    21    8   11 1 
    22    9   10 ar
    23    9   27 1 
    24   10   28 1 
    25   11   12 1 
    26   11   13 1 
    27   11   29 1 
    28   12   30 1 
    29   12   31 1 
    30   12   32 1 
    31   13   14 ar
    32   13   15 ar
@<TRIPOS>SUBSTRUCTURE
1 MOL         1
@<TRIPOS>MOLECULE
query molecule
   32    32     1     0     0
SMALL
NO_CHARGE

@<TRIPOS>ATOM
      1 C          -5.0226    2.5250   12.2121 C.3       1 MOL     0.0072
      2 C          -4.4654    1.0984   12.4207 C.3       1 MOL    -0.0128
      3 C          -5.0112    0.4511   13.7159 C.3       1 MOL     0.0072
      4 C          -4.6539    0.2123   11.1690 C.3       1 MOL     0.0379
      5 C          -3.5244   -0.7459   11.0124 C.ar      1 MOL    -0.0471
      6 C          -3.5673   -2.0180   11.5893 C.ar      1 MOL     0.0037
      7 C          -2.5042   -2.9081   11.4069 C.ar      1 MOL     0.0044
      8 C          -1.3853   -2.5434   10.6499 C.ar      1 MOL    -0.0391
      9 C          -1.3472   -1.2619   10.0788 C.ar      1 MOL     0.0044
     10 C          -2.4072   -0.3769   10.2520 C.ar      1 MOL     0.0037
     11 C          -0.2287   -3.4471   10.3960 C.3       1 MOL     0.0614
     12 C          -0.0828   -4.5470   11.4534 C.3       1 MOL     0.0185
     13 C          -0.3819   -4.1152    9.0322 C.2       1 MOL     0.0489
     14 O          -1.4308   -4.7664    8.7917 O.co2     1 MOL    -0.5492
     15 O           0.6083   -3.9355    8.2630 O.co2     1 MOL    -0.5492
     16 H          -4.8139    3.1479   13.1074 H         1 MOL     0.0232
     17 H          -6.1181    2.4829   12.0509 H         1 MOL     0.0232
     18 H          -4.5431    3.0020   11.3316 H         1 MOL     0.0232
     19 H          -3.3593    1.2153   12.5582 H         1 MOL     0.0299
     20 H          -6.1096    0.3186   13.6319 H         1 MOL     0.0232
     21 H          -4.7950    1.0966   14.5927 H         1 MOL     0.0232
     22 H          -4.5444   -0.5420   13.8844 H         1 MOL     0.0232
     23 H          -4.6572    0.8491   10.2570 H         1 MOL     0.0316
     24 H          -5.6006   -0.3567   11.2260 H         1 MOL     0.0316
     25 H          -4.4260   -2.3144   12.1729 H         1 MOL     0.0620
     26 H          -2.5511   -3.8927   11.8509 H         1 MOL     0.0621
     27 H          -0.4927   -0.9691    9.4865 H         1 MOL     0.0621
     28 H          -2.3665    0.5995    9.7987 H         1 MOL     0.0620
     29 H           0.7199   -2.8498   10.4014 H         1 MOL     0.0406
     30 H          -0.9954   -5.1793   11.4842 H         1 MOL     0.0239
     31 H           0.0688   -4.0975   12.4576 H         1 MOL     0.0239
     32 H           0.7874   -5.1962   11.2237 H         1 MOL     0.0239
@<TRIPOS>BOND
     1    1    2 1 
     2    1   16 1 
     3    1   17 1 
     4    1   18 1 
     5    2    3 1 
     6    2    4 1 
     7    2   19 1 
     8    3   20 1 
     9    3   21 1 
    10    3   22 1 
    11    4    5 1 
    12    4   23 1 
    13    4   24 1 
    14    5    6 ar
    15    5   10 ar
    16    6    7 ar
    17    6   25 1 
    18    7    8 ar
    19    7   26 1 
    20    8    9 ar
    21    8   11 1 
    22    9   10 ar
    23    9   27 1 
    24   10   28 1 
    25   11   12 1 
    26   11   13 1 
    27   11   29 1 
    28   12   30 1 
    29   12   31 1 
    30   12   32 1 
    31   13   14 ar
    32   13   15 ar
@<TRIPOS>SUBSTRUCTURE
1 MOL         1
@<TRIPOS>MOLECULE
query molecule
   32    32     1     0     0
SMALL
NO_CHARGE

@<TRIPOS>ATOM
      1 C           5.6450   18.4463   -4.3764 C.3       1 MOL     0.0072
      2 C           4.7348   18.8753   -3.1976 C.3       1 MOL    -0.0128
      3 C           4.0019   17.6528   -2.5830 C.3       1 MOL     0.0072
      4 C           5.4966   19.6623   -2.1102 C.3       1 MOL     0.0379
      5 C           5.9930   20.9779   -2.5889 C.ar      1 MOL    -0.0471
      6 C           7.3450   21.2954   -2.4119 C.ar      1 MOL     0.0037
      7 C           7.8397   22.5243   -2.8524 C.ar      1 MOL     0.0044
      8 C           6.9920   23.4534   -3.4723 C.ar      1 MOL    -0.0391
      9 C           5.6353   23.1301   -3.6397 C.ar      1 MOL     0.0044
     10 C           5.1395   21.9009   -3.1997 C.ar      1 MOL     0.0037
     11 C           7.4688   24.7862   -3.9602 C.3       1 MOL     0.0614
     12 C           8.2644   25.4916   -2.8444 C.3       1 MOL     0.0185
     13 C           8.3633   24.6480   -5.1970 C.2       1 MOL     0.0489
     14 O           9.4624   24.0417   -5.0605 O.co2     1 MOL    -0.5492
     15 O           7.9061   25.1563   -6.2609 O.co2     1 MOL    -0.5492
     16 H           5.0495   17.9267   -5.1551 H         1 MOL     0.0232
     17 H           6.4403   17.7603   -4.0174 H         1 MOL     0.0232
     18 H           6.1237   19.3381   -4.8324 H         1 MOL     0.0232
     19 H           3.9479   19.5569   -3.6114 H         1 MOL     0.0299
     20 H           4.7360   16.9468   -2.1413 H         1 MOL     0.0232
     21 H           3.4201   17.1182   -3.3631 H         1 MOL     0.0232
     22 H           3.3039   17.9838   -1.7855 H         1 MOL     0.0232
     23 H           6.3652   19.0773   -1.7409 H         1 MOL     0.0316
     24 H           4.8135   19.8662   -1.2516 H         1 MOL     0.0316
     25 H           8.0053   20.5879   -1.9323 H         1 MOL     0.0620
     26 H           8.8850   22.7621   -2.7117 H         1 MOL     0.0621
     27 H           4.9689   23.8358   -4.1164 H         1 MOL     0.0621
     28 H           4.0944   21.6614   -3.3320 H         1 MOL     0.0620
     29 H           6.5888   25.4177   -4.2339 H         1 MOL     0.0406
     30 H           9.1439   24.8747   -2.5620 H         1 MOL     0.0239
     31 H           7.6306   25.6329   -1.9434 H         1 MOL     0.0239
     32 H           8.6250   26.4838   -3.1865 H         1 MOL     0.0239
@<TRIPOS>BOND
     1    1    2 1 
     2    1   16 1 
     3    1   17 1 
     4    1   18 1 
     5    2    3 1 
     6    2    4 1 
     7    2   19 1 
     8    3   20 1 
     9    3   21 1 
    10    3   22 1 
    11    4    5 1 
    12    4   23 1 
    13    4   24 1 
    14    5    6 ar
    15    5   10 ar
    16    6    7 ar
    17    6   25 1 
    18    7    8 ar
    19    7   26 1 
    20    8    9 ar
    21    8   11 1 
    22    9   10 ar
    23    9   27 1 
    24   10   28 1 
    25   11   12 1 
    26   11   13 1 
    27   11   29 1 
    28   12   30 1 
    29   12   31 1 
    30   12   32 1 
    31   13   14 ar
    32   13   15 ar
@<TRIPOS>SUBSTRUCTURE
1 MOL         1
@<TRIPOS>MOLECULE
query molecule
   32    32     1     0     0
SMALL
NO_CHARGE

@<TRIPOS>ATOM
      1 C           8.7274   11.7151   30.8720 C.3       1 MOL     0.0072
      2 C           7.3529   11.6555   31.5731 C.3       1 MOL    -0.0128
      3 C           7.3786   12.4713   32.8926 C.3       1 MOL     0.0072
      4 C           6.2386   12.0980   30.6022 C.3       1 MOL     0.0379
      5 C           5.0158   11.2744   30.7593 C.ar      1 MOL    -0.0471
      6 C           4.1980   11.4128   31.8830 C.ar      1 MOL     0.0037
      7 C           3.0351   10.6575   31.9960 C.ar      1 MOL     0.0044
      8 C           2.6768    9.7551   30.9855 C.ar      1 MOL    -0.0391
      9 C           3.5071    9.6024   29.8706 C.ar      1 MOL     0.0044
     10 C           4.6726   10.3627   29.7548 C.ar      1 MOL     0.0037
     11 C           1.4057    9.0007   31.1815 C.3       1 MOL     0.0614
     12 C           0.5612    9.0162   29.9013 C.3       1 MOL     0.0185
     13 C           1.7554    7.5811   31.6066 C.2       1 MOL     0.0489
     14 O           2.2831    6.8416   30.7290 O.co2     1 MOL    -0.5492
     15 O           1.5109    7.2869   32.8092 O.co2     1 MOL    -0.5492
     16 H           9.5142   11.3363   31.5596 H         1 MOL     0.0232
     17 H           8.9834   12.7552   30.5813 H         1 MOL     0.0232
     18 H           8.7216   11.0805   29.9606 H         1 MOL     0.0232
     19 H           7.1608   10.5833   31.8332 H         1 MOL     0.0299
     20 H           7.5950   13.5422   32.6933 H         1 MOL     0.0232
     21 H           8.1571   12.0744   33.5770 H         1 MOL     0.0232
     22 H           6.3917   12.4020   33.3988 H         1 MOL     0.0232
     23 H           6.5821   11.9579   29.5531 H         1 MOL     0.0316
     24 H           5.9676   13.1611   30.7536 H         1 MOL     0.0316
     25 H           4.4680   12.1059   32.6665 H         1 MOL     0.0620
     26 H           2.4027   10.7645   32.8651 H         1 MOL     0.0621
     27 H           3.2420    8.8996   29.0943 H         1 MOL     0.0621
     28 H           5.3051   10.2485   28.8874 H         1 MOL     0.0620
     29 H           0.8153    9.4650   32.0083 H         1 MOL     0.0406
     30 H           1.1346    8.5761   29.0568 H         1 MOL     0.0239
     31 H           0.2863   10.0574   29.6324 H         1 MOL     0.0239
     32 H          -0.3697    8.4269   30.0370 H         1 MOL     0.0239
@<TRIPOS>BOND
     1    1    2 1 
     2    1   16 1 
     3    1   17 1 
     4    1   18 1 
     5    2    3 1 
     6    2    4 1 
     7    2   19 1 
     8    3   20 1 
     9    3   21 1 
    10    3   22 1 
    11    4    5 1 
    12    4   23 1 
    13    4   24 1 
    14    5    6 ar
    15    5   10 ar
    16    6    7 ar
    17    6   25 1 
    18    7    8 ar
    19    7   26 1 
    20    8    9 ar
    21    8   11 1 
    22    9   10 ar
    23    9   27 1 
    24   10   28 1 
    25   11   12 1 
    26   11   13 1 
    27   11   29 1 
    28   12   30 1 
    29   12   31 1 
    30   12   32 1 
    31   13   14 ar
    32   13   15 ar
@<TRIPOS>SUBSTRUCTURE
1 MOL         1
@<TRIPOS>MOLECULE
query molecule
   32    32     1     0     0
SMALL
NO_CHARGE

@<TRIPOS>ATOM
      1 C          19.3863   -0.9637   12.0319 C.3       1 MOL     0.0072
      2 C          18.2409   -0.5660   12.9998 C.3       1 MOL    -0.0128
      3 C          18.0318   -1.6589   14.0838 C.3       1 MOL     0.0072
      4 C          18.4560    0.8259   13.6459 C.3       1 MOL     0.0379
      5 C          18.1041    1.9154   12.6970 C.ar      1 MOL    -0.0471
      6 C          19.0869    2.5326   11.9161 C.ar      1 MOL     0.0037
      7 C          18.7447    3.5723   11.0458 C.ar      1 MOL     0.0044
      8 C          17.4145    4.0086   10.9473 C.ar      1 MOL    -0.0391
      9 C          16.4450    3.3825   11.7378 C.ar      1 MOL     0.0044
     10 C          16.7765    2.3406   12.6019 C.ar      1 MOL     0.0037
     11 C          17.0971    5.1044    9.9856 C.3       1 MOL     0.0614
     12 C          16.1616    4.5302    8.9048 C.3       1 MOL     0.0185
     13 C          16.3994    6.3061   10.6244 C.2       1 MOL     0.0489
     14 O          16.8889    7.4156   10.2540 O.co2     1 MOL    -0.5492
     15 O          15.4077    6.1343   11.3878 O.co2     1 MOL    -0.5492
     16 H          19.1751   -1.9517   11.5713 H         1 MOL     0.0232
     17 H          20.3476   -1.0334   12.5842 H         1 MOL     0.0232
     18 H          19.4947   -0.2110   11.2241 H         1 MOL     0.0232
     19 H          17.2939   -0.5159   12.4031 H         1 MOL     0.0299
     20 H          18.9293   -1.7473   14.7301 H         1 MOL     0.0232
     21 H          17.8339   -2.6428   13.6091 H         1 MOL     0.0232
     22 H          17.1611   -1.3967   14.7222 H         1 MOL     0.0232
     23 H          19.5051    0.9613   13.9711 H         1 MOL     0.0316
     24 H          17.7799    0.9393   14.5218 H         1 MOL     0.0316
     25 H          20.1148    2.2089   11.9849 H         1 MOL     0.0620
     26 H          19.5056    4.0459   10.4419 H         1 MOL     0.0621
     27 H          15.4156    3.7076   11.6751 H         1 MOL     0.0621
     28 H          16.0110    1.8677   13.1995 H         1 MOL     0.0620
     29 H          18.0302    5.4516    9.4715 H         1 MOL     0.0406
     30 H          15.2221    4.1692    9.3746 H         1 MOL     0.0239
     31 H          16.6410    3.6729    8.3858 H         1 MOL     0.0239
     32 H          15.9026    5.2999    8.1488 H         1 MOL     0.0239
@<TRIPOS>BOND
     1    1    2 1 
     2    1   16 1 
     3    1   17 1 
     4    1   18 1 
     5    2    3 1 
     6    2    4 1 
     7    2   19 1 
     8    3   20 1 
     9    3   21 1 
    10    3   22 1 
    11    4    5 1 
    12    4   23 1 
    13    4   24 1 
    14    5    6 ar
    15    5   10 ar
    16    6    7 ar
    17    6   25 1 
    18    7    8 ar
    19    7   26 1 
    20    8    9 ar
    21    8   11 1 
    22    9   10 ar
    23    9   27 1 
    24   10   28 1 
    25   11   12 1 
    26   11   13 1 
    27   11   29 1 
    28   12   30 1 
    29   12   31 1 
    30   12   32 1 
    31   13   14 ar
    32   13   15 ar
@<TRIPOS>SUBSTRUCTURE
1 MOL         1
@<TRIPOS>MOLECULE
query molecule
   32    32     1     0     0
SMALL
NO_CHARGE

@<TRIPOS>ATOM
      1 C           7.4912    8.6681   -2.8705 C.3       1 MOL     0.0072
      2 C           6.3293    9.3666   -3.6224 C.3       1 MOL    -0.0128
      3 C           6.8210   10.6105   -4.4075 C.3       1 MOL     0.0072
      4 C           5.5693    8.3795   -4.5419 C.3       1 MOL     0.0379
      5 C           4.4398    7.7199   -3.8202 C.ar      1 MOL    -0.0471
      6 C           3.4961    8.4621   -3.1000 C.ar      1 MOL     0.0037
      7 C           2.4286    7.8209   -2.4683 C.ar      1 MOL     0.0044
      8 C           2.2773    6.4201   -2.5463 C.ar      1 MOL    -0.0391
      9 C           3.2425    5.6877   -3.2533 C.ar      1 MOL     0.0044
     10 C           4.3070    6.3273   -3.8924 C.ar      1 MOL     0.0037
     11 C           1.0815    5.7896   -1.8990 C.3       1 MOL     0.0614
     12 C           1.0042    4.2712   -2.1055 C.3       1 MOL     0.0185
     13 C           1.0230    6.0675   -0.3997 C.2       1 MOL     0.0489
     14 O           0.0395    6.7914   -0.0663 O.co2     1 MOL    -0.5492
     15 O           1.9084    5.6153    0.3808 O.co2     1 MOL    -0.5492
     16 H           7.9714    9.3880   -2.1751 H         1 MOL     0.0232
     17 H           8.2572    8.3037   -3.5880 H         1 MOL     0.0232
     18 H           7.1088    7.8074   -2.2849 H         1 MOL     0.0232
     19 H           5.5941    9.7402   -2.8638 H         1 MOL     0.0299
     20 H           7.5566   10.3156   -5.1839 H         1 MOL     0.0232
     21 H           7.3032   11.3374   -3.7200 H         1 MOL     0.0232
     22 H           5.9665   11.1082   -4.9138 H         1 MOL     0.0232
     23 H           6.2517    7.5968   -4.9330 H         1 MOL     0.0316
     24 H           5.1245    8.9279   -5.4029 H         1 MOL     0.0316
     25 H           3.5935    9.5363   -3.0367 H         1 MOL     0.0620
     26 H           1.7121    8.4053   -1.9062 H         1 MOL     0.0621
     27 H           3.1707    4.6109   -3.3119 H         1 MOL     0.0621
     28 H           5.0349    5.7563   -4.4515 H         1 MOL     0.0620
     29 H           0.1637    6.2456   -2.3617 H         1 MOL     0.0406
     30 H           1.9039    3.7774   -1.6862 H         1 MOL     0.0239
     31 H           0.9465    4.0477   -3.1908 H         1 MOL     0.0239
     32 H           0.1035    3.8615   -1.6057 H         1 MOL     0.0239
@<TRIPOS>BOND
     1    1    2 1 
     2    1   16 1 
     3    1   17 1 
     4    1   18 1 
     5    2    3 1 
     6    2    4 1 
     7    2   19 1 
     8    3   20 1 
     9    3   21 1 
    10    3   22 1 
    11    4    5 1 
    12    4   23 1 
    13    4   24 1 
    14    5    6 ar
    15    5   10 ar
    16    6    7 ar
    17    6   25 1 
    18    7    8 ar
    19    7   26 1 
    20    8    9 ar
    21    8   11 1 
    22    9   10 ar
    23    9   27 1 
    24   10   28 1 
    25   11   12 1 
    26   11   13 1 
    27   11   29 1 
    28   12   30 1 
    29   12   31 1 
    30   12   32 1 
    31   13   14 ar
    32   13   15 ar
@<TRIPOS>SUBSTRUCTURE
1 MOL         1
@<TRIPOS>MOLECULE
query molecule
   32    32     1     0     0
SMALL
NO_CHARGE

@<TRIPOS>ATOM
      1 C           8.1907   21.4790   -2.4949 C.3       1 MOL     0.0072
      2 C           6.8884   20.6525   -2.6414 C.3       1 MOL    -0.0128
      3 C           7.1577   19.1571   -2.3823 C.3       1 MOL     0.0072
      4 C           5.7675   21.1913   -1.7353 C.3       1 MOL     0.0379
      5 C           4.5631   21.5361   -2.5309 C.ar      1 MOL    -0.0471
      6 C           4.5092   22.7336   -3.2522 C.ar      1 MOL     0.0037
      7 C           3.3589   23.0659   -3.9740 C.ar      1 MOL     0.0044
      8 C           2.2471   22.2100   -3.9823 C.ar      1 MOL    -0.0391
      9 C           2.3184   21.0010   -3.2635 C.ar      1 MOL     0.0044
     10 C           3.4681   20.6668   -2.5415 C.ar      1 MOL     0.0037
     11 C           0.9726   22.5420   -4.7156 C.3       1 MOL     0.0614
     12 C           0.3006   23.7117   -3.9761 C.3       1 MOL     0.0185
     13 C           1.2303   22.9232   -6.1786 C.2       1 MOL     0.0489
     14 O           1.8401   22.0319   -6.8468 O.co2     1 MOL    -0.5492
     15 O           0.8608   24.0496   -6.6181 O.co2     1 MOL    -0.5492
     16 H           8.9637   21.0972   -3.1955 H         1 MOL     0.0232
     17 H           8.5844   21.4029   -1.4595 H         1 MOL     0.0232
     18 H           7.9989   22.5462   -2.7279 H         1 MOL     0.0232
     19 H           6.5419   20.7507   -3.7014 H         1 MOL     0.0299
     20 H           7.5407   19.0009   -1.3513 H         1 MOL     0.0232
     21 H           7.9293   18.7886   -3.0949 H         1 MOL     0.0232
     22 H           6.2387   18.5524   -2.5156 H         1 MOL     0.0232
     23 H           6.1043   22.1128   -1.2168 H         1 MOL     0.0316
     24 H           5.4751   20.4304   -0.9826 H         1 MOL     0.0316
     25 H           5.3542   23.4061   -3.2488 H         1 MOL     0.0620
     26 H           3.3189   23.9947   -4.5250 H         1 MOL     0.0621
     27 H           1.4720   20.3283   -3.2613 H         1 MOL     0.0621
     28 H           3.5091   19.7412   -1.9872 H         1 MOL     0.0620
     29 H           0.2918   21.6548   -4.6825 H         1 MOL     0.0406
     30 H           0.9602   24.6025   -4.0004 H         1 MOL     0.0239
     31 H           0.0873   23.4524   -2.9215 H         1 MOL     0.0239
     32 H          -0.6508   23.9728   -4.4798 H         1 MOL     0.0239
@<TRIPOS>BOND
     1    1    2 1 
     2    1   16 1 
     3    1   17 1 
     4    1   18 1 
     5    2    3 1 
     6    2    4 1 
     7    2   19 1 
     8    3   20 1 
     9    3   21 1 
    10    3   22 1 
    11    4    5 1 
    12    4   23 1 
    13    4   24 1 
    14    5    6 ar
    15    5   10 ar
    16    6    7 ar
    17    6   25 1 
    18    7    8 ar
    19    7   26 1 
    20    8    9 ar
    21    8   11 1 
    22    9   10 ar
    23    9   27 1 
    24   10   28 1 
    25   11   12 1 
    26   11   13 1 
    27   11   29 1 
    28   12   30 1 
    29   12   31 1 
    30   12   32 1 
    31   13   14 ar
    32   13   15 ar
@<TRIPOS>SUBSTRUCTURE
1 MOL         1
@<TRIPOS>MOLECULE
query molecule
   32    32     1     0     0
SMALL
NO_CHARGE

@<TRIPOS>ATOM
      1 C           0.4897   19.8067    4.4106 C.3       1 MOL     0.0072
      2 C          -0.6979   20.5442    5.0814 C.3       1 MOL    -0.0128
      3 C          -0.4894   22.0761    5.0606 C.3       1 MOL     0.0072
      4 C          -2.0759   20.1439    4.4924 C.3       1 MOL     0.0379
      5 C          -2.4775   18.7914    4.9766 C.ar      1 MOL    -0.0471
      6 C          -2.6307   18.5528    6.3453 C.ar      1 MOL     0.0037
      7 C          -2.9686   17.2790    6.8003 C.ar      1 MOL     0.0044
      8 C          -3.1702   16.2202    5.9087 C.ar      1 MOL    -0.0391
      9 C          -3.0458   16.4727    4.5284 C.ar      1 MOL     0.0044
     10 C          -2.7036   17.7531    4.0642 C.ar      1 MOL     0.0037
     11 C          -3.4889   14.8422    6.3967 C.3       1 MOL     0.0614
     12 C          -2.2663   14.3126    7.1766 C.3       1 MOL     0.0185
     13 C          -4.7424   14.7415    7.2720 C.2       1 MOL     0.0489
     14 O          -4.8507   15.4173    8.3441 O.co2     1 MOL    -0.5492
     15 O          -5.5979   13.9015    6.8570 O.co2     1 MOL    -0.5492
     16 H           1.4459   20.0852    4.9004 H         1 MOL     0.0232
     17 H           0.5482   20.0701    3.3337 H         1 MOL     0.0232
     18 H           0.3527   18.7081    4.4991 H         1 MOL     0.0232
     19 H          -0.7071   20.2327    6.1592 H         1 MOL     0.0299
     20 H          -0.5085   22.4554    4.0183 H         1 MOL     0.0232
     21 H           0.4882   22.3357    5.5174 H         1 MOL     0.0232
     22 H          -1.2952   22.5770    5.6371 H         1 MOL     0.0232
     23 H          -2.0497   20.1253    3.3858 H         1 MOL     0.0316
     24 H          -2.8566   20.8609    4.8295 H         1 MOL     0.0316
     25 H          -2.4828   19.3529    7.0542 H         1 MOL     0.0620
     26 H          -3.0661   17.1004    7.8607 H         1 MOL     0.0621
     27 H          -3.2089   15.6775    3.8133 H         1 MOL     0.0621
     28 H          -2.6132   17.9422    3.0036 H         1 MOL     0.0620
     29 H          -3.6337   14.1731    5.5113 H         1 MOL     0.0406
     30 H          -2.1090   14.9329    8.0827 H         1 MOL     0.0239
     31 H          -1.3507   14.3603    6.5506 H         1 MOL     0.0239
     32 H          -2.4259   13.2604    7.4887 H         1 MOL     0.0239
@<TRIPOS>BOND
     1    1    2 1 
     2    1   16 1 
     3    1   17 1 
     4    1   18 1 
     5    2    3 1 
     6    2    4 1 
     7    2   19 1 
     8    3   20 1 
     9    3   21 1 
    10    3   22 1 
    11    4    5 1 
    12    4   23 1 
    13    4   24 1 
    14    5    6 ar
    15    5   10 ar
    16    6    7 ar
    17    6   25 1 
    18    7    8 ar
    19    7   26 1 
    20    8    9 ar
    21    8   11 1 
    22    9   10 ar
    23    9   27 1 
    24   10   28 1 
    25   11   12 1 
    26   11   13 1 
    27   11   29 1 
    28   12   30 1 
    29   12   31 1 
    30   12   32 1 
    31   13   14 ar
    32   13   15 ar
@<TRIPOS>SUBSTRUCTURE
1 MOL         1
@<TRIPOS>MOLECULE
query molecule
   32    32     1     0     0
SMALL
NO_CHARGE

@<TRIPOS>ATOM
      1 C           7.7382   -3.2441   20.5519 C.3       1 MOL     0.0072
      2 C           6.2391   -3.1830   20.9289 C.3       1 MOL    -0.0128
      3 C           6.0763   -2.5162   22.3229 C.3       1 MOL     0.0072
      4 C           5.3671   -2.4509   19.8824 C.3       1 MOL     0.0379
      5 C           4.9205   -3.3002   18.7463 C.ar      1 MOL    -0.0471
      6 C           4.9275   -4.6962   18.7733 C.ar      1 MOL     0.0037
      7 C           4.6048   -5.4195   17.6245 C.ar      1 MOL     0.0044
      8 C           4.2693   -4.7654   16.4225 C.ar      1 MOL    -0.0391
      9 C           4.1611   -3.3693   16.4355 C.ar      1 MOL     0.0044
     10 C           4.4777   -2.6432   17.5862 C.ar      1 MOL     0.0037
     11 C           4.0534   -5.6109   15.2037 C.3       1 MOL     0.0614
     12 C           3.5174   -4.7988   14.0071 C.3       1 MOL     0.0185
     13 C           5.3385   -6.3329   14.7590 C.2       1 MOL     0.0489
     14 O           5.1401   -7.2694   13.9268 O.co2     1 MOL    -0.5492
     15 O           6.4563   -5.9692   15.2287 O.co2     1 MOL    -0.5492
     16 H           8.3017   -3.7457   21.3662 H         1 MOL     0.0232
     17 H           8.1435   -2.2150   20.4530 H         1 MOL     0.0232
     18 H           7.9132   -3.7910   19.6057 H         1 MOL     0.0232
     19 H           5.8665   -4.2363   21.0174 H         1 MOL     0.0299
     20 H           6.4336   -1.4646   22.2912 H         1 MOL     0.0232
     21 H           6.6589   -3.0738   23.0859 H         1 MOL     0.0232
     22 H           5.0061   -2.5231   22.6199 H         1 MOL     0.0232
     23 H           5.9062   -1.5687   19.4721 H         1 MOL     0.0316
     24 H           4.4337   -2.1028   20.3812 H         1 MOL     0.0316
     25 H           5.1941   -5.2248   19.6785 H         1 MOL     0.0620
     26 H           4.6250   -6.5005   17.6437 H         1 MOL     0.0621
     27 H           3.8455   -2.8484   15.5428 H         1 MOL     0.0621
     28 H           4.3963   -1.5664   17.5773 H         1 MOL     0.0620
     29 H           3.2869   -6.3915   15.4419 H         1 MOL     0.0406
     30 H           4.2581   -4.0343   13.6912 H         1 MOL     0.0239
     31 H           2.5742   -4.2813   14.2863 H         1 MOL     0.0239
     32 H           3.3110   -5.4662   13.1437 H         1 MOL     0.0239
@<TRIPOS>BOND
     1    1    2 1 
     2    1   16 1 
     3    1   17 1 
     4    1   18 1 
     5    2    3 1 
     6    2    4 1 
     7    2   19 1 
     8    3   20 1 
     9    3   21 1 
    10    3   22 1 
    11    4    5 1 
    12    4   23 1 
    13    4   24 1 
    14    5    6 ar
    15    5   10 ar
    16    6    7 ar
    17    6   25 1 
    18    7    8 ar
    19    7   26 1 
    20    8    9 ar
    21    8   11 1 
    22    9   10 ar
    23    9   27 1 
    24   10   28 1 
    25   11   12 1 
    26   11   13 1 
    27   11   29 1 
    28   12   30 1 
    29   12   31 1 
    30   12   32 1 
    31   13   14 ar
    32   13   15 ar
@<TRIPOS>SUBSTRUCTURE
1 MOL         1
@<TRIPOS>MOLECULE
query molecule
   32    32     1     0     0
SMALL
NO_CHARGE

@<TRIPOS>ATOM
      1 C          13.9119   -1.4885    7.1815 C.3       1 MOL     0.0072
      2 C          13.6944   -2.9330    6.6728 C.3       1 MOL    -0.0128
      3 C          13.9729   -3.0241    5.1490 C.3       1 MOL     0.0072
      4 C          14.5128   -3.9870    7.4624 C.3       1 MOL     0.0379
      5 C          13.9109   -4.2313    8.8053 C.ar      1 MOL    -0.0471
      6 C          14.6097   -3.8516    9.9567 C.ar      1 MOL     0.0037
      7 C          14.0480   -4.0603   11.2177 C.ar      1 MOL     0.0044
      8 C          12.7814   -4.6441   11.3473 C.ar      1 MOL    -0.0391
      9 C          12.0961   -5.0538   10.1898 C.ar      1 MOL     0.0044
     10 C          12.6593   -4.8480    8.9268 C.ar      1 MOL     0.0037
     11 C          12.1197   -4.8564   12.6706 C.3       1 MOL     0.0614
     12 C          12.8384   -6.0058   13.3927 C.3       1 MOL     0.0185
     13 C          12.1202   -3.5765   13.5101 C.2       1 MOL     0.0489
     14 O          13.2303   -3.2062   14.0007 O.co2     1 MOL    -0.5492
     15 O          11.0024   -3.0003   13.6282 O.co2     1 MOL    -0.5492
     16 H          13.2553   -0.7865    6.6248 H         1 MOL     0.0232
     17 H          14.9671   -1.1760    7.0332 H         1 MOL     0.0232
     18 H          13.6681   -1.4143    8.2623 H         1 MOL     0.0232
     19 H          12.6126   -3.1822    6.8234 H         1 MOL     0.0299
     20 H          15.0368   -2.7905    4.9359 H         1 MOL     0.0232
     21 H          13.3306   -2.3072    4.5960 H         1 MOL     0.0232
     22 H          13.7553   -4.0508    4.7856 H         1 MOL     0.0232
     23 H          15.5630   -3.6613    7.5971 H         1 MOL     0.0316
     24 H          14.4992   -4.9562    6.9177 H         1 MOL     0.0316
     25 H          15.5862   -3.3987    9.8705 H         1 MOL     0.0620
     26 H          14.5950   -3.7671   12.1032 H         1 MOL     0.0621
     27 H          11.1305   -5.5322   10.2725 H         1 MOL     0.0621
     28 H          12.1313   -5.1667    8.0399 H         1 MOL     0.0620
     29 H          11.0555   -5.1627   12.5107 H         1 MOL     0.0406
     30 H          13.9055   -5.7525   13.5666 H         1 MOL     0.0239
     31 H          12.7832   -6.9410   12.7978 H         1 MOL     0.0239
     32 H          12.3606   -6.1885   14.3798 H         1 MOL     0.0239
@<TRIPOS>BOND
     1    1    2 1 
     2    1   16 1 
     3    1   17 1 
     4    1   18 1 
     5    2    3 1 
     6    2    4 1 
     7    2   19 1 
     8    3   20 1 
     9    3   21 1 
    10    3   22 1 
    11    4    5 1 
    12    4   23 1 
    13    4   24 1 
    14    5    6 ar
    15    5   10 ar
    16    6    7 ar
    17    6   25 1 
    18    7    8 ar
    19    7   26 1 
    20    8    9 ar
    21    8   11 1 
    22    9   10 ar
    23    9   27 1 
    24   10   28 1 
    25   11   12 1 
    26   11   13 1 
    27   11   29 1 
    28   12   30 1 
    29   12   31 1 
    30   12   32 1 
    31   13   14 ar
    32   13   15 ar
@<TRIPOS>SUBSTRUCTURE
1 MOL         1
@<TRIPOS>MOLECULE
query molecule
   32    32     1     0     0
SMALL
NO_CHARGE

@<TRIPOS>ATOM
      1 C           1.6377    1.8697   -3.1762 C.3       1 MOL     0.0072
      2 C           1.2019    0.3857   -3.2867 C.3       1 MOL    -0.0128
      3 C          -0.1042    0.2393   -4.1125 C.3       1 MOL     0.0072
      4 C           2.3112   -0.5228   -3.8692 C.3       1 MOL     0.0379
      5 C           3.2288   -1.0106   -2.8056 C.ar      1 MOL    -0.0471
      6 C           2.8077   -2.0000   -1.9084 C.ar      1 MOL     0.0037
      7 C           3.6870   -2.4734   -0.9321 C.ar      1 MOL     0.0044
      8 C           4.9996   -1.9779   -0.8603 C.ar      1 MOL    -0.0391
      9 C           5.4104   -0.9812   -1.7516 C.ar      1 MOL     0.0044
     10 C           4.5272   -0.4954   -2.7189 C.ar      1 MOL     0.0037
     11 C           5.8928   -2.5740    0.1668 C.3       1 MOL     0.0614
     12 C           7.1081   -3.2220   -0.5317 C.3       1 MOL     0.0185
     13 C           6.4135   -1.5823    1.1972 C.2       1 MOL     0.0489
     14 O           6.0325   -0.3898    1.1966 O.co2     1 MOL    -0.5492
     15 O           7.2107   -2.1244    2.0039 O.co2     1 MOL    -0.5492
     16 H           0.8246    2.4768   -2.7253 H         1 MOL     0.0232
     17 H           1.8603    2.2793   -4.1851 H         1 MOL     0.0232
     18 H           2.5460    1.9664   -2.5478 H         1 MOL     0.0232
     19 H           0.9744    0.0176   -2.2528 H         1 MOL     0.0299
     20 H           0.0573    0.5801   -5.1572 H         1 MOL     0.0232
     21 H          -0.9204    0.8421   -3.6640 H         1 MOL     0.0232
     22 H          -0.4212   -0.8256   -4.1362 H         1 MOL     0.0232
     23 H           2.9067    0.0104   -4.6353 H         1 MOL     0.0316
     24 H           1.8493   -1.4254   -4.3282 H         1 MOL     0.0316
     25 H           1.8068   -2.4003   -1.9688 H         1 MOL     0.0620
     26 H           3.3633   -3.2322   -0.2342 H         1 MOL     0.0621
     27 H           6.4159   -0.5901   -1.6974 H         1 MOL     0.0621
     28 H           4.8472    0.2722   -3.4077 H         1 MOL     0.0620
     29 H           5.3343   -3.3761    0.7116 H         1 MOL     0.0406
     30 H           7.6948   -2.4524   -1.0758 H         1 MOL     0.0239
     31 H           6.7854   -4.0025   -1.2485 H         1 MOL     0.0239
     32 H           7.7680   -3.6870    0.2324 H         1 MOL     0.0239
@<TRIPOS>BOND
     1    1    2 1 
     2    1   16 1 
     3    1   17 1 
     4    1   18 1 
     5    2    3 1 
     6    2    4 1 
     7    2   19 1 
     8    3   20 1 
     9    3   21 1 
    10    3   22 1 
    11    4    5 1 
    12    4   23 1 
    13    4   24 1 
    14    5    6 ar
    15    5   10 ar
    16    6    7 ar
    17    6   25 1 
    18    7    8 ar
    19    7   26 1 
    20    8    9 ar
    21    8   11 1 
    22    9   10 ar
    23    9   27 1 
    24   10   28 1 
    25   11   12 1 
    26   11   13 1 
    27   11   29 1 
    28   12   30 1 
    29   12   31 1 
    30   12   32 1 
    31   13   14 ar
    32   13   15 ar
@<TRIPOS>SUBSTRUCTURE
1 MOL         1
@<TRIPOS>MOLECULE
query molecule
   32    32     1     0     0
SMALL
NO_CHARGE

@<TRIPOS>ATOM
      1 C          16.0369   -1.1020    7.7514 C.3       1 MOL     0.0072
      2 C          15.0354   -2.2727    7.9444 C.3       1 MOL    -0.0128
      3 C          14.9060   -2.6704    9.4372 C.3       1 MOL     0.0072
      4 C          13.6549   -1.9567    7.3199 C.3       1 MOL     0.0379
      5 C          13.5701   -2.5292    5.9489 C.ar      1 MOL    -0.0471
      6 C          12.9358   -3.7600    5.7383 C.ar      1 MOL     0.0037
      7 C          12.8043   -4.2698    4.4405 C.ar      1 MOL     0.0044
      8 C          13.3059   -3.5564    3.3450 C.ar      1 MOL    -0.0391
      9 C          13.9741   -2.3413    3.5723 C.ar      1 MOL     0.0044
     10 C          14.1070   -1.8313    4.8635 C.ar      1 MOL     0.0037
     11 C          13.1583   -4.0101    1.9284 C.3       1 MOL     0.0614
     12 C          13.5508   -5.4835    1.7788 C.3       1 MOL     0.0185
     13 C          11.7323   -3.7527    1.4370 C.2       1 MOL     0.0489
     14 O          10.8781   -4.6723    1.5551 O.co2     1 MOL    -0.5492
     15 O          11.5450   -2.5954    0.9542 O.co2     1 MOL    -0.5492
     16 H          17.0335   -1.3700    8.1598 H         1 MOL     0.0232
     17 H          15.6702   -0.1960    8.2795 H         1 MOL     0.0232
     18 H          16.1471   -0.8615    6.6732 H         1 MOL     0.0232
     19 H          15.4434   -3.1674    7.4077 H         1 MOL     0.0299
     20 H          14.5052   -1.8254   10.0337 H         1 MOL     0.0232
     21 H          15.8985   -2.9560    9.8452 H         1 MOL     0.0232
     22 H          14.2195   -3.5374    9.5427 H         1 MOL     0.0232
     23 H          13.4970   -0.8616    7.2541 H         1 MOL     0.0316
     24 H          12.8402   -2.4132    7.9199 H         1 MOL     0.0316
     25 H          12.5423   -4.3158    6.5771 H         1 MOL     0.0620
     26 H          12.3083   -5.2168    4.2833 H         1 MOL     0.0621
     27 H          14.3837   -1.7895    2.7378 H         1 MOL     0.0621
     28 H          14.6163   -0.8936    5.0278 H         1 MOL     0.0620
     29 H          13.8401   -3.4025    1.2830 H         1 MOL     0.0406
     30 H          12.9003   -6.1104    2.4239 H         1 MOL     0.0239
     31 H          14.6074   -5.6390    2.0846 H         1 MOL     0.0239
     32 H          13.4360   -5.8111    0.7244 H         1 MOL     0.0239
@<TRIPOS>BOND
     1    1    2 1 
     2    1   16 1 
     3    1   17 1 
     4    1   18 1 
     5    2    3 1 
     6    2    4 1 
     7    2   19 1 
     8    3   20 1 
     9    3   21 1 
    10    3   22 1 
    11    4    5 1 
    12    4   23 1 
    13    4   24 1 
    14    5    6 ar
    15    5   10 ar
    16    6    7 ar
    17    6   25 1 
    18    7    8 ar
    19    7   26 1 
    20    8    9 ar
    21    8   11 1 
    22    9   10 ar
    23    9   27 1 
    24   10   28 1 
    25   11   12 1 
    26   11   13 1 
    27   11   29 1 
    28   12   30 1 
    29   12   31 1 
    30   12   32 1 
    31   13   14 ar
    32   13   15 ar
@<TRIPOS>SUBSTRUCTURE
1 MOL         1
@<TRIPOS>MOLECULE
query molecule
   32    32     1     0     0
SMALL
NO_CHARGE

@<TRIPOS>ATOM
      1 C          14.7077   20.7585   27.4231 C.3       1 MOL     0.0072
      2 C          14.9800   22.2400   27.7974 C.3       1 MOL    -0.0128
      3 C          16.4976   22.5435   27.6502 C.3       1 MOL     0.0072
      4 C          14.1377   23.2677   26.9964 C.3       1 MOL     0.0379
      5 C          12.6806   23.1767   27.2870 C.ar      1 MOL    -0.0471
      6 C          11.9185   22.1569   26.7179 C.ar      1 MOL     0.0037
      7 C          10.5588   22.0618   26.9826 C.ar      1 MOL     0.0044
      8 C           9.9241   22.9866   27.8146 C.ar      1 MOL    -0.0391
      9 C          10.6821   24.0256   28.3750 C.ar      1 MOL     0.0044
     10 C          12.0560   24.1178   28.1151 C.ar      1 MOL     0.0037
     11 C           8.4666   22.8745   28.1415 C.3       1 MOL     0.0614
     12 C           7.6541   22.7024   26.8405 C.3       1 MOL     0.0185
     13 C           8.1971   21.6846   29.0706 C.2       1 MOL     0.0489
     14 O           9.1836   21.0404   29.5244 O.co2     1 MOL    -0.5492
     15 O           6.9751   21.4840   29.3229 O.co2     1 MOL    -0.5492
     16 H          15.3101   20.0748   28.0547 H         1 MOL     0.0232
     17 H          14.9634   20.5809   26.3569 H         1 MOL     0.0232
     18 H          13.6317   20.5235   27.5690 H         1 MOL     0.0232
     19 H          14.7219   22.3679   28.8796 H         1 MOL     0.0299
     20 H          16.8098   22.4400   26.5891 H         1 MOL     0.0232
     21 H          17.0944   21.8348   28.2622 H         1 MOL     0.0232
     22 H          16.7236   23.5775   27.9845 H         1 MOL     0.0232
     23 H          14.2768   23.1195   25.9055 H         1 MOL     0.0316
     24 H          14.4571   24.3002   27.2633 H         1 MOL     0.0316
     25 H          12.3952   21.4300   26.0737 H         1 MOL     0.0620
     26 H           9.9891   21.2538   26.5457 H         1 MOL     0.0621
     27 H          10.2039   24.7511   29.0173 H         1 MOL     0.0621
     28 H          12.6331   24.9173   28.5584 H         1 MOL     0.0620
     29 H           8.1200   23.7990   28.6638 H         1 MOL     0.0406
     30 H           7.9509   21.7705   26.3158 H         1 MOL     0.0239
     31 H           7.8514   23.5624   26.1635 H         1 MOL     0.0239
     32 H           6.5649   22.6697   27.0516 H         1 MOL     0.0239
@<TRIPOS>BOND
     1    1    2 1 
     2    1   16 1 
     3    1   17 1 
     4    1   18 1 
     5    2    3 1 
     6    2    4 1 
     7    2   19 1 
     8    3   20 1 
     9    3   21 1 
    10    3   22 1 
    11    4    5 1 
    12    4   23 1 
    13    4   24 1 
    14    5    6 ar
    15    5   10 ar
    16    6    7 ar
    17    6   25 1 
    18    7    8 ar
    19    7   26 1 
    20    8    9 ar
    21    8   11 1 
    22    9   10 ar
    23    9   27 1 
    24   10   28 1 
    25   11   12 1 
    26   11   13 1 
    27   11   29 1 
    28   12   30 1 
    29   12   31 1 
    30   12   32 1 
    31   13   14 ar
    32   13   15 ar
@<TRIPOS>SUBSTRUCTURE
1 MOL         1
@<TRIPOS>MOLECULE
query molecule
   32    32     1     0     0
SMALL
NO_CHARGE

@<TRIPOS>ATOM
      1 C           7.0390   22.8275   -2.1215 C.3       1 MOL     0.0072
      2 C           7.5062   21.3486   -2.1127 C.3       1 MOL    -0.0128
      3 C           8.6614   21.1779   -1.0905 C.3       1 MOL     0.0072
      4 C           6.3915   20.3089   -1.8319 C.3       1 MOL     0.0379
      5 C           5.2544   20.4699   -2.7704 C.ar      1 MOL    -0.0471
      6 C           4.1787   21.2751   -2.3969 C.ar      1 MOL     0.0037
      7 C           3.1296   21.4922   -3.2786 C.ar      1 MOL     0.0044
      8 C           3.1274   20.9099   -4.5508 C.ar      1 MOL    -0.0391
      9 C           4.1970   20.0684   -4.9077 C.ar      1 MOL     0.0044
     10 C           5.2509   19.8429   -4.0148 C.ar      1 MOL     0.0037
     11 C           2.0244   21.1359   -5.5367 C.3       1 MOL     0.0614
     12 C           0.9024   20.1256   -5.2175 C.3       1 MOL     0.0185
     13 C           1.4297   22.5521   -5.5018 C.2       1 MOL     0.0489
     14 O           0.9211   22.9917   -4.4281 O.co2     1 MOL    -0.5492
     15 O           1.5039   23.1457   -6.6118 O.co2     1 MOL    -0.5492
     16 H           7.8821   23.5010   -2.3782 H         1 MOL     0.0232
     17 H           6.6473   23.1110   -1.1210 H         1 MOL     0.0232
     18 H           6.2300   22.9708   -2.8681 H         1 MOL     0.0232
     19 H           7.9154   21.1251   -3.1309 H         1 MOL     0.0299
     20 H           8.3006   21.3812   -0.0610 H         1 MOL     0.0232
     21 H           9.4882   21.8771   -1.3258 H         1 MOL     0.0232
     22 H           9.0512   20.1394   -1.1308 H         1 MOL     0.0232
     23 H           5.9937   20.4376   -0.8029 H         1 MOL     0.0316
     24 H           6.7827   19.2768   -1.9458 H         1 MOL     0.0316
     25 H           4.1695   21.7419   -1.4227 H         1 MOL     0.0620
     26 H           2.3075   22.1265   -2.9789 H         1 MOL     0.0621
     27 H           4.2027   19.5944   -5.8787 H         1 MOL     0.0621
     28 H           6.0658   19.1942   -4.2963 H         1 MOL     0.0620
     29 H           2.3945   20.9178   -6.5723 H         1 MOL     0.0406
     30 H           0.4902   20.3166   -4.2049 H         1 MOL     0.0239
     31 H           1.2992   19.0883   -5.2410 H         1 MOL     0.0239
     32 H           0.0773   20.2056   -5.9551 H         1 MOL     0.0239
@<TRIPOS>BOND
     1    1    2 1 
     2    1   16 1 
     3    1   17 1 
     4    1   18 1 
     5    2    3 1 
     6    2    4 1 
     7    2   19 1 
     8    3   20 1 
     9    3   21 1 
    10    3   22 1 
    11    4    5 1 
    12    4   23 1 
    13    4   24 1 
    14    5    6 ar
    15    5   10 ar
    16    6    7 ar
    17    6   25 1 
    18    7    8 ar
    19    7   26 1 
    20    8    9 ar
    21    8   11 1 
    22    9   10 ar
    23    9   27 1 
    24   10   28 1 
    25   11   12 1 
    26   11   13 1 
    27   11   29 1 
    28   12   30 1 
    29   12   31 1 
    30   12   32 1 
    31   13   14 ar
    32   13   15 ar
@<TRIPOS>SUBSTRUCTURE
1 MOL         1
@<TRIPOS>MOLECULE
query molecule
   32    32     1     0     0
SMALL
NO_CHARGE

@<TRIPOS>ATOM
      1 C           9.8779   -4.9897   22.8224 C.3       1 MOL     0.0072
      2 C           9.0833   -4.8686   21.4935 C.3       1 MOL    -0.0128
      3 C           9.6372   -5.8582   20.4320 C.3       1 MOL     0.0072
      4 C           7.5649   -5.0403   21.7539 C.3       1 MOL     0.0379
      5 C           6.7597   -4.5010   20.6269 C.ar      1 MOL    -0.0471
      6 C           6.3591   -5.3340   19.5782 C.ar      1 MOL     0.0037
      7 C           5.6084   -4.8179   18.5203 C.ar      1 MOL     0.0044
      8 C           5.2478   -3.4615   18.4869 C.ar      1 MOL    -0.0391
      9 C           5.6415   -2.6430   19.5708 C.ar      1 MOL     0.0044
     10 C           6.3912   -3.1535   20.6266 C.ar      1 MOL     0.0037
     11 C           4.5332   -2.8469   17.3125 C.3       1 MOL     0.0614
     12 C           4.1323   -3.8480   16.2209 C.3       1 MOL     0.0185
     13 C           3.3536   -2.0197   17.7572 C.2       1 MOL     0.0489
     14 O           3.6272   -0.8371   18.0997 O.co2     1 MOL    -0.5492
     15 O           2.2278   -2.6000   17.7753 O.co2     1 MOL    -0.5492
     16 H          10.9608   -4.8252   22.6435 H         1 MOL     0.0232
     17 H           9.7409   -6.0015   23.2597 H         1 MOL     0.0232
     18 H           9.5197   -4.2368   23.5554 H         1 MOL     0.0232
     19 H           9.2445   -3.8300   21.1078 H         1 MOL     0.0299
     20 H           9.4953   -6.9063   20.7710 H         1 MOL     0.0232
     21 H          10.7217   -5.6840   20.2695 H         1 MOL     0.0232
     22 H           9.1085   -5.7252   19.4649 H         1 MOL     0.0232
     23 H           7.2728   -4.4667   22.6608 H         1 MOL     0.0316
     24 H           7.3032   -6.1071   21.8962 H         1 MOL     0.0316
     25 H           6.6364   -6.3782   19.5838 H         1 MOL     0.0620
     26 H           5.3156   -5.4697   17.7084 H         1 MOL     0.0621
     27 H           5.3659   -1.5968   19.5710 H         1 MOL     0.0621
     28 H           6.6898   -2.5107   21.4405 H         1 MOL     0.0620
     29 H           5.2469   -2.1258   16.8271 H         1 MOL     0.0406
     30 H           3.4370   -4.6103   16.6298 H         1 MOL     0.0239
     31 H           5.0263   -4.3674   15.8160 H         1 MOL     0.0239
     32 H           3.6268   -3.3196   15.3843 H         1 MOL     0.0239
@<TRIPOS>BOND
     1    1    2 1 
     2    1   16 1 
     3    1   17 1 
     4    1   18 1 
     5    2    3 1 
     6    2    4 1 
     7    2   19 1 
     8    3   20 1 
     9    3   21 1 
    10    3   22 1 
    11    4    5 1 
    12    4   23 1 
    13    4   24 1 
    14    5    6 ar
    15    5   10 ar
    16    6    7 ar
    17    6   25 1 
    18    7    8 ar
    19    7   26 1 
    20    8    9 ar
    21    8   11 1 
    22    9   10 ar
    23    9   27 1 
    24   10   28 1 
    25   11   12 1 
    26   11   13 1 
    27   11   29 1 
    28   12   30 1 
    29   12   31 1 
    30   12   32 1 
    31   13   14 ar
    32   13   15 ar
@<TRIPOS>SUBSTRUCTURE
1 MOL         1
@<TRIPOS>MOLECULE
query molecule
   32    32     1     0     0
SMALL
NO_CHARGE

@<TRIPOS>ATOM
      1 C          14.3279    5.1665   -4.1440 C.3       1 MOL     0.0072
      2 C          13.6304    4.3975   -2.9866 C.3       1 MOL    -0.0128
      3 C          13.1061    3.0228   -3.4724 C.3       1 MOL     0.0072
      4 C          14.5063    4.2736   -1.7127 C.3       1 MOL     0.0379
      5 C          14.7966    5.5872   -1.0585 C.ar      1 MOL    -0.0471
      6 C          13.9792    6.7108   -1.2308 C.ar      1 MOL     0.0037
      7 C          14.2749    7.9133   -0.5959 C.ar      1 MOL     0.0044
      8 C          15.3780    8.0199    0.2631 C.ar      1 MOL    -0.0391
      9 C          16.2196    6.9034    0.4174 C.ar      1 MOL     0.0044
     10 C          15.9313    5.6965   -0.2367 C.ar      1 MOL     0.0037
     11 C          15.6643    9.2707    1.0465 C.3       1 MOL     0.0614
     12 C          15.5796   10.5096    0.1394 C.3       1 MOL     0.0185
     13 C          14.6267    9.4000    2.1754 C.2       1 MOL     0.0489
     14 O          15.0320    9.0299    3.3117 O.co2     1 MOL    -0.5492
     15 O          13.4638    9.8104    1.8877 O.co2     1 MOL    -0.5492
     16 H          13.6297    5.2962   -4.9967 H         1 MOL     0.0232
     17 H          15.2284    4.6238   -4.4949 H         1 MOL     0.0232
     18 H          14.6390    6.1746   -3.7907 H         1 MOL     0.0232
     19 H          12.7289    4.9980   -2.6928 H         1 MOL     0.0299
     20 H          13.9511    2.3780   -3.7916 H         1 MOL     0.0232
     21 H          12.4298    3.1690   -4.3419 H         1 MOL     0.0232
     22 H          12.5440    2.5075   -2.6668 H         1 MOL     0.0232
     23 H          15.4760    3.7890   -1.9530 H         1 MOL     0.0316
     24 H          13.9731    3.6500   -0.9593 H         1 MOL     0.0316
     25 H          13.1086    6.6369   -1.8697 H         1 MOL     0.0620
     26 H          13.6344    8.7688   -0.7546 H         1 MOL     0.0621
     27 H          17.0907    6.9719    1.0535 H         1 MOL     0.0621
     28 H          16.5835    4.8441   -0.1002 H         1 MOL     0.0620
     29 H          16.6860    9.1972    1.4923 H         1 MOL     0.0406
     30 H          14.5453   10.6040   -0.2564 H         1 MOL     0.0239
     31 H          16.2803   10.4208   -0.7164 H         1 MOL     0.0239
     32 H          15.8221   11.4247    0.7171 H         1 MOL     0.0239
@<TRIPOS>BOND
     1    1    2 1 
     2    1   16 1 
     3    1   17 1 
     4    1   18 1 
     5    2    3 1 
     6    2    4 1 
     7    2   19 1 
     8    3   20 1 
     9    3   21 1 
    10    3   22 1 
    11    4    5 1 
    12    4   23 1 
    13    4   24 1 
    14    5    6 ar
    15    5   10 ar
    16    6    7 ar
    17    6   25 1 
    18    7    8 ar
    19    7   26 1 
    20    8    9 ar
    21    8   11 1 
    22    9   10 ar
    23    9   27 1 
    24   10   28 1 
    25   11   12 1 
    26   11   13 1 
    27   11   29 1 
    28   12   30 1 
    29   12   31 1 
    30   12   32 1 
    31   13   14 ar
    32   13   15 ar
@<TRIPOS>SUBSTRUCTURE
1 MOL         1
@<TRIPOS>MOLECULE
query molecule
   32    32     1     0     0
SMALL
NO_CHARGE

@<TRIPOS>ATOM
      1 C          13.4839   21.7474   20.2149 C.3       1 MOL     0.0072
      2 C          14.7725   22.5883   20.3769 C.3       1 MOL    -0.0128
      3 C          14.6739   23.4095   21.6915 C.3       1 MOL     0.0072
      4 C          16.0854   21.7725   20.3625 C.3       1 MOL     0.0379
      5 C          16.4578   21.2189   19.0363 C.ar      1 MOL    -0.0471
      6 C          15.5862   20.4109   18.3117 C.ar      1 MOL     0.0037
      7 C          15.9505   19.9085   17.0675 C.ar      1 MOL     0.0044
      8 C          17.1937   20.1979   16.4954 C.ar      1 MOL    -0.0391
      9 C          18.0902   20.9844   17.2451 C.ar      1 MOL     0.0044
     10 C          17.7263   21.4907   18.5025 C.ar      1 MOL     0.0037
     11 C          17.5680   19.7177   15.1228 C.3       1 MOL     0.0614
     12 C          18.7035   18.6781   15.2206 C.3       1 MOL     0.0185
     13 C          16.3881   19.0930   14.3577 C.2       1 MOL     0.0489
     14 O          15.4487   19.9016   14.0781 O.co2     1 MOL    -0.5492
     15 O          16.4380   17.8822   14.0190 O.co2     1 MOL    -0.5492
     16 H          12.5893   22.4041   20.2136 H         1 MOL     0.0232
     17 H          13.3905   21.0204   21.0487 H         1 MOL     0.0232
     18 H          13.5108   21.1847   19.2574 H         1 MOL     0.0232
     19 H          14.8176   23.3149   19.5268 H         1 MOL     0.0299
     20 H          14.6208   22.7290   22.5667 H         1 MOL     0.0232
     21 H          13.7591   24.0397   21.6774 H         1 MOL     0.0232
     22 H          15.5576   24.0705   21.8043 H         1 MOL     0.0232
     23 H          16.0203   20.9275   21.0805 H         1 MOL     0.0316
     24 H          16.9255   22.4375   20.6710 H         1 MOL     0.0316
     25 H          14.6123   20.1749   18.7192 H         1 MOL     0.0620
     26 H          15.2519   19.2871   16.5226 H         1 MOL     0.0621
     27 H          19.0711   21.2058   16.8456 H         1 MOL     0.0621
     28 H          18.4276   22.0939   19.0628 H         1 MOL     0.0620
     29 H          17.9447   20.5902   14.5309 H         1 MOL     0.0406
     30 H          18.3575   17.8002   15.8054 H         1 MOL     0.0239
     31 H          19.6151   19.0918   15.6934 H         1 MOL     0.0239
     32 H          18.9613   18.3296   14.1968 H         1 MOL     0.0239
@<TRIPOS>BOND
     1    1    2 1 
     2    1   16 1 
     3    1   17 1 
     4    1   18 1 
     5    2    3 1 
     6    2    4 1 
     7    2   19 1 
     8    3   20 1 
     9    3   21 1 
    10    3   22 1 
    11    4    5 1 
    12    4   23 1 
    13    4   24 1 
    14    5    6 ar
    15    5   10 ar
    16    6    7 ar
    17    6   25 1 
    18    7    8 ar
    19    7   26 1 
    20    8    9 ar
    21    8   11 1 
    22    9   10 ar
    23    9   27 1 
    24   10   28 1 
    25   11   12 1 
    26   11   13 1 
    27   11   29 1 
    28   12   30 1 
    29   12   31 1 
    30   12   32 1 
    31   13   14 ar
    32   13   15 ar
@<TRIPOS>SUBSTRUCTURE
1 MOL         1
@<TRIPOS>MOLECULE
query molecule
   32    32     1     0     0
SMALL
NO_CHARGE

@<TRIPOS>ATOM
      1 C          -3.6755   23.4438   -5.9759 C.3       1 MOL     0.0072
      2 C          -2.9990   23.9453   -7.2790 C.3       1 MOL    -0.0128
      3 C          -4.0633   24.7482   -8.0884 C.3       1 MOL     0.0072
      4 C          -1.6998   24.7677   -7.0899 C.3       1 MOL     0.0379
      5 C          -0.5768   24.0739   -6.3928 C.ar      1 MOL    -0.0471
      6 C          -0.3270   22.7064   -6.5527 C.ar      1 MOL     0.0037
      7 C           0.7048   22.0869   -5.8457 C.ar      1 MOL     0.0044
      8 C           1.5256   22.8238   -4.9767 C.ar      1 MOL    -0.0391
      9 C           1.3148   24.2001   -4.8448 C.ar      1 MOL     0.0044
     10 C           0.2735   24.8218   -5.5511 C.ar      1 MOL     0.0037
     11 C           2.5808   22.0567   -4.2522 C.3       1 MOL     0.0614
     12 C           3.9597   22.6122   -4.6560 C.3       1 MOL     0.0185
     13 C           2.4575   22.0951   -2.7322 C.2       1 MOL     0.0489
     14 O           1.3967   22.5351   -2.1987 O.co2     1 MOL    -0.5492
     15 O           3.4679   21.6534   -2.1289 O.co2     1 MOL    -0.5492
     16 H          -4.5697   22.8325   -6.2376 H         1 MOL     0.0232
     17 H          -4.0263   24.2999   -5.3628 H         1 MOL     0.0232
     18 H          -2.9912   22.8168   -5.3720 H         1 MOL     0.0232
     19 H          -2.7389   23.0383   -7.8827 H         1 MOL     0.0299
     20 H          -4.3809   25.6406   -7.5024 H         1 MOL     0.0232
     21 H          -4.9620   24.1212   -8.2752 H         1 MOL     0.0232
     22 H          -3.6557   25.0918   -9.0606 H         1 MOL     0.0232
     23 H          -1.9256   25.6878   -6.5076 H         1 MOL     0.0316
     24 H          -1.3214   25.0645   -8.0957 H         1 MOL     0.0316
     25 H          -0.9349   22.1172   -7.2233 H         1 MOL     0.0620
     26 H           0.8826   21.0277   -5.9579 H         1 MOL     0.0621
     27 H           1.9525   24.7856   -4.1955 H         1 MOL     0.0621
     28 H           0.1259   25.8875   -5.4469 H         1 MOL     0.0620
     29 H           2.5339   20.9848   -4.5717 H         1 MOL     0.0406
     30 H           4.0587   23.6681   -4.3294 H         1 MOL     0.0239
     31 H           4.0818   22.5660   -5.7582 H         1 MOL     0.0239
     32 H           4.7678   22.0158   -4.1834 H         1 MOL     0.0239
@<TRIPOS>BOND
     1    1    2 1 
     2    1   16 1 
     3    1   17 1 
     4    1   18 1 
     5    2    3 1 
     6    2    4 1 
     7    2   19 1 
     8    3   20 1 
     9    3   21 1 
    10    3   22 1 
    11    4    5 1 
    12    4   23 1 
    13    4   24 1 
    14    5    6 ar
    15    5   10 ar
    16    6    7 ar
    17    6   25 1 
    18    7    8 ar
    19    7   26 1 
    20    8    9 ar
    21    8   11 1 
    22    9   10 ar
    23    9   27 1 
    24   10   28 1 
    25   11   12 1 
    26   11   13 1 
    27   11   29 1 
    28   12   30 1 
    29   12   31 1 
    30   12   32 1 
    31   13   14 ar
    32   13   15 ar
@<TRIPOS>SUBSTRUCTURE
1 MOL         1
@<TRIPOS>MOLECULE
query molecule
   32    32     1     0     0
SMALL
NO_CHARGE

@<TRIPOS>ATOM
      1 C           6.0072   16.3757   32.7843 C.3       1 MOL     0.0072
      2 C           5.6918   15.7801   31.3972 C.3       1 MOL    -0.0128
      3 C           5.8368   16.8086   30.2519 C.3       1 MOL     0.0072
      4 C           6.4749   14.4691   31.1260 C.3       1 MOL     0.0379
      5 C           5.5505   13.3020   30.9520 C.ar      1 MOL    -0.0471
      6 C           6.0419   11.9994   31.1384 C.ar      1 MOL     0.0037
      7 C           5.1899   10.8967   30.9953 C.ar      1 MOL     0.0044
      8 C           3.8415   11.0795   30.6643 C.ar      1 MOL    -0.0391
      9 C           3.3531   12.3790   30.4656 C.ar      1 MOL     0.0044
     10 C           4.2031   13.4713   30.6045 C.ar      1 MOL     0.0037
     11 C           2.8745    9.9530   30.5053 C.3       1 MOL     0.0614
     12 C           3.3692    9.0440   29.3744 C.3       1 MOL     0.0185
     13 C           2.7284    9.1324   31.7833 C.2       1 MOL     0.0489
     14 O           2.2791    9.7736   32.7854 O.co2     1 MOL    -0.5492
     15 O           3.0351    7.9113   31.7403 O.co2     1 MOL    -0.5492
     16 H           5.3568   17.2532   32.9826 H         1 MOL     0.0232
     17 H           7.0680   16.6964   32.8293 H         1 MOL     0.0232
     18 H           5.8274   15.6168   33.5744 H         1 MOL     0.0232
     19 H           4.6092   15.4852   31.4243 H         1 MOL     0.0299
     20 H           6.8891   17.1420   30.1548 H         1 MOL     0.0232
     21 H           5.1899   17.6909   30.4399 H         1 MOL     0.0232
     22 H           5.5192   16.3423   29.2942 H         1 MOL     0.0232
     23 H           7.1522   14.2430   31.9767 H         1 MOL     0.0316
     24 H           7.0776   14.5692   30.1986 H         1 MOL     0.0316
     25 H           7.0807   11.8496   31.3959 H         1 MOL     0.0620
     26 H           5.5759    9.8990   31.1452 H         1 MOL     0.0621
     27 H           2.3176   12.5428   30.2056 H         1 MOL     0.0621
     28 H           3.8218   14.4699   30.4471 H         1 MOL     0.0620
     29 H           1.8723   10.3630   30.2304 H         1 MOL     0.0406
     30 H           4.3651    8.6235   29.6169 H         1 MOL     0.0239
     31 H           3.4424    9.6246   28.4302 H         1 MOL     0.0239
     32 H           2.6502    8.2115   29.2247 H         1 MOL     0.0239
@<TRIPOS>BOND
     1    1    2 1 
     2    1   16 1 
     3    1   17 1 
     4    1   18 1 
     5    2    3 1 
     6    2    4 1 
     7    2   19 1 
     8    3   20 1 
     9    3   21 1 
    10    3   22 1 
    11    4    5 1 
    12    4   23 1 
    13    4   24 1 
    14    5    6 ar
    15    5   10 ar
    16    6    7 ar
    17    6   25 1 
    18    7    8 ar
    19    7   26 1 
    20    8    9 ar
    21    8   11 1 
    22    9   10 ar
    23    9   27 1 
    24   10   28 1 
    25   11   12 1 
    26   11   13 1 
    27   11   29 1 
    28   12   30 1 
    29   12   31 1 
    30   12   32 1 
    31   13   14 ar
    32   13   15 ar
@<TRIPOS>SUBSTRUCTURE
1 MOL         1
@<TRIPOS>MOLECULE
query molecule
   32    32     1     0     0
SMALL
NO_CHARGE

@<TRIPOS>ATOM
      1 C          -5.4104    6.1412    0.8738 C.3       1 MOL     0.0072
      2 C          -5.2507    4.6747    1.3482 C.3       1 MOL    -0.0128
      3 C          -6.5592    4.1296    1.9761 C.3       1 MOL     0.0072
      4 C          -4.7629    3.7495    0.2078 C.3       1 MOL     0.0379
      5 C          -3.3453    4.0348   -0.1280 C.ar      1 MOL    -0.0471
      6 C          -2.3456    3.8265    0.8219 C.ar      1 MOL     0.0037
      7 C          -1.0084    4.0236    0.4840 C.ar      1 MOL     0.0044
      8 C          -0.6609    4.4295   -0.8077 C.ar      1 MOL    -0.0391
      9 C          -1.6652    4.6777   -1.7454 C.ar      1 MOL     0.0044
     10 C          -3.0059    4.4828   -1.4066 C.ar      1 MOL     0.0037
     11 C           0.7832    4.5619   -1.1066 C.3       1 MOL     0.0614
     12 C           1.0284    4.4050   -2.6123 C.3       1 MOL     0.0185
     13 C           1.3280    5.8774   -0.6150 C.2       1 MOL     0.0489
     14 O           1.9077    5.7643    0.4913 O.co2     1 MOL    -0.5492
     15 O           1.1811    6.9208   -1.3158 O.co2     1 MOL    -0.5492
     16 H          -5.7345    6.7857    1.7173 H         1 MOL     0.0232
     17 H          -6.1762    6.1995    0.0708 H         1 MOL     0.0232
     18 H          -4.4507    6.5300    0.4752 H         1 MOL     0.0232
     19 H          -4.4719    4.6576    2.1527 H         1 MOL     0.0299
     20 H          -7.3673    4.1010    1.2154 H         1 MOL     0.0232
     21 H          -6.8844    4.7765    2.8168 H         1 MOL     0.0232
     22 H          -6.3995    3.1002    2.3608 H         1 MOL     0.0232
     23 H          -5.3742    3.8751   -0.7061 H         1 MOL     0.0316
     24 H          -4.8016    2.6886    0.5379 H         1 MOL     0.0316
     25 H          -2.6029    3.4958    1.8184 H         1 MOL     0.0620
     26 H          -0.2345    3.8510    1.2188 H         1 MOL     0.0621
     27 H          -1.4024    5.0188   -2.7363 H         1 MOL     0.0621
     28 H          -3.7790    4.6718   -2.1359 H         1 MOL     0.0620
     29 H           1.3460    3.7600   -0.5647 H         1 MOL     0.0406
     30 H           0.4601    5.1628   -3.1861 H         1 MOL     0.0239
     31 H           0.7204    3.3903   -2.9424 H         1 MOL     0.0239
     32 H           2.1118    4.5295   -2.8276 H         1 MOL     0.0239
@<TRIPOS>BOND
     1    1    2 1 
     2    1   16 1 
     3    1   17 1 
     4    1   18 1 
     5    2    3 1 
     6    2    4 1 
     7    2   19 1 
     8    3   20 1 
     9    3   21 1 
    10    3   22 1 
    11    4    5 1 
    12    4   23 1 
    13    4   24 1 
    14    5    6 ar
    15    5   10 ar
    16    6    7 ar
    17    6   25 1 
    18    7    8 ar
    19    7   26 1 
    20    8    9 ar
    21    8   11 1 
    22    9   10 ar
    23    9   27 1 
    24   10   28 1 
    25   11   12 1 
    26   11   13 1 
    27   11   29 1 
    28   12   30 1 
    29   12   31 1 
    30   12   32 1 
    31   13   14 ar
    32   13   15 ar
@<TRIPOS>SUBSTRUCTURE
1 MOL         1
@<TRIPOS>MOLECULE
query molecule
   32    32     1     0     0
SMALL
NO_CHARGE

@<TRIPOS>ATOM
      1 C          15.7541    7.2509    0.5050 C.3       1 MOL     0.0072
      2 C          16.1692    6.6703   -0.8688 C.3       1 MOL    -0.0128
      3 C          17.7163    6.6377   -0.9717 C.3       1 MOL     0.0072
      4 C          15.5253    5.2871   -1.1619 C.3       1 MOL     0.0379
      5 C          14.2918    5.3736   -2.0045 C.ar      1 MOL    -0.0471
      6 C          13.5048    6.5263   -2.0710 C.ar      1 MOL     0.0037
      7 C          12.3906    6.5823   -2.9010 C.ar      1 MOL     0.0044
      8 C          12.0170    5.4716   -3.6801 C.ar      1 MOL    -0.0391
      9 C          12.7891    4.3072   -3.6028 C.ar      1 MOL     0.0044
     10 C          13.9148    4.2545   -2.7704 C.ar      1 MOL     0.0037
     11 C          10.7967    5.6170   -4.5383 C.3       1 MOL     0.0614
     12 C          10.7007    4.5549   -5.6458 C.3       1 MOL     0.0185
     13 C           9.5644    5.5287   -3.6278 C.2       1 MOL     0.0489
     14 O           9.0584    6.6227   -3.2585 O.co2     1 MOL    -0.5492
     15 O           9.2237    4.3693   -3.2460 O.co2     1 MOL    -0.5492
     16 H          16.1685    8.2712    0.6445 H         1 MOL     0.0232
     17 H          16.1282    6.6012    1.3250 H         1 MOL     0.0232
     18 H          14.6468    7.3050    0.5871 H         1 MOL     0.0232
     19 H          15.7998    7.3723   -1.6619 H         1 MOL     0.0299
     20 H          18.1423    5.9405   -0.2222 H         1 MOL     0.0232
     21 H          18.1175    7.6563   -0.7784 H         1 MOL     0.0232
     22 H          18.0296    6.3174   -1.9857 H         1 MOL     0.0232
     23 H          15.2761    4.7448   -0.2288 H         1 MOL     0.0316
     24 H          16.2469    4.6690   -1.7472 H         1 MOL     0.0316
     25 H          13.7728    7.3877   -1.4775 H         1 MOL     0.0620
     26 H          11.8042    7.4892   -2.9476 H         1 MOL     0.0621
     27 H          12.5171    3.4421   -4.1913 H         1 MOL     0.0621
     28 H          14.5037    3.3494   -2.7239 H         1 MOL     0.0620
     29 H          10.8128    6.6195   -5.0314 H         1 MOL     0.0406
     30 H          10.6429    3.5405   -5.1981 H         1 MOL     0.0239
     31 H          11.5858    4.5958   -6.3140 H         1 MOL     0.0239
     32 H           9.7897    4.7213   -6.2600 H         1 MOL     0.0239
@<TRIPOS>BOND
     1    1    2 1 
     2    1   16 1 
     3    1   17 1 
     4    1   18 1 
     5    2    3 1 
     6    2    4 1 
     7    2   19 1 
     8    3   20 1 
     9    3   21 1 
    10    3   22 1 
    11    4    5 1 
    12    4   23 1 
    13    4   24 1 
    14    5    6 ar
    15    5   10 ar
    16    6    7 ar
    17    6   25 1 
    18    7    8 ar
    19    7   26 1 
    20    8    9 ar
    21    8   11 1 
    22    9   10 ar
    23    9   27 1 
    24   10   28 1 
    25   11   12 1 
    26   11   13 1 
    27   11   29 1 
    28   12   30 1 
    29   12   31 1 
    30   12   32 1 
    31   13   14 ar
    32   13   15 ar
@<TRIPOS>SUBSTRUCTURE
1 MOL         1
@<TRIPOS>MOLECULE
query molecule
   32    32     1     0     0
SMALL
NO_CHARGE

@<TRIPOS>ATOM
      1 C          -0.7332   11.5366    0.5692 C.3       1 MOL     0.0072
      2 C          -1.2289   11.8500   -0.8729 C.3       1 MOL    -0.0128
      3 C          -1.3848   13.3775   -1.0933 C.3       1 MOL     0.0072
      4 C          -0.3431   11.2335   -1.9903 C.3       1 MOL     0.0379
      5 C          -0.2100    9.7572   -1.8367 C.ar      1 MOL    -0.0471
      6 C          -1.3371    8.9271   -1.8377 C.ar      1 MOL     0.0037
      7 C          -1.1962    7.5480   -1.6473 C.ar      1 MOL     0.0044
      8 C           0.0744    6.9784   -1.4535 C.ar      1 MOL    -0.0391
      9 C           1.1977    7.8143   -1.4922 C.ar      1 MOL     0.0044
     10 C           1.0591    9.1924   -1.6818 C.ar      1 MOL     0.0037
     11 C           0.1712    5.5027   -1.2261 C.3       1 MOL     0.0614
     12 C           1.0092    4.8642   -2.3491 C.3       1 MOL     0.0185
     13 C           0.8020    5.1414    0.1180 C.2       1 MOL     0.0489
     14 O           0.1121    4.3225    0.8001 O.co2     1 MOL    -0.5492
     15 O           1.9081    5.6513    0.4460 O.co2     1 MOL    -0.5492
     16 H          -1.4232   11.9697    1.3149 H         1 MOL     0.0232
     17 H           0.2778   11.9588    0.7246 H         1 MOL     0.0232
     18 H          -0.6838   10.4329    0.7304 H         1 MOL     0.0232
     19 H          -2.2520   11.4016   -0.9788 H         1 MOL     0.0299
     20 H          -0.3993   13.8813   -1.0154 H         1 MOL     0.0232
     21 H          -2.0721   13.8144   -0.3403 H         1 MOL     0.0232
     22 H          -1.7998   13.5690   -2.1057 H         1 MOL     0.0232
     23 H           0.6761   11.6798   -1.9585 H         1 MOL     0.0316
     24 H          -0.7953   11.4248   -2.9902 H         1 MOL     0.0316
     25 H          -2.3178    9.3556   -1.9855 H         1 MOL     0.0620
     26 H          -2.0750    6.9180   -1.6554 H         1 MOL     0.0621
     27 H           2.1820    7.3856   -1.3656 H         1 MOL     0.0621
     28 H           1.9379    9.8210   -1.6961 H         1 MOL     0.0620
     29 H          -0.8548    5.0580   -1.2668 H         1 MOL     0.0406
     30 H           2.0487    5.2504   -2.3179 H         1 MOL     0.0239
     31 H           0.5712    5.1007   -3.3419 H         1 MOL     0.0239
     32 H           1.0331    3.7608   -2.2291 H         1 MOL     0.0239
@<TRIPOS>BOND
     1    1    2 1 
     2    1   16 1 
     3    1   17 1 
     4    1   18 1 
     5    2    3 1 
     6    2    4 1 
     7    2   19 1 
     8    3   20 1 
     9    3   21 1 
    10    3   22 1 
    11    4    5 1 
    12    4   23 1 
    13    4   24 1 
    14    5    6 ar
    15    5   10 ar
    16    6    7 ar
    17    6   25 1 
    18    7    8 ar
    19    7   26 1 
    20    8    9 ar
    21    8   11 1 
    22    9   10 ar
    23    9   27 1 
    24   10   28 1 
    25   11   12 1 
    26   11   13 1 
    27   11   29 1 
    28   12   30 1 
    29   12   31 1 
    30   12   32 1 
    31   13   14 ar
    32   13   15 ar
@<TRIPOS>SUBSTRUCTURE
1 MOL         1
@<TRIPOS>MOLECULE
query molecule
   32    32     1     0     0
SMALL
NO_CHARGE

@<TRIPOS>ATOM
      1 C          15.6331    6.4283   32.1211 C.3       1 MOL     0.0072
      2 C          14.6050    7.5112   32.5240 C.3       1 MOL    -0.0128
      3 C          13.3210    6.8879   33.1313 C.3       1 MOL     0.0072
      4 C          15.2081    8.5749   33.4673 C.3       1 MOL     0.0379
      5 C          15.8045    9.7071   32.7055 C.ar      1 MOL    -0.0471
      6 C          15.1763   10.2566   31.5858 C.ar      1 MOL     0.0037
      7 C          15.7620   11.3237   30.9084 C.ar      1 MOL     0.0044
      8 C          16.9842   11.8772   31.3345 C.ar      1 MOL    -0.0391
      9 C          17.6124   11.3083   32.4508 C.ar      1 MOL     0.0044
     10 C          17.0268   10.2419   33.1401 C.ar      1 MOL     0.0037
     11 C          17.4951   13.0890   30.6045 C.3       1 MOL     0.0614
     12 C          18.7937   13.6485   31.2160 C.3       1 MOL     0.0185
     13 C          17.7209   12.8345   29.1158 C.2       1 MOL     0.0489
     14 O          16.9774   13.4668   28.3084 O.co2     1 MOL    -0.5492
     15 O          18.6475   12.0305   28.8235 O.co2     1 MOL    -0.5492
     16 H          15.1810    5.7225   31.3928 H         1 MOL     0.0232
     17 H          15.9542    5.8555   33.0160 H         1 MOL     0.0232
     18 H          16.5265    6.8938   31.6548 H         1 MOL     0.0232
     19 H          14.3041    8.0437   31.5836 H         1 MOL     0.0299
     20 H          13.5482    6.3276   34.0605 H         1 MOL     0.0232
     21 H          12.8646    6.1901   32.3966 H         1 MOL     0.0232
     22 H          12.5783    7.6821   33.3584 H         1 MOL     0.0232
     23 H          16.0081    8.1273   34.0917 H         1 MOL     0.0316
     24 H          14.4191    8.9952   34.1277 H         1 MOL     0.0316
     25 H          14.2359    9.8545   31.2410 H         1 MOL     0.0620
     26 H          15.2673   11.7482   30.0449 H         1 MOL     0.0621
     27 H          18.5541   11.7088   32.7970 H         1 MOL     0.0621
     28 H          17.5204    9.8285   34.0079 H         1 MOL     0.0620
     29 H          16.7196   13.9007   30.6761 H         1 MOL     0.0406
     30 H          19.5966   12.8817   31.2122 H         1 MOL     0.0239
     31 H          18.6029   13.9532   32.2672 H         1 MOL     0.0239
     32 H          19.1428   14.5352   30.6465 H         1 MOL     0.0239
@<TRIPOS>BOND
     1    1    2 1 
     2    1   16 1 
     3    1   17 1 
     4    1   18 1 
     5    2    3 1 
     6    2    4 1 
     7    2   19 1 
     8    3   20 1 
     9    3   21 1 
    10    3   22 1 
    11    4    5 1 
    12    4   23 1 
    13    4   24 1 
    14    5    6 ar
    15    5   10 ar
    16    6    7 ar
    17    6   25 1 
    18    7    8 ar
    19    7   26 1 
    20    8    9 ar
    21    8   11 1 
    22    9   10 ar
    23    9   27 1 
    24   10   28 1 
    25   11   12 1 
    26   11   13 1 
    27   11   29 1 
    28   12   30 1 
    29   12   31 1 
    30   12   32 1 
    31   13   14 ar
    32   13   15 ar
@<TRIPOS>SUBSTRUCTURE
1 MOL         1
@<TRIPOS>MOLECULE
query molecule
   32    32     1     0     0
SMALL
NO_CHARGE

@<TRIPOS>ATOM
      1 C           1.2860   -3.2970   37.3845 C.3       1 MOL     0.0072
      2 C           0.2464   -2.2135   36.9943 C.3       1 MOL    -0.0128
      3 C          -1.1351   -2.8337   36.6667 C.3       1 MOL     0.0072
      4 C           0.1446   -1.1269   38.0926 C.3       1 MOL     0.0379
      5 C          -0.0201    0.2232   37.4907 C.ar      1 MOL    -0.0471
      6 C          -1.2109    0.9408   37.6380 C.ar      1 MOL     0.0037
      7 C          -1.3185    2.2296   37.1013 C.ar      1 MOL     0.0044
      8 C          -0.2377    2.8082   36.4143 C.ar      1 MOL    -0.0391
      9 C           0.9415    2.0713   36.2583 C.ar      1 MOL     0.0044
     10 C           1.0493    0.7910   36.7935 C.ar      1 MOL     0.0037
     11 C          -0.3966    4.2040   35.8970 C.3       1 MOL     0.0614
     12 C           0.7051    5.0959   36.5039 C.3       1 MOL     0.0185
     13 C          -0.2931    4.2419   34.3773 C.2       1 MOL     0.0489
     14 O          -1.3282    4.6454   33.7791 O.co2     1 MOL    -0.5492
     15 O           0.7953    3.8659   33.8655 O.co2     1 MOL    -0.5492
     16 H           1.3891   -4.0488   36.5748 H         1 MOL     0.0232
     17 H           0.9726   -3.8152   38.3149 H         1 MOL     0.0232
     18 H           2.2779   -2.8278   37.5590 H         1 MOL     0.0232
     19 H           0.6290   -1.7182   36.0658 H         1 MOL     0.0299
     20 H          -1.5389   -3.3470   37.5660 H         1 MOL     0.0232
     21 H          -1.0480   -3.5759   35.8466 H         1 MOL     0.0232
     22 H          -1.8525   -2.0451   36.3583 H         1 MOL     0.0232
     23 H           1.0929   -1.0992   38.6752 H         1 MOL     0.0316
     24 H          -0.7002   -1.3226   38.7791 H         1 MOL     0.0316
     25 H          -2.0459    0.5122   38.1735 H         1 MOL     0.0620
     26 H          -2.2352    2.7901   37.2230 H         1 MOL     0.0621
     27 H           1.7760    2.4996   35.7211 H         1 MOL     0.0621
     28 H           1.9632    0.2297   36.6739 H         1 MOL     0.0620
     29 H          -1.3965    4.6023   36.1949 H         1 MOL     0.0406
     30 H           1.7073    4.6965   36.2377 H         1 MOL     0.0239
     31 H           0.6150    5.1112   37.6115 H         1 MOL     0.0239
     32 H           0.6270    6.1366   36.1272 H         1 MOL     0.0239
@<TRIPOS>BOND
     1    1    2 1 
     2    1   16 1 
     3    1   17 1 
     4    1   18 1 
     5    2    3 1 
     6    2    4 1 
     7    2   19 1 
     8    3   20 1 
     9    3   21 1 
    10    3   22 1 
    11    4    5 1 
    12    4   23 1 
    13    4   24 1 
    14    5    6 ar
    15    5   10 ar
    16    6    7 ar
    17    6   25 1 
    18    7    8 ar
    19    7   26 1 
    20    8    9 ar
    21    8   11 1 
    22    9   10 ar
    23    9   27 1 
    24   10   28 1 
    25   11   12 1 
    26   11   13 1 
    27   11   29 1 
    28   12   30 1 
    29   12   31 1 
    30   12   32 1 
    31   13   14 ar
    32   13   15 ar
@<TRIPOS>SUBSTRUCTURE
1 MOL         1
@<TRIPOS>MOLECULE
query molecule
   32    32     1     0     0
SMALL
NO_CHARGE

@<TRIPOS>ATOM
      1 C          18.0237   20.5905    5.1362 C.3       1 MOL     0.0072
      2 C          17.0141   21.7629    5.1917 C.3       1 MOL    -0.0128
      3 C          15.9040   21.5996    4.1196 C.3       1 MOL     0.0072
      4 C          16.4429   21.9365    6.6242 C.3       1 MOL     0.0379
      5 C          16.2246   23.3750    6.9250 C.ar      1 MOL    -0.0471
      6 C          15.0739   24.0167    6.4600 C.ar      1 MOL     0.0037
      7 C          14.8696   25.3655    6.7244 C.ar      1 MOL     0.0044
      8 C          15.7964   26.0908    7.4870 C.ar      1 MOL    -0.0391
      9 C          16.9537   25.4457    7.9500 C.ar      1 MOL     0.0044
     10 C          17.1677   24.0930    7.6700 C.ar      1 MOL     0.0037
     11 C          15.5959   27.5327    7.8354 C.3       1 MOL     0.0614
     12 C          16.0339   28.3921    6.6362 C.3       1 MOL     0.0185
     13 C          14.1436   27.7873    8.2148 C.2       1 MOL     0.0489
     14 O          13.9076   27.7755    9.4559 O.co2     1 MOL    -0.5492
     15 O          13.3076   27.9414    7.2786 O.co2     1 MOL    -0.5492
     16 H          18.4685   20.5075    4.1212 H         1 MOL     0.0232
     17 H          17.5271   19.6330    5.3874 H         1 MOL     0.0232
     18 H          18.8490   20.7628    5.8631 H         1 MOL     0.0232
     19 H          17.5845   22.6975    4.9491 H         1 MOL     0.0299
     20 H          15.3234   20.6730    4.3152 H         1 MOL     0.0232
     21 H          16.3494   21.5316    3.1064 H         1 MOL     0.0232
     22 H          15.2061   22.4644    4.1443 H         1 MOL     0.0232
     23 H          17.1717   21.5549    7.3660 H         1 MOL     0.0316
     24 H          15.4818   21.3946    6.7344 H         1 MOL     0.0316
     25 H          14.3463   23.4587    5.8859 H         1 MOL     0.0620
     26 H          13.9816   25.8582    6.3480 H         1 MOL     0.0621
     27 H          17.6845   26.0006    8.5212 H         1 MOL     0.0621
     28 H          18.0657   23.6081    8.0232 H         1 MOL     0.0620
     29 H          16.2422   27.8113    8.7045 H         1 MOL     0.0406
     30 H          15.4378   28.1641    5.7312 H         1 MOL     0.0239
     31 H          17.1034   28.1777    6.4148 H         1 MOL     0.0239
     32 H          15.9357   29.4736    6.8667 H         1 MOL     0.0239
@<TRIPOS>BOND
     1    1    2 1 
     2    1   16 1 
     3    1   17 1 
     4    1   18 1 
     5    2    3 1 
     6    2    4 1 
     7    2   19 1 
     8    3   20 1 
     9    3   21 1 
    10    3   22 1 
    11    4    5 1 
    12    4   23 1 
    13    4   24 1 
    14    5    6 ar
    15    5   10 ar
    16    6    7 ar
    17    6   25 1 
    18    7    8 ar
    19    7   26 1 
    20    8    9 ar
    21    8   11 1 
    22    9   10 ar
    23    9   27 1 
    24   10   28 1 
    25   11   12 1 
    26   11   13 1 
    27   11   29 1 
    28   12   30 1 
    29   12   31 1 
    30   12   32 1 
    31   13   14 ar
    32   13   15 ar
@<TRIPOS>SUBSTRUCTURE
1 MOL         1
@<TRIPOS>MOLECULE
query molecule
   32    32     1     0     0
SMALL
NO_CHARGE

@<TRIPOS>ATOM
      1 C          -2.6091   -1.5611   34.5639 C.3       1 MOL     0.0072
      2 C          -3.2111   -1.8566   33.1664 C.3       1 MOL    -0.0128
      3 C          -4.5908   -1.1771   32.9713 C.3       1 MOL     0.0072
      4 C          -2.2138   -1.4820   32.0472 C.3       1 MOL     0.0379
      5 C          -2.4656   -2.3104   30.8443 C.ar      1 MOL    -0.0471
      6 C          -1.9894   -3.6242   30.7786 C.ar      1 MOL     0.0037
      7 C          -2.2081   -4.3863   29.6270 C.ar      1 MOL     0.0044
      8 C          -2.9026   -3.8395   28.5357 C.ar      1 MOL    -0.0391
      9 C          -3.3930   -2.5313   28.6298 C.ar      1 MOL     0.0044
     10 C          -3.1744   -1.7664   29.7730 C.ar      1 MOL     0.0037
     11 C          -3.0902   -4.6771   27.3111 C.3       1 MOL     0.0614
     12 C          -4.5784   -4.7117   26.9214 C.3       1 MOL     0.0185
     13 C          -2.2943   -4.1098   26.1369 C.2       1 MOL     0.0489
     14 O          -1.4079   -4.8839   25.6773 O.co2     1 MOL    -0.5492
     15 O          -2.5915   -2.9535   25.7263 O.co2     1 MOL    -0.5492
     16 H          -3.3162   -1.8728   35.3615 H         1 MOL     0.0232
     17 H          -2.3974   -0.4783   34.6762 H         1 MOL     0.0232
     18 H          -1.6610   -2.1243   34.6926 H         1 MOL     0.0232
     19 H          -3.3680   -2.9644   33.1105 H         1 MOL     0.0299
     20 H          -4.4875   -0.0725   33.0122 H         1 MOL     0.0232
     21 H          -5.2960   -1.4984   33.7652 H         1 MOL     0.0232
     22 H          -5.0183   -1.4546   31.9840 H         1 MOL     0.0232
     23 H          -1.1742   -1.7001   32.3748 H         1 MOL     0.0316
     24 H          -2.2949   -0.4135   31.7709 H         1 MOL     0.0316
     25 H          -1.4534   -4.0480   31.6143 H         1 MOL     0.0620
     26 H          -1.8389   -5.4010   29.5760 H         1 MOL     0.0621
     27 H          -3.9454   -2.1069   27.8032 H         1 MOL     0.0621
     28 H          -3.5535   -0.7569   29.8321 H         1 MOL     0.0620
     29 H          -2.7344   -5.7171   27.5058 H         1 MOL     0.0406
     30 H          -4.9448   -3.6793   26.7367 H         1 MOL     0.0239
     31 H          -5.1789   -5.1595   27.7401 H         1 MOL     0.0239
     32 H          -4.7260   -5.3102   25.9990 H         1 MOL     0.0239
@<TRIPOS>BOND
     1    1    2 1 
     2    1   16 1 
     3    1   17 1 
     4    1   18 1 
     5    2    3 1 
     6    2    4 1 
     7    2   19 1 
     8    3   20 1 
     9    3   21 1 
    10    3   22 1 
    11    4    5 1 
    12    4   23 1 
    13    4   24 1 
    14    5    6 ar
    15    5   10 ar
    16    6    7 ar
    17    6   25 1 
    18    7    8 ar
    19    7   26 1 
    20    8    9 ar
    21    8   11 1 
    22    9   10 ar
    23    9   27 1 
    24   10   28 1 
    25   11   12 1 
    26   11   13 1 
    27   11   29 1 
    28   12   30 1 
    29   12   31 1 
    30   12   32 1 
    31   13   14 ar
    32   13   15 ar
@<TRIPOS>SUBSTRUCTURE
1 MOL         1
@<TRIPOS>MOLECULE
query molecule
   32    32     1     0     0
SMALL
NO_CHARGE

@<TRIPOS>ATOM
      1 C          14.9375    1.1558   29.5103 C.3       1 MOL     0.0072
      2 C          14.3089    0.4297   30.7272 C.3       1 MOL    -0.0128
      3 C          14.8101   -1.0362   30.7973 C.3       1 MOL     0.0072
      4 C          14.5411    1.2046   32.0547 C.3       1 MOL     0.0379
      5 C          13.3757    1.0358   32.9743 C.ar      1 MOL    -0.0471
      6 C          12.4699    2.1011   33.1055 C.ar      1 MOL     0.0037
      7 C          11.3239    1.9654   33.8903 C.ar      1 MOL     0.0044
      8 C          11.0830    0.7696   34.5789 C.ar      1 MOL    -0.0391
      9 C          12.0183   -0.2779   34.4908 C.ar      1 MOL     0.0044
     10 C          13.1588   -0.1488   33.6939 C.ar      1 MOL     0.0037
     11 C           9.8557    0.5572   35.4146 C.3       1 MOL     0.0614
     12 C           9.9274    1.5235   36.6135 C.3       1 MOL     0.0185
     13 C           8.5943    0.6969   34.5597 C.2       1 MOL     0.0489
     14 O           8.1594    1.8426   34.2508 O.co2     1 MOL    -0.5492
     15 O           8.0892   -0.4171   34.2152 O.co2     1 MOL    -0.5492
     16 H          14.7215    0.6007   28.5733 H         1 MOL     0.0232
     17 H          16.0380    1.2365   29.6302 H         1 MOL     0.0232
     18 H          14.5186    2.1798   29.4174 H         1 MOL     0.0232
     19 H          13.2031    0.4042   30.5479 H         1 MOL     0.0299
     20 H          15.9083   -1.0569   30.9639 H         1 MOL     0.0232
     21 H          14.5870   -1.5664   29.8480 H         1 MOL     0.0232
     22 H          14.3152   -1.5748   31.6319 H         1 MOL     0.0232
     23 H          14.6181    2.2939   31.8408 H         1 MOL     0.0316
     24 H          15.4576    0.8642   32.5710 H         1 MOL     0.0316
     25 H          12.6522    3.0289   32.5805 H         1 MOL     0.0620
     26 H          10.6221    2.7840   33.9659 H         1 MOL     0.0621
     27 H          11.8382   -1.1963   35.0313 H         1 MOL     0.0621
     28 H          13.8635   -0.9657   33.6234 H         1 MOL     0.0620
     29 H           9.8707   -0.4886   35.8165 H         1 MOL     0.0406
     30 H           9.9390    2.5752   36.2660 H         1 MOL     0.0239
     31 H          10.8569    1.3121   37.1930 H         1 MOL     0.0239
     32 H           9.0570    1.3568   37.2829 H         1 MOL     0.0239
@<TRIPOS>BOND
     1    1    2 1 
     2    1   16 1 
     3    1   17 1 
     4    1   18 1 
     5    2    3 1 
     6    2    4 1 
     7    2   19 1 
     8    3   20 1 
     9    3   21 1 
    10    3   22 1 
    11    4    5 1 
    12    4   23 1 
    13    4   24 1 
    14    5    6 ar
    15    5   10 ar
    16    6    7 ar
    17    6   25 1 
    18    7    8 ar
    19    7   26 1 
    20    8    9 ar
    21    8   11 1 
    22    9   10 ar
    23    9   27 1 
    24   10   28 1 
    25   11   12 1 
    26   11   13 1 
    27   11   29 1 
    28   12   30 1 
    29   12   31 1 
    30   12   32 1 
    31   13   14 ar
    32   13   15 ar
@<TRIPOS>SUBSTRUCTURE
1 MOL         1
@<TRIPOS>MOLECULE
query molecule
   32    32     1     0     0
SMALL
NO_CHARGE

@<TRIPOS>ATOM
      1 C           1.0227    9.0218   30.1293 C.3       1 MOL     0.0072
      2 C          -0.1475    9.9565   30.5295 C.3       1 MOL    -0.0128
      3 C           0.3768   11.2851   31.1348 C.3       1 MOL     0.0072
      4 C          -1.1434   10.2362   29.3742 C.3       1 MOL     0.0379
      5 C          -1.8969    9.0036   29.0252 C.ar      1 MOL    -0.0471
      6 C          -2.8518    8.4950   29.9136 C.ar      1 MOL     0.0037
      7 C          -3.5413    7.3205   29.6021 C.ar      1 MOL     0.0044
      8 C          -3.2904    6.6500   28.3945 C.ar      1 MOL    -0.0391
      9 C          -2.3519    7.1833   27.5026 C.ar      1 MOL     0.0044
     10 C          -1.6561    8.3525   27.8124 C.ar      1 MOL     0.0037
     11 C          -4.0570    5.3985   28.1108 C.3       1 MOL     0.0614
     12 C          -4.8400    5.5654   26.7964 C.3       1 MOL     0.0185
     13 C          -3.1512    4.1747   28.0113 C.2       1 MOL     0.0489
     14 O          -3.4217    3.2593   28.8410 O.co2     1 MOL    -0.5492
     15 O          -2.2477    4.1627   27.1306 O.co2     1 MOL    -0.5492
     16 H           1.6837    8.8236   30.9976 H         1 MOL     0.0232
     17 H           1.6270    9.5022   29.3292 H         1 MOL     0.0232
     18 H           0.6372    8.0555   29.7425 H         1 MOL     0.0232
     19 H          -0.7242    9.4390   31.3392 H         1 MOL     0.0299
     20 H           0.9261   11.8744   30.3721 H         1 MOL     0.0232
     21 H           1.0591   11.0771   31.9854 H         1 MOL     0.0232
     22 H          -0.4751   11.8939   31.5066 H         1 MOL     0.0232
     23 H          -0.6257   10.6066   28.4690 H         1 MOL     0.0316
     24 H          -1.8950   10.9887   29.7006 H         1 MOL     0.0316
     25 H          -3.0582    9.0118   30.8397 H         1 MOL     0.0620
     26 H          -4.2754    6.9308   30.2944 H         1 MOL     0.0621
     27 H          -2.1613    6.6769   26.5653 H         1 MOL     0.0621
     28 H          -0.9288    8.7489   27.1203 H         1 MOL     0.0620
     29 H          -4.7889    5.2187   28.9374 H         1 MOL     0.0406
     30 H          -4.1422    5.7444   25.9526 H         1 MOL     0.0239
     31 H          -5.5307    6.4321   26.8752 H         1 MOL     0.0239
     32 H          -5.4368    4.6550   26.5834 H         1 MOL     0.0239
@<TRIPOS>BOND
     1    1    2 1 
     2    1   16 1 
     3    1   17 1 
     4    1   18 1 
     5    2    3 1 
     6    2    4 1 
     7    2   19 1 
     8    3   20 1 
     9    3   21 1 
    10    3   22 1 
    11    4    5 1 
    12    4   23 1 
    13    4   24 1 
    14    5    6 ar
    15    5   10 ar
    16    6    7 ar
    17    6   25 1 
    18    7    8 ar
    19    7   26 1 
    20    8    9 ar
    21    8   11 1 
    22    9   10 ar
    23    9   27 1 
    24   10   28 1 
    25   11   12 1 
    26   11   13 1 
    27   11   29 1 
    28   12   30 1 
    29   12   31 1 
    30   12   32 1 
    31   13   14 ar
    32   13   15 ar
@<TRIPOS>SUBSTRUCTURE
1 MOL         1
@<TRIPOS>MOLECULE
query molecule
   32    32     1     0     0
SMALL
NO_CHARGE

@<TRIPOS>ATOM
      1 C           8.2665    1.5655   34.9018 C.3       1 MOL     0.0072
      2 C           8.9746    0.7663   36.0283 C.3       1 MOL    -0.0128
      3 C           9.4423    1.7136   37.1671 C.3       1 MOL     0.0072
      4 C           8.1159   -0.3792   36.6192 C.3       1 MOL     0.0379
      5 C           7.8870   -1.4686   35.6373 C.ar      1 MOL    -0.0471
      6 C           6.5983   -1.6403   35.1272 C.ar      1 MOL     0.0037
      7 C           6.3564   -2.6437   34.1967 C.ar      1 MOL     0.0044
      8 C           7.3698   -3.4910   33.7507 C.ar      1 MOL    -0.0391
      9 C           8.6563   -3.3358   34.2966 C.ar      1 MOL     0.0044
     10 C           8.9158   -2.3222   35.2282 C.ar      1 MOL     0.0037
     11 C           7.1451   -4.5456   32.7108 C.3       1 MOL     0.0614
     12 C           5.6825   -5.0260   32.6975 C.3       1 MOL     0.0185
     13 C           7.5346   -4.0019   31.3286 C.2       1 MOL     0.0489
     14 O           8.6299   -4.4561   30.8815 O.co2     1 MOL    -0.5492
     15 O           6.7705   -3.1604   30.7730 O.co2     1 MOL    -0.5492
     16 H           8.9423    2.3533   34.5069 H         1 MOL     0.0232
     17 H           7.3483    2.0523   35.2929 H         1 MOL     0.0232
     18 H           7.9831    0.8914   34.0669 H         1 MOL     0.0232
     19 H           9.8928    0.3017   35.5869 H         1 MOL     0.0299
     20 H           8.5639    2.1950   37.6474 H         1 MOL     0.0232
     21 H          10.1099    2.5055   36.7703 H         1 MOL     0.0232
     22 H           9.9920    1.1367   37.9410 H         1 MOL     0.0232
     23 H           7.1274    0.0050   36.9457 H         1 MOL     0.0316
     24 H           8.6362   -0.8303   37.4917 H         1 MOL     0.0316
     25 H           5.7977   -0.9941   35.4531 H         1 MOL     0.0620
     26 H           5.3537   -2.7619   33.8042 H         1 MOL     0.0621
     27 H           9.4528   -3.9919   33.9803 H         1 MOL     0.0621
     28 H           9.9122   -2.1961   35.6255 H         1 MOL     0.0620
     29 H           7.7953   -5.4270   32.9388 H         1 MOL     0.0406
     30 H           5.0058   -4.1779   32.4517 H         1 MOL     0.0239
     31 H           5.3966   -5.4189   33.6977 H         1 MOL     0.0239
     32 H           5.5299   -5.8273   31.9477 H         1 MOL     0.0239
@<TRIPOS>BOND
     1    1    2 1 
     2    1   16 1 
     3    1   17 1 
     4    1   18 1 
     5    2    3 1 
     6    2    4 1 
     7    2   19 1 
     8    3   20 1 
     9    3   21 1 
    10    3   22 1 
    11    4    5 1 
    12    4   23 1 
    13    4   24 1 
    14    5    6 ar
    15    5   10 ar
    16    6    7 ar
    17    6   25 1 
    18    7    8 ar
    19    7   26 1 
    20    8    9 ar
    21    8   11 1 
    22    9   10 ar
    23    9   27 1 
    24   10   28 1 
    25   11   12 1 
    26   11   13 1 
    27   11   29 1 
    28   12   30 1 
    29   12   31 1 
    30   12   32 1 
    31   13   14 ar
    32   13   15 ar
@<TRIPOS>SUBSTRUCTURE
1 MOL         1
@<TRIPOS>MOLECULE
query molecule
   32    32     1     0     0
SMALL
NO_CHARGE

@<TRIPOS>ATOM
      1 C          17.8353   21.0214   19.0551 C.3       1 MOL     0.0072
      2 C          16.5545   20.6081   18.2868 C.3       1 MOL    -0.0128
      3 C          15.2775   21.0485   19.0541 C.3       1 MOL     0.0072
      4 C          16.5335   21.1339   16.8330 C.3       1 MOL     0.0379
      5 C          17.2865   20.2613   15.8979 C.ar      1 MOL    -0.0471
      6 C          18.6340   20.5419   15.6463 C.ar      1 MOL     0.0037
      7 C          19.3661   19.7408   14.7692 C.ar      1 MOL     0.0044
      8 C          18.7632   18.6499   14.1280 C.ar      1 MOL    -0.0391
      9 C          17.4065   18.3792   14.3804 C.ar      1 MOL     0.0044
     10 C          16.6720   19.1818   15.2557 C.ar      1 MOL     0.0037
     11 C          19.5033   17.7626   13.1730 C.3       1 MOL     0.0614
     12 C          20.2481   18.6226   12.1336 C.3       1 MOL     0.0185
     13 C          20.5119   16.8734   13.9033 C.2       1 MOL     0.0489
     14 O          21.4770   17.4413   14.4899 O.co2     1 MOL    -0.5492
     15 O          20.2826   15.6299   13.8463 O.co2     1 MOL    -0.5492
     16 H          17.8313   20.5866   20.0769 H         1 MOL     0.0232
     17 H          17.8936   22.1272   19.1393 H         1 MOL     0.0232
     18 H          18.7364   20.6579   18.5189 H         1 MOL     0.0232
     19 H          16.5377   19.4894   18.2381 H         1 MOL     0.0299
     20 H          15.2317   22.1566   19.1186 H         1 MOL     0.0232
     21 H          15.2784   20.6317   20.0812 H         1 MOL     0.0232
     22 H          14.3695   20.6883   18.5247 H         1 MOL     0.0232
     23 H          16.9637   22.1538   16.7823 H         1 MOL     0.0316
     24 H          15.4808   21.1686   16.4696 H         1 MOL     0.0316
     25 H          19.1073   21.3819   16.1350 H         1 MOL     0.0620
     26 H          20.4073   19.9657   14.5825 H         1 MOL     0.0621
     27 H          16.9282   17.5433   13.8885 H         1 MOL     0.0621
     28 H          15.6313   18.9648   15.4395 H         1 MOL     0.0620
     29 H          18.7732   17.1024   12.6431 H         1 MOL     0.0406
     30 H          20.9764   19.2854   12.6486 H         1 MOL     0.0239
     31 H          19.5329   19.2583   11.5703 H         1 MOL     0.0239
     32 H          20.7986   17.9809   11.4169 H         1 MOL     0.0239
@<TRIPOS>BOND
     1    1    2 1 
     2    1   16 1 
     3    1   17 1 
     4    1   18 1 
     5    2    3 1 
     6    2    4 1 
     7    2   19 1 
     8    3   20 1 
     9    3   21 1 
    10    3   22 1 
    11    4    5 1 
    12    4   23 1 
    13    4   24 1 
    14    5    6 ar
    15    5   10 ar
    16    6    7 ar
    17    6   25 1 
    18    7    8 ar
    19    7   26 1 
    20    8    9 ar
    21    8   11 1 
    22    9   10 ar
    23    9   27 1 
    24   10   28 1 
    25   11   12 1 
    26   11   13 1 
    27   11   29 1 
    28   12   30 1 
    29   12   31 1 
    30   12   32 1 
    31   13   14 ar
    32   13   15 ar
@<TRIPOS>SUBSTRUCTURE
1 MOL         1
@<TRIPOS>MOLECULE
query molecule
   32    32     1     0     0
SMALL
NO_CHARGE

@<TRIPOS>ATOM
      1 C           8.6413   11.9612   30.8801 C.3       1 MOL     0.0072
      2 C           7.3202   11.4293   31.4834 C.3       1 MOL    -0.0128
      3 C           7.2539   11.7145   33.0056 C.3       1 MOL     0.0072
      4 C           6.1097   12.0052   30.7181 C.3       1 MOL     0.0379
      5 C           4.9732   11.0514   30.7223 C.ar      1 MOL    -0.0471
      6 C           3.9674   11.1658   31.6830 C.ar      1 MOL     0.0037
      7 C           2.8787   10.2971   31.6593 C.ar      1 MOL     0.0044
      8 C           2.7782    9.3033   30.6773 C.ar      1 MOL    -0.0391
      9 C           3.7979    9.1828   29.7233 C.ar      1 MOL     0.0044
     10 C           4.8938   10.0509   29.7521 C.ar      1 MOL     0.0037
     11 C           1.6145    8.3706   30.6173 C.3       1 MOL     0.0614
     12 C           1.3176    7.7859   32.0078 C.3       1 MOL     0.0185
     13 C           0.3784    9.1019   30.1026 C.2       1 MOL     0.0489
     14 O           0.0095    8.7497   28.9483 O.co2     1 MOL    -0.5492
     15 O          -0.1543    9.9698   30.8505 O.co2     1 MOL    -0.5492
     16 H           9.5105   11.5092   31.4007 H         1 MOL     0.0232
     17 H           8.6979   13.0647   30.9806 H         1 MOL     0.0232
     18 H           8.6984   11.6991   29.8007 H         1 MOL     0.0232
     19 H           7.3133   10.3194   31.3400 H         1 MOL     0.0299
     20 H           7.2815   12.8100   33.1906 H         1 MOL     0.0232
     21 H           8.1163   11.2484   33.5261 H         1 MOL     0.0232
     22 H           6.3155   11.3088   33.4377 H         1 MOL     0.0232
     23 H           6.3847   12.1694   29.6530 H         1 MOL     0.0316
     24 H           5.7738   12.9627   31.1607 H         1 MOL     0.0316
     25 H           4.0312   11.9291   32.4435 H         1 MOL     0.0620
     26 H           2.0994   10.3864   32.4029 H         1 MOL     0.0621
     27 H           3.7410    8.4205   28.9586 H         1 MOL     0.0621
     28 H           5.6780    9.9540   29.0136 H         1 MOL     0.0620
     29 H           1.8301    7.5437   29.9037 H         1 MOL     0.0406
     30 H           1.1449    8.6237   32.7182 H         1 MOL     0.0239
     31 H           2.1729    7.1807   32.3707 H         1 MOL     0.0239
     32 H           0.4098    7.1509   31.9837 H         1 MOL     0.0239
@<TRIPOS>BOND
     1    1    2 1 
     2    1   16 1 
     3    1   17 1 
     4    1   18 1 
     5    2    3 1 
     6    2    4 1 
     7    2   19 1 
     8    3   20 1 
     9    3   21 1 
    10    3   22 1 
    11    4    5 1 
    12    4   23 1 
    13    4   24 1 
    14    5    6 ar
    15    5   10 ar
    16    6    7 ar
    17    6   25 1 
    18    7    8 ar
    19    7   26 1 
    20    8    9 ar
    21    8   11 1 
    22    9   10 ar
    23    9   27 1 
    24   10   28 1 
    25   11   12 1 
    26   11   13 1 
    27   11   29 1 
    28   12   30 1 
    29   12   31 1 
    30   12   32 1 
    31   13   14 ar
    32   13   15 ar
@<TRIPOS>SUBSTRUCTURE
1 MOL         1
@<TRIPOS>MOLECULE
query molecule
   32    32     1     0     0
SMALL
NO_CHARGE

@<TRIPOS>ATOM
      1 C          20.3471   25.7885   27.8104 C.3       1 MOL     0.0072
      2 C          19.4497   24.9039   26.9044 C.3       1 MOL    -0.0128
      3 C          20.0838   24.6551   25.5085 C.3       1 MOL     0.0072
      4 C          19.0627   23.5803   27.6171 C.3       1 MOL     0.0379
      5 C          17.5787   23.4518   27.6765 C.ar      1 MOL    -0.0471
      6 C          16.8821   23.7187   28.8621 C.ar      1 MOL     0.0037
      7 C          15.4888   23.5707   28.9086 C.ar      1 MOL     0.0044
      8 C          14.7797   23.1543   27.7684 C.ar      1 MOL    -0.0391
      9 C          15.4913   22.9165   26.5862 C.ar      1 MOL     0.0044
     10 C          16.8753   23.0507   26.5366 C.ar      1 MOL     0.0037
     11 C          13.2971   22.9453   27.8451 C.3       1 MOL     0.0614
     12 C          12.6087   23.1558   26.4825 C.3       1 MOL     0.0185
     13 C          13.0420   21.5081   28.3091 C.2       1 MOL     0.0489
     14 O          12.4206   21.4061   29.4058 O.co2     1 MOL    -0.5492
     15 O          13.4786   20.5619   27.5959 O.co2     1 MOL    -0.5492
     16 H          20.5913   26.7474   27.3073 H         1 MOL     0.0232
     17 H          21.2949   25.2643   28.0534 H         1 MOL     0.0232
     18 H          19.8176   26.0151   28.7610 H         1 MOL     0.0232
     19 H          18.4993   25.4740   26.7348 H         1 MOL     0.0299
     20 H          21.0246   24.0727   25.6026 H         1 MOL     0.0232
     21 H          20.3166   25.6186   25.0068 H         1 MOL     0.0232
     22 H          19.3825   24.0860   24.8612 H         1 MOL     0.0232
     23 H          19.4461   23.5702   28.6575 H         1 MOL     0.0316
     24 H          19.4629   22.7051   27.0660 H         1 MOL     0.0316
     25 H          17.4198   24.0367   29.7433 H         1 MOL     0.0620
     26 H          14.9610   23.7748   29.8299 H         1 MOL     0.0621
     27 H          14.9547   22.6116   25.7000 H         1 MOL     0.0621
     28 H          17.4083   22.8410   25.6208 H         1 MOL     0.0620
     29 H          12.8491   23.6486   28.5858 H         1 MOL     0.0406
     30 H          13.0253   22.4394   25.7417 H         1 MOL     0.0239
     31 H          12.7925   24.1866   26.1117 H         1 MOL     0.0239
     32 H          11.5139   22.9948   26.5577 H         1 MOL     0.0239
@<TRIPOS>BOND
     1    1    2 1 
     2    1   16 1 
     3    1   17 1 
     4    1   18 1 
     5    2    3 1 
     6    2    4 1 
     7    2   19 1 
     8    3   20 1 
     9    3   21 1 
    10    3   22 1 
    11    4    5 1 
    12    4   23 1 
    13    4   24 1 
    14    5    6 ar
    15    5   10 ar
    16    6    7 ar
    17    6   25 1 
    18    7    8 ar
    19    7   26 1 
    20    8    9 ar
    21    8   11 1 
    22    9   10 ar
    23    9   27 1 
    24   10   28 1 
    25   11   12 1 
    26   11   13 1 
    27   11   29 1 
    28   12   30 1 
    29   12   31 1 
    30   12   32 1 
    31   13   14 ar
    32   13   15 ar
@<TRIPOS>SUBSTRUCTURE
1 MOL         1
@<TRIPOS>MOLECULE
query molecule
   32    32     1     0     0
SMALL
NO_CHARGE

@<TRIPOS>ATOM
      1 C          -3.0895    6.8406   27.5041 C.3       1 MOL     0.0072
      2 C          -3.5162    7.8405   28.6125 C.3       1 MOL    -0.0128
      3 C          -3.6013    7.1139   29.9807 C.3       1 MOL     0.0072
      4 C          -2.5930    9.0873   28.6557 C.3       1 MOL     0.0379
      5 C          -3.0708   10.1300   27.6998 C.ar      1 MOL    -0.0471
      6 C          -2.5231   10.2057   26.4168 C.ar      1 MOL     0.0037
      7 C          -2.9670   11.1708   25.5182 C.ar      1 MOL     0.0044
      8 C          -3.9676   12.0858   25.8764 C.ar      1 MOL    -0.0391
      9 C          -4.5062   12.0202   27.1709 C.ar      1 MOL     0.0044
     10 C          -4.0611   11.0467   28.0813 C.ar      1 MOL     0.0037
     11 C          -4.4534   13.1024   24.8878 C.3       1 MOL     0.0614
     12 C          -3.2849   14.0518   24.5526 C.3       1 MOL     0.0185
     13 C          -4.9682   12.4056   23.6218 C.2       1 MOL     0.0489
     14 O          -6.1336   11.9308   23.7510 O.co2     1 MOL    -0.5492
     15 O          -4.2407   12.3474   22.5915 O.co2     1 MOL    -0.5492
     16 H          -3.7855    5.9770   27.4658 H         1 MOL     0.0232
     17 H          -2.0665    6.4586   27.7123 H         1 MOL     0.0232
     18 H          -3.0826    7.3397   26.5127 H         1 MOL     0.0232
     19 H          -4.5495    8.2000   28.3747 H         1 MOL     0.0299
     20 H          -2.6072    6.7207   30.2785 H         1 MOL     0.0232
     21 H          -4.3081    6.2584   29.9063 H         1 MOL     0.0232
     22 H          -3.9658    7.8015   30.7716 H         1 MOL     0.0232
     23 H          -1.5545    8.8102   28.3818 H         1 MOL     0.0316
     24 H          -2.5961    9.5452   29.6670 H         1 MOL     0.0316
     25 H          -1.7496    9.5192   26.1122 H         1 MOL     0.0620
     26 H          -2.5497   11.2296   24.5237 H         1 MOL     0.0621
     27 H          -5.2749   12.7143   27.4826 H         1 MOL     0.0621
     28 H          -4.4800   10.9996   29.0786 H         1 MOL     0.0620
     29 H          -5.2809   13.7085   25.3187 H         1 MOL     0.0406
     30 H          -2.4289   13.4779   24.1351 H         1 MOL     0.0239
     31 H          -2.9383   14.5835   25.4645 H         1 MOL     0.0239
     32 H          -3.6037   14.8052   23.8020 H         1 MOL     0.0239
@<TRIPOS>BOND
     1    1    2 1 
     2    1   16 1 
     3    1   17 1 
     4    1   18 1 
     5    2    3 1 
     6    2    4 1 
     7    2   19 1 
     8    3   20 1 
     9    3   21 1 
    10    3   22 1 
    11    4    5 1 
    12    4   23 1 
    13    4   24 1 
    14    5    6 ar
    15    5   10 ar
    16    6    7 ar
    17    6   25 1 
    18    7    8 ar
    19    7   26 1 
    20    8    9 ar
    21    8   11 1 
    22    9   10 ar
    23    9   27 1 
    24   10   28 1 
    25   11   12 1 
    26   11   13 1 
    27   11   29 1 
    28   12   30 1 
    29   12   31 1 
    30   12   32 1 
    31   13   14 ar
    32   13   15 ar
@<TRIPOS>SUBSTRUCTURE
1 MOL         1
@<TRIPOS>MOLECULE
query molecule
   32    32     1     0     0
SMALL
NO_CHARGE

@<TRIPOS>ATOM
      1 C          -4.9865    3.3228   32.6201 C.3       1 MOL     0.0072
      2 C          -4.5613    4.8147   32.7080 C.3       1 MOL    -0.0128
      3 C          -4.0236    5.1507   34.1204 C.3       1 MOL     0.0072
      4 C          -3.5622    5.2393   31.5897 C.3       1 MOL     0.0379
      5 C          -4.1596    5.0930   30.2281 C.ar      1 MOL    -0.0471
      6 C          -5.4626    5.5342   29.9739 C.ar      1 MOL     0.0037
      7 C          -6.0269    5.3785   28.7125 C.ar      1 MOL     0.0044
      8 C          -5.3002    4.7835   27.6715 C.ar      1 MOL    -0.0391
      9 C          -3.9802    4.3663   27.9168 C.ar      1 MOL     0.0044
     10 C          -3.4135    4.5178   29.1900 C.ar      1 MOL     0.0037
     11 C          -5.9041    4.5788   26.3212 C.3       1 MOL     0.0614
     12 C          -7.2300    3.8030   26.4378 C.3       1 MOL     0.0185
     13 C          -6.1894    5.8927   25.6076 C.2       1 MOL     0.0489
     14 O          -6.9738    6.7463   26.1169 O.co2     1 MOL    -0.5492
     15 O          -5.5923    5.9863   24.5057 O.co2     1 MOL    -0.5492
     16 H          -5.7547    3.0913   33.3891 H         1 MOL     0.0232
     17 H          -4.1097    2.6617   32.7811 H         1 MOL     0.0232
     18 H          -5.4118    3.1060   31.6190 H         1 MOL     0.0232
     19 H          -5.4907    5.4286   32.5557 H         1 MOL     0.0299
     20 H          -3.1007    4.5720   34.3341 H         1 MOL     0.0232
     21 H          -4.7845    4.8924   34.8886 H         1 MOL     0.0232
     22 H          -3.7926    6.2325   34.2045 H         1 MOL     0.0232
     23 H          -2.6425    4.6246   31.6362 H         1 MOL     0.0316
     24 H          -3.2910    6.3103   31.7189 H         1 MOL     0.0316
     25 H          -6.0413    5.9837   30.7670 H         1 MOL     0.0620
     26 H          -7.0390    5.7140   28.5310 H         1 MOL     0.0621
     27 H          -3.4003    3.9145   27.1252 H         1 MOL     0.0621
     28 H          -2.4004    4.1887   29.3740 H         1 MOL     0.0620
     29 H          -5.1996    3.9906   25.6845 H         1 MOL     0.0406
     30 H          -7.9488    4.3921   27.0475 H         1 MOL     0.0239
     31 H          -7.0774    2.8173   26.9246 H         1 MOL     0.0239
     32 H          -7.6752    3.6371   25.4335 H         1 MOL     0.0239
@<TRIPOS>BOND
     1    1    2 1 
     2    1   16 1 
     3    1   17 1 
     4    1   18 1 
     5    2    3 1 
     6    2    4 1 
     7    2   19 1 
     8    3   20 1 
     9    3   21 1 
    10    3   22 1 
    11    4    5 1 
    12    4   23 1 
    13    4   24 1 
    14    5    6 ar
    15    5   10 ar
    16    6    7 ar
    17    6   25 1 
    18    7    8 ar
    19    7   26 1 
    20    8    9 ar
    21    8   11 1 
    22    9   10 ar
    23    9   27 1 
    24   10   28 1 
    25   11   12 1 
    26   11   13 1 
    27   11   29 1 
    28   12   30 1 
    29   12   31 1 
    30   12   32 1 
    31   13   14 ar
    32   13   15 ar
@<TRIPOS>SUBSTRUCTURE
1 MOL         1
@<TRIPOS>MOLECULE
query molecule
   32    32     1     0     0
SMALL
NO_CHARGE

@<TRIPOS>ATOM
      1 C           2.5068   12.4776   36.8326 C.3       1 MOL     0.0072
      2 C           2.9824   13.8161   36.2073 C.3       1 MOL    -0.0128
      3 C           2.2884   15.0242   36.8956 C.3       1 MOL     0.0072
      4 C           4.5224   13.9771   36.2334 C.3       1 MOL     0.0379
      5 C           5.1711   13.2659   35.0957 C.ar      1 MOL    -0.0471
      6 C           5.3013   13.9051   33.8559 C.ar      1 MOL     0.0037
      7 C           5.9622   13.2704   32.8005 C.ar      1 MOL     0.0044
      8 C           6.5008   11.9874   32.9635 C.ar      1 MOL    -0.0391
      9 C           6.3420   11.3379   34.2032 C.ar      1 MOL     0.0044
     10 C           5.6806   11.9737   35.2617 C.ar      1 MOL     0.0037
     11 C           7.2374   11.2755   31.8743 C.3       1 MOL     0.0614
     12 C           6.5996   11.5113   30.5019 C.3       1 MOL     0.0185
     13 C           8.6953   11.7127   31.8344 C.2       1 MOL     0.0489
     14 O           9.4889   10.9054   32.4095 O.co2     1 MOL    -0.5492
     15 O           9.0057   12.7953   31.2550 O.co2     1 MOL    -0.5492
     16 H           1.4020   12.3900   36.7601 H         1 MOL     0.0232
     17 H           2.7927   12.4313   37.9051 H         1 MOL     0.0232
     18 H           2.9670   11.6162   36.3061 H         1 MOL     0.0232
     19 H           2.6622   13.8262   35.1345 H         1 MOL     0.0299
     20 H           2.5740   15.0774   37.9671 H         1 MOL     0.0232
     21 H           1.1845   14.9260   36.8282 H         1 MOL     0.0232
     22 H           2.5894   15.9726   36.4025 H         1 MOL     0.0232
     23 H           4.9470   13.5953   37.1825 H         1 MOL     0.0316
     24 H           4.7831   15.0539   36.1248 H         1 MOL     0.0316
     25 H           4.8923   14.8951   33.7167 H         1 MOL     0.0620
     26 H           6.0581   13.7718   31.8483 H         1 MOL     0.0621
     27 H           6.7374   10.3416   34.3468 H         1 MOL     0.0621
     28 H           5.5734   11.4728   36.2132 H         1 MOL     0.0620
     29 H           7.2272   10.1793   32.0908 H         1 MOL     0.0406
     30 H           6.6684   12.5927   30.2533 H         1 MOL     0.0239
     31 H           5.5318   11.2129   30.5013 H         1 MOL     0.0239
     32 H           7.1354   10.9345   29.7195 H         1 MOL     0.0239
@<TRIPOS>BOND
     1    1    2 1 
     2    1   16 1 
     3    1   17 1 
     4    1   18 1 
     5    2    3 1 
     6    2    4 1 
     7    2   19 1 
     8    3   20 1 
     9    3   21 1 
    10    3   22 1 
    11    4    5 1 
    12    4   23 1 
    13    4   24 1 
    14    5    6 ar
    15    5   10 ar
    16    6    7 ar
    17    6   25 1 
    18    7    8 ar
    19    7   26 1 
    20    8    9 ar
    21    8   11 1 
    22    9   10 ar
    23    9   27 1 
    24   10   28 1 
    25   11   12 1 
    26   11   13 1 
    27   11   29 1 
    28   12   30 1 
    29   12   31 1 
    30   12   32 1 
    31   13   14 ar
    32   13   15 ar
@<TRIPOS>SUBSTRUCTURE
1 MOL         1
@<TRIPOS>MOLECULE
query molecule
   32    32     1     0     0
SMALL
NO_CHARGE

@<TRIPOS>ATOM
      1 C          20.4645   11.9729   17.0926 C.3       1 MOL     0.0072
      2 C          20.1317   10.7155   17.9356 C.3       1 MOL    -0.0128
      3 C          19.8839    9.4671   17.0499 C.3       1 MOL     0.0072
      4 C          21.2239   10.4155   18.9853 C.3       1 MOL     0.0379
      5 C          20.9112   11.0533   20.2902 C.ar      1 MOL    -0.0471
      6 C          21.9077   11.7899   20.9384 C.ar      1 MOL     0.0037
      7 C          21.6574   12.3432   22.1949 C.ar      1 MOL     0.0044
      8 C          20.4072   12.1687   22.8093 C.ar      1 MOL    -0.0391
      9 C          19.4110   11.4398   22.1525 C.ar      1 MOL     0.0044
     10 C          19.6608   10.9031   20.8948 C.ar      1 MOL     0.0037
     11 C          20.2015   12.8023   24.1393 C.3       1 MOL     0.0614
     12 C          19.1583   13.9059   23.9623 C.3       1 MOL     0.0185
     13 C          19.7334   11.8137   25.1901 C.2       1 MOL     0.0489
     14 O          20.5605   11.6305   26.1267 O.co2     1 MOL    -0.5492
     15 O          18.5988   11.2812   25.0485 O.co2     1 MOL    -0.5492
     16 H          19.6376   12.1936   16.3839 H         1 MOL     0.0232
     17 H          21.3946   11.8060   16.5070 H         1 MOL     0.0232
     18 H          20.6150   12.8574   17.7447 H         1 MOL     0.0232
     19 H          19.1796   10.9163   18.4897 H         1 MOL     0.0299
     20 H          20.7994    9.2343   16.4708 H         1 MOL     0.0232
     21 H          19.0516    9.6589   16.3459 H         1 MOL     0.0232
     22 H          19.6269    8.5859   17.6776 H         1 MOL     0.0232
     23 H          22.2133   10.7730   18.6396 H         1 MOL     0.0316
     24 H          21.2748    9.3196   19.1695 H         1 MOL     0.0316
     25 H          22.8695   11.9278   20.4670 H         1 MOL     0.0620
     26 H          22.4289   12.9118   22.6937 H         1 MOL     0.0621
     27 H          18.4493   11.2906   22.6202 H         1 MOL     0.0621
     28 H          18.8877   10.3442   20.3858 H         1 MOL     0.0620
     29 H          21.1532   13.2706   24.4868 H         1 MOL     0.0406
     30 H          18.1957   13.4691   23.6129 H         1 MOL     0.0239
     31 H          19.5004   14.6423   23.2069 H         1 MOL     0.0239
     32 H          18.9724   14.4370   24.9174 H         1 MOL     0.0239
@<TRIPOS>BOND
     1    1    2 1 
     2    1   16 1 
     3    1   17 1 
     4    1   18 1 
     5    2    3 1 
     6    2    4 1 
     7    2   19 1 
     8    3   20 1 
     9    3   21 1 
    10    3   22 1 
    11    4    5 1 
    12    4   23 1 
    13    4   24 1 
    14    5    6 ar
    15    5   10 ar
    16    6    7 ar
    17    6   25 1 
    18    7    8 ar
    19    7   26 1 
    20    8    9 ar
    21    8   11 1 
    22    9   10 ar
    23    9   27 1 
    24   10   28 1 
    25   11   12 1 
    26   11   13 1 
    27   11   29 1 
    28   12   30 1 
    29   12   31 1 
    30   12   32 1 
    31   13   14 ar
    32   13   15 ar
@<TRIPOS>SUBSTRUCTURE
1 MOL         1
@<TRIPOS>MOLECULE
query molecule
   32    32     1     0     0
SMALL
NO_CHARGE

@<TRIPOS>ATOM
      1 C          -0.8065   23.9232   -6.9512 C.3       1 MOL     0.0072
      2 C          -0.6718   22.7833   -5.9063 C.3       1 MOL    -0.0128
      3 C          -2.0387   22.4776   -5.2403 C.3       1 MOL     0.0072
      4 C          -0.0265   21.5112   -6.5139 C.3       1 MOL     0.0379
      5 C           1.0578   21.0141   -5.6189 C.ar      1 MOL    -0.0471
      6 C           0.7845   20.0680   -4.6255 C.ar      1 MOL     0.0037
      7 C           1.8127   19.5944   -3.8046 C.ar      1 MOL     0.0044
      8 C           3.1292   20.0565   -3.9706 C.ar      1 MOL    -0.0391
      9 C           3.3944   21.0149   -4.9576 C.ar      1 MOL     0.0044
     10 C           2.3660   21.4877   -5.7792 C.ar      1 MOL     0.0037
     11 C           4.1931   19.4895   -3.0782 C.3       1 MOL     0.0614
     12 C           5.2164   18.7293   -3.9419 C.3       1 MOL     0.0185
     13 C           4.8520   20.6049   -2.2687 C.2       1 MOL     0.0489
     14 O           6.0844   20.8243   -2.4208 O.co2     1 MOL    -0.5492
     15 O           4.0577   21.2099   -1.4889 O.co2     1 MOL    -0.5492
     16 H          -1.2202   24.8365   -6.4755 H         1 MOL     0.0232
     17 H          -1.4793   23.6144   -7.7782 H         1 MOL     0.0232
     18 H           0.1886   24.1674   -7.3799 H         1 MOL     0.0232
     19 H           0.0201   23.1526   -5.1063 H         1 MOL     0.0299
     20 H          -2.7687   22.1295   -6.0022 H         1 MOL     0.0232
     21 H          -2.4450   23.3916   -4.7581 H         1 MOL     0.0232
     22 H          -1.9304   21.6878   -4.4686 H         1 MOL     0.0232
     23 H           0.4401   21.7463   -7.4939 H         1 MOL     0.0316
     24 H          -0.7753   20.7057   -6.6457 H         1 MOL     0.0316
     25 H          -0.2222   19.6982   -4.4938 H         1 MOL     0.0620
     26 H           1.5945   18.8629   -3.0395 H         1 MOL     0.0621
     27 H           4.3992   21.3896   -5.0891 H         1 MOL     0.0621
     28 H           2.5794   22.2197   -6.5446 H         1 MOL     0.0620
     29 H           3.7314   18.7629   -2.3649 H         1 MOL     0.0406
     30 H           5.7024   19.4211   -4.6614 H         1 MOL     0.0239
     31 H           4.7107   17.9236   -4.5158 H         1 MOL     0.0239
     32 H           5.9991   18.2688   -3.3040 H         1 MOL     0.0239
@<TRIPOS>BOND
     1    1    2 1 
     2    1   16 1 
     3    1   17 1 
     4    1   18 1 
     5    2    3 1 
     6    2    4 1 
     7    2   19 1 
     8    3   20 1 
     9    3   21 1 
    10    3   22 1 
    11    4    5 1 
    12    4   23 1 
    13    4   24 1 
    14    5    6 ar
    15    5   10 ar
    16    6    7 ar
    17    6   25 1 
    18    7    8 ar
    19    7   26 1 
    20    8    9 ar
    21    8   11 1 
    22    9   10 ar
    23    9   27 1 
    24   10   28 1 
    25   11   12 1 
    26   11   13 1 
    27   11   29 1 
    28   12   30 1 
    29   12   31 1 
    30   12   32 1 
    31   13   14 ar
    32   13   15 ar
@<TRIPOS>SUBSTRUCTURE
1 MOL         1
@<TRIPOS>MOLECULE
query molecule
   32    32     1     0     0
SMALL
NO_CHARGE

@<TRIPOS>ATOM
      1 C           6.4772    8.2726   37.6932 C.3       1 MOL     0.0072
      2 C           5.2966    9.0054   37.0044 C.3       1 MOL    -0.0128
      3 C           4.0101    8.9449   37.8705 C.3       1 MOL     0.0072
      4 C           5.6613   10.4651   36.6424 C.3       1 MOL     0.0379
      5 C           6.1460   10.5506   35.2400 C.ar      1 MOL    -0.0471
      6 C           5.2175   10.8173   34.2284 C.ar      1 MOL     0.0037
      7 C           5.6412   10.9624   32.9106 C.ar      1 MOL     0.0044
      8 C           6.9957   10.8510   32.5749 C.ar      1 MOL    -0.0391
      9 C           7.9198   10.5450   33.5965 C.ar      1 MOL     0.0044
     10 C           7.4975   10.3883   34.9214 C.ar      1 MOL     0.0037
     11 C           7.4923   11.0118   31.1683 C.3       1 MOL     0.0614
     12 C           6.3705   10.8531   30.1216 C.3       1 MOL     0.0185
     13 C           8.1458   12.3772   31.0235 C.2       1 MOL     0.0489
     14 O           7.4274   13.3887   30.8837 O.co2     1 MOL    -0.5492
     15 O           9.4090   12.3670   31.0438 O.co2     1 MOL    -0.5492
     16 H           6.2075    7.2170   37.9035 H         1 MOL     0.0232
     17 H           6.7272    8.7727   38.6536 H         1 MOL     0.0232
     18 H           7.3759    8.2903   37.0425 H         1 MOL     0.0232
     19 H           5.0679    8.4695   36.0482 H         1 MOL     0.0299
     20 H           4.1680    9.4655   38.8382 H         1 MOL     0.0232
     21 H           3.7322    7.8897   38.0758 H         1 MOL     0.0232
     22 H           3.1670    9.4355   37.3391 H         1 MOL     0.0232
     23 H           6.4418   10.8666   37.3148 H         1 MOL     0.0316
     24 H           4.7543   11.1066   36.6986 H         1 MOL     0.0316
     25 H           4.1691   10.9155   34.4699 H         1 MOL     0.0620
     26 H           4.9207   11.1626   32.1319 H         1 MOL     0.0621
     27 H           8.9686   10.4214   33.3603 H         1 MOL     0.0621
     28 H           8.2110   10.1447   35.6956 H         1 MOL     0.0620
     29 H           8.2503   10.2147   30.9653 H         1 MOL     0.0406
     30 H           5.5902   11.6203   30.3162 H         1 MOL     0.0239
     31 H           5.9031    9.8455   30.1912 H         1 MOL     0.0239
     32 H           6.7581   10.9897   29.0910 H         1 MOL     0.0239
@<TRIPOS>BOND
     1    1    2 1 
     2    1   16 1 
     3    1   17 1 
     4    1   18 1 
     5    2    3 1 
     6    2    4 1 
     7    2   19 1 
     8    3   20 1 
     9    3   21 1 
    10    3   22 1 
    11    4    5 1 
    12    4   23 1 
    13    4   24 1 
    14    5    6 ar
    15    5   10 ar
    16    6    7 ar
    17    6   25 1 
    18    7    8 ar
    19    7   26 1 
    20    8    9 ar
    21    8   11 1 
    22    9   10 ar
    23    9   27 1 
    24   10   28 1 
    25   11   12 1 
    26   11   13 1 
    27   11   29 1 
    28   12   30 1 
    29   12   31 1 
    30   12   32 1 
    31   13   14 ar
    32   13   15 ar
@<TRIPOS>SUBSTRUCTURE
1 MOL         1
@<TRIPOS>MOLECULE
query molecule
   32    32     1     0     0
SMALL
NO_CHARGE

@<TRIPOS>ATOM
      1 C           9.4314   25.5608   -5.9046 C.3       1 MOL     0.0072
      2 C           9.7803   25.7687   -4.4060 C.3       1 MOL    -0.0128
      3 C          10.7630   26.9652   -4.2491 C.3       1 MOL     0.0072
      4 C           8.5466   25.9646   -3.4869 C.3       1 MOL     0.0379
      5 C           7.6985   24.7463   -3.3981 C.ar      1 MOL    -0.0471
      6 C           7.9735   23.7366   -2.4680 C.ar      1 MOL     0.0037
      7 C           7.1552   22.6004   -2.3970 C.ar      1 MOL     0.0044
      8 C           6.0640   22.4648   -3.2586 C.ar      1 MOL    -0.0391
      9 C           5.7851   23.4902   -4.1773 C.ar      1 MOL     0.0044
     10 C           6.5955   24.6208   -4.2486 C.ar      1 MOL     0.0037
     11 C           5.1565   21.2816   -3.2938 C.3       1 MOL     0.0614
     12 C           5.9401   19.9621   -3.2504 C.3       1 MOL     0.0185
     13 C           4.1711   21.3729   -2.1426 C.2       1 MOL     0.0489
     14 O           3.0310   21.8305   -2.4486 O.co2     1 MOL    -0.5492
     15 O           4.5656   21.0316   -0.9955 O.co2     1 MOL    -0.5492
     16 H          10.3602   25.4166   -6.4970 H         1 MOL     0.0232
     17 H           8.8977   26.4504   -6.3011 H         1 MOL     0.0232
     18 H           8.7846   24.6694   -6.0355 H         1 MOL     0.0232
     19 H          10.3195   24.8524   -4.0547 H         1 MOL     0.0299
     20 H          10.2764   27.9075   -4.5808 H         1 MOL     0.0232
     21 H          11.6736   26.8051   -4.8635 H         1 MOL     0.0232
     22 H          11.0674   27.0820   -3.1879 H         1 MOL     0.0232
     23 H           7.9137   26.7955   -3.8627 H         1 MOL     0.0316
     24 H           8.8828   26.2045   -2.4544 H         1 MOL     0.0316
     25 H           8.8189   23.8359   -1.8025 H         1 MOL     0.0620
     26 H           7.3731   21.8268   -1.6750 H         1 MOL     0.0621
     27 H           4.9371   23.3970   -4.8411 H         1 MOL     0.0621
     28 H           6.3737   25.3993   -4.9639 H         1 MOL     0.0620
     29 H           4.5644   21.3129   -4.2444 H         1 MOL     0.0406
     30 H           6.5945   19.9184   -2.3575 H         1 MOL     0.0239
     31 H           6.5777   19.8776   -4.1592 H         1 MOL     0.0239
     32 H           5.2453   19.0971   -3.2340 H         1 MOL     0.0239
@<TRIPOS>BOND
     1    1    2 1 
     2    1   16 1 
     3    1   17 1 
     4    1   18 1 
     5    2    3 1 
     6    2    4 1 
     7    2   19 1 
     8    3   20 1 
     9    3   21 1 
    10    3   22 1 
    11    4    5 1 
    12    4   23 1 
    13    4   24 1 
    14    5    6 ar
    15    5   10 ar
    16    6    7 ar
    17    6   25 1 
    18    7    8 ar
    19    7   26 1 
    20    8    9 ar
    21    8   11 1 
    22    9   10 ar
    23    9   27 1 
    24   10   28 1 
    25   11   12 1 
    26   11   13 1 
    27   11   29 1 
    28   12   30 1 
    29   12   31 1 
    30   12   32 1 
    31   13   14 ar
    32   13   15 ar
@<TRIPOS>SUBSTRUCTURE
1 MOL         1
@<TRIPOS>MOLECULE
query molecule
   32    32     1     0     0
SMALL
NO_CHARGE

@<TRIPOS>ATOM
      1 C           9.3932   21.7349   27.2731 C.3       1 MOL     0.0072
      2 C           7.8827   21.8533   27.5653 C.3       1 MOL    -0.0128
      3 C           7.5310   21.3979   29.0013 C.3       1 MOL     0.0072
      4 C           7.3882   23.2833   27.2640 C.3       1 MOL     0.0379
      5 C           6.0021   23.2619   26.7289 C.ar      1 MOL    -0.0471
      6 C           4.9388   23.6448   27.5526 C.ar      1 MOL     0.0037
      7 C           3.6451   23.7124   27.0295 C.ar      1 MOL     0.0044
      8 C           3.4058   23.3990   25.6839 C.ar      1 MOL    -0.0391
      9 C           4.4707   22.9763   24.8709 C.ar      1 MOL     0.0044
     10 C           5.7618   22.9083   25.3990 C.ar      1 MOL     0.0037
     11 C           2.0075   23.5240   25.1829 C.3       1 MOL     0.0614
     12 C           1.9181   24.4644   23.9728 C.3       1 MOL     0.0185
     13 C           1.4665   22.1585   24.7987 C.2       1 MOL     0.0489
     14 O           0.5501   21.7440   25.5542 O.co2     1 MOL    -0.5492
     15 O           1.9668   21.5825   23.7935 O.co2     1 MOL    -0.5492
     16 H           9.7252   20.6857   27.4201 H         1 MOL     0.0232
     17 H           9.9759   22.3942   27.9459 H         1 MOL     0.0232
     18 H           9.5991   22.0252   26.2157 H         1 MOL     0.0232
     19 H           7.3531   21.1685   26.8500 H         1 MOL     0.0299
     20 H           8.0630   22.0307   29.7471 H         1 MOL     0.0232
     21 H           7.8348   20.3393   29.1529 H         1 MOL     0.0232
     22 H           6.4390   21.4817   29.1801 H         1 MOL     0.0232
     23 H           8.0254   23.7394   26.4753 H         1 MOL     0.0316
     24 H           7.4162   23.9176   28.1695 H         1 MOL     0.0316
     25 H           5.1172   23.8921   28.5884 H         1 MOL     0.0620
     26 H           2.8259   24.0144   27.6672 H         1 MOL     0.0621
     27 H           4.2899   22.7169   23.8464 H         1 MOL     0.0621
     28 H           6.5801   22.5876   24.7682 H         1 MOL     0.0620
     29 H           1.3611   23.9392   25.9961 H         1 MOL     0.0406
     30 H           2.5205   24.0631   23.1298 H         1 MOL     0.0239
     31 H           2.2963   25.4753   24.2282 H         1 MOL     0.0239
     32 H           0.8633   24.5578   23.6339 H         1 MOL     0.0239
@<TRIPOS>BOND
     1    1    2 1 
     2    1   16 1 
     3    1   17 1 
     4    1   18 1 
     5    2    3 1 
     6    2    4 1 
     7    2   19 1 
     8    3   20 1 
     9    3   21 1 
    10    3   22 1 
    11    4    5 1 
    12    4   23 1 
    13    4   24 1 
    14    5    6 ar
    15    5   10 ar
    16    6    7 ar
    17    6   25 1 
    18    7    8 ar
    19    7   26 1 
    20    8    9 ar
    21    8   11 1 
    22    9   10 ar
    23    9   27 1 
    24   10   28 1 
    25   11   12 1 
    26   11   13 1 
    27   11   29 1 
    28   12   30 1 
    29   12   31 1 
    30   12   32 1 
    31   13   14 ar
    32   13   15 ar
@<TRIPOS>SUBSTRUCTURE
1 MOL         1
@<TRIPOS>MOLECULE
query molecule
   32    32     1     0     0
SMALL
NO_CHARGE

@<TRIPOS>ATOM
      1 C           5.4247   28.0530   13.0718 C.3       1 MOL     0.0072
      2 C           6.1969   26.7414   12.7662 C.3       1 MOL    -0.0128
      3 C           7.4037   26.6067   13.7171 C.3       1 MOL     0.0072
      4 C           5.2866   25.4904   12.8367 C.3       1 MOL     0.0379
      5 C           4.2163   25.5382   11.8017 C.ar      1 MOL    -0.0471
      6 C           2.9087   25.8198   12.2133 C.ar      1 MOL     0.0037
      7 C           1.8708   25.8382   11.2860 C.ar      1 MOL     0.0044
      8 C           2.1136   25.5777    9.9310 C.ar      1 MOL    -0.0391
      9 C           3.4313   25.3181    9.5171 C.ar      1 MOL     0.0044
     10 C           4.4737   25.3060   10.4520 C.ar      1 MOL     0.0037
     11 C           1.0105   25.5606    8.9208 C.3       1 MOL     0.0614
     12 C          -0.1616   24.6913    9.4113 C.3       1 MOL     0.0185
     13 C           0.5112   26.9834    8.6578 C.2       1 MOL     0.0489
     14 O           0.7750   27.4363    7.5161 O.co2     1 MOL    -0.5492
     15 O          -0.1201   27.5660    9.5926 O.co2     1 MOL    -0.5492
     16 H           6.0830   28.9372   12.9762 H         1 MOL     0.0232
     17 H           5.0080   28.0151   14.1013 H         1 MOL     0.0232
     18 H           4.5755   28.1535   12.3611 H         1 MOL     0.0232
     19 H           6.6066   26.8105   11.7275 H         1 MOL     0.0299
     20 H           7.0643   26.5291   14.7723 H         1 MOL     0.0232
     21 H           8.0795   27.4818   13.6353 H         1 MOL     0.0232
     22 H           7.9923   25.6948   13.4834 H         1 MOL     0.0232
     23 H           4.7857   25.4547   13.8290 H         1 MOL     0.0316
     24 H           5.8701   24.5599   12.6868 H         1 MOL     0.0316
     25 H           2.7083   26.0262   13.2539 H         1 MOL     0.0620
     26 H           0.8657   26.0583   11.6162 H         1 MOL     0.0621
     27 H           3.6380   25.1254    8.4752 H         1 MOL     0.0621
     28 H           5.4847   25.1075   10.1213 H         1 MOL     0.0620
     29 H           1.3923   25.1502    7.9557 H         1 MOL     0.0406
     30 H          -0.5631   25.0824   10.3647 H         1 MOL     0.0239
     31 H           0.1768   23.6421    9.5769 H         1 MOL     0.0239
     32 H          -0.9821   24.6713    8.6610 H         1 MOL     0.0239
@<TRIPOS>BOND
     1    1    2 1 
     2    1   16 1 
     3    1   17 1 
     4    1   18 1 
     5    2    3 1 
     6    2    4 1 
     7    2   19 1 
     8    3   20 1 
     9    3   21 1 
    10    3   22 1 
    11    4    5 1 
    12    4   23 1 
    13    4   24 1 
    14    5    6 ar
    15    5   10 ar
    16    6    7 ar
    17    6   25 1 
    18    7    8 ar
    19    7   26 1 
    20    8    9 ar
    21    8   11 1 
    22    9   10 ar
    23    9   27 1 
    24   10   28 1 
    25   11   12 1 
    26   11   13 1 
    27   11   29 1 
    28   12   30 1 
    29   12   31 1 
    30   12   32 1 
    31   13   14 ar
    32   13   15 ar
@<TRIPOS>SUBSTRUCTURE
1 MOL         1
@<TRIPOS>MOLECULE
query molecule
   32    32     1     0     0
SMALL
NO_CHARGE

@<TRIPOS>ATOM
      1 C          -2.2706   24.5402   23.7852 C.3       1 MOL     0.0072
      2 C          -2.2647   23.2506   24.6401 C.3       1 MOL    -0.0128
      3 C          -3.6553   22.5847   24.7579 C.3       1 MOL     0.0072
      4 C          -1.2258   22.2176   24.1470 C.3       1 MOL     0.0379
      5 C           0.1341   22.6387   24.5758 C.ar      1 MOL    -0.0471
      6 C           1.0388   23.1590   23.6451 C.ar      1 MOL     0.0037
      7 C           2.2988   23.5907   24.0641 C.ar      1 MOL     0.0044
      8 C           2.6623   23.5058   25.4126 C.ar      1 MOL    -0.0391
      9 C           1.7657   22.9422   26.3366 C.ar      1 MOL     0.0044
     10 C           0.5061   22.5126   25.9192 C.ar      1 MOL     0.0037
     11 C           3.9662   23.9666   25.9495 C.3       1 MOL     0.0614
     12 C           5.0684   23.0941   25.3320 C.3       1 MOL     0.0185
     13 C           4.3016   25.4224   25.6809 C.2       1 MOL     0.0489
     14 O           5.2983   25.8232   26.3584 O.co2     1 MOL    -0.5492
     15 O           3.6382   26.0930   24.8399 O.co2     1 MOL    -0.5492
     16 H          -2.9832   25.2827   24.1992 H         1 MOL     0.0232
     17 H          -2.5750   24.3080   22.7397 H         1 MOL     0.0232
     18 H          -1.2576   24.9943   23.7598 H         1 MOL     0.0232
     19 H          -1.9679   23.5447   25.6802 H         1 MOL     0.0299
     20 H          -4.0132   22.2477   23.7626 H         1 MOL     0.0232
     21 H          -4.3939   23.3008   25.1755 H         1 MOL     0.0232
     22 H          -3.6013   21.7023   25.4303 H         1 MOL     0.0232
     23 H          -1.2431   22.1189   23.0459 H         1 MOL     0.0316
     24 H          -1.4244   21.2285   24.6126 H         1 MOL     0.0316
     25 H           0.7608   23.2258   22.6041 H         1 MOL     0.0620
     26 H           2.9959   23.9947   23.3448 H         1 MOL     0.0621
     27 H           2.0504   22.8448   27.3746 H         1 MOL     0.0621
     28 H          -0.1839   22.0894   26.6345 H         1 MOL     0.0620
     29 H           3.9754   23.8098   27.0574 H         1 MOL     0.0406
     30 H           5.0792   23.2299   24.2305 H         1 MOL     0.0239
     31 H           4.8915   22.0234   25.5601 H         1 MOL     0.0239
     32 H           6.0596   23.3864   25.7371 H         1 MOL     0.0239
@<TRIPOS>BOND
     1    1    2 1 
     2    1   16 1 
     3    1   17 1 
     4    1   18 1 
     5    2    3 1 
     6    2    4 1 
     7    2   19 1 
     8    3   20 1 
     9    3   21 1 
    10    3   22 1 
    11    4    5 1 
    12    4   23 1 
    13    4   24 1 
    14    5    6 ar
    15    5   10 ar
    16    6    7 ar
    17    6   25 1 
    18    7    8 ar
    19    7   26 1 
    20    8    9 ar
    21    8   11 1 
    22    9   10 ar
    23    9   27 1 
    24   10   28 1 
    25   11   12 1 
    26   11   13 1 
    27   11   29 1 
    28   12   30 1 
    29   12   31 1 
    30   12   32 1 
    31   13   14 ar
    32   13   15 ar
@<TRIPOS>SUBSTRUCTURE
1 MOL         1
@<TRIPOS>MOLECULE
query molecule
   32    32     1     0     0
SMALL
NO_CHARGE

@<TRIPOS>ATOM
      1 C          -1.1476   -3.6214   36.9908 C.3       1 MOL     0.0072
      2 C           0.3072   -4.0091   36.6174 C.3       1 MOL    -0.0128
      3 C           1.3363   -3.0901   37.3260 C.3       1 MOL     0.0072
      4 C           0.5837   -5.5157   36.8621 C.3       1 MOL     0.0379
      5 C           1.4022   -6.0722   35.7469 C.ar      1 MOL    -0.0471
      6 C           0.7545   -6.6762   34.6597 C.ar      1 MOL     0.0037
      7 C           1.4971   -7.1726   33.5853 C.ar      1 MOL     0.0044
      8 C           2.8986   -7.1039   33.5854 C.ar      1 MOL    -0.0391
      9 C           3.5403   -6.5105   34.6902 C.ar      1 MOL     0.0044
     10 C           2.7989   -5.9990   35.7632 C.ar      1 MOL     0.0037
     11 C           3.7438   -7.6588   32.4721 C.3       1 MOL     0.0614
     12 C           3.1275   -8.9736   31.9543 C.3       1 MOL     0.0185
     13 C           3.9176   -6.6757   31.3135 C.2       1 MOL     0.0489
     14 O           5.0316   -6.0697   31.2792 O.co2     1 MOL    -0.5492
     15 O           2.9967   -6.5609   30.4524 O.co2     1 MOL    -0.5492
     16 H          -1.3296   -2.5488   36.7673 H         1 MOL     0.0232
     17 H          -1.3353   -3.7948   38.0707 H         1 MOL     0.0232
     18 H          -1.8684   -4.2296   36.4040 H         1 MOL     0.0232
     19 H           0.4060   -3.8336   35.5146 H         1 MOL     0.0299
     20 H           1.2797   -3.2229   38.4271 H         1 MOL     0.0232
     21 H           1.1280   -2.0254   37.0884 H         1 MOL     0.0232
     22 H           2.3667   -3.3329   36.9928 H         1 MOL     0.0232
     23 H          -0.3765   -6.0766   36.8664 H         1 MOL     0.0316
     24 H           1.1128   -5.6819   37.8183 H         1 MOL     0.0316
     25 H          -0.3235   -6.7535   34.6515 H         1 MOL     0.0620
     26 H           0.9838   -7.6236   32.7470 H         1 MOL     0.0621
     27 H           4.6195   -6.4474   34.7091 H         1 MOL     0.0621
     28 H           3.3063   -5.5443   36.6017 H         1 MOL     0.0620
     29 H           4.7653   -7.8849   32.8733 H         1 MOL     0.0406
     30 H           2.0981   -8.7994   31.5743 H         1 MOL     0.0239
     31 H           3.0720   -9.7168   32.7782 H         1 MOL     0.0239
     32 H           3.7388   -9.4036   31.1353 H         1 MOL     0.0239
@<TRIPOS>BOND
     1    1    2 1 
     2    1   16 1 
     3    1   17 1 
     4    1   18 1 
     5    2    3 1 
     6    2    4 1 
     7    2   19 1 
     8    3   20 1 
     9    3   21 1 
    10    3   22 1 
    11    4    5 1 
    12    4   23 1 
    13    4   24 1 
    14    5    6 ar
    15    5   10 ar
    16    6    7 ar
    17    6   25 1 
    18    7    8 ar
    19    7   26 1 
    20    8    9 ar
    21    8   11 1 
    22    9   10 ar
    23    9   27 1 
    24   10   28 1 
    25   11   12 1 
    26   11   13 1 
    27   11   29 1 
    28   12   30 1 
    29   12   31 1 
    30   12   32 1 
    31   13   14 ar
    32   13   15 ar
@<TRIPOS>SUBSTRUCTURE
1 MOL         1
@<TRIPOS>MOLECULE
query molecule
   32    32     1     0     0
SMALL
NO_CHARGE

@<TRIPOS>ATOM
      1 C          20.1394   -1.1382   12.4894 C.3       1 MOL     0.0072
      2 C          18.6771   -1.1613   11.9647 C.3       1 MOL    -0.0128
      3 C          18.3489    0.1456   11.1894 C.3       1 MOL     0.0072
      4 C          18.3794   -2.4396   11.1302 C.3       1 MOL     0.0379
      5 C          16.9652   -2.8758   11.3321 C.ar      1 MOL    -0.0471
      6 C          16.6888   -3.9467   12.1920 C.ar      1 MOL     0.0037
      7 C          15.3651   -4.3266   12.4368 C.ar      1 MOL     0.0044
      8 C          14.3006   -3.6348   11.8372 C.ar      1 MOL    -0.0391
      9 C          14.5940   -2.6011   10.9275 C.ar      1 MOL     0.0044
     10 C          15.9145   -2.2284   10.6736 C.ar      1 MOL     0.0037
     11 C          12.8513   -3.9236   12.1184 C.3       1 MOL     0.0614
     12 C          12.6004   -5.4397   12.0789 C.3       1 MOL     0.0185
     13 C          12.3788   -3.3446   13.4599 C.2       1 MOL     0.0489
     14 O          11.1218   -3.2692   13.6354 O.co2     1 MOL    -0.5492
     15 O          13.2670   -2.9696   14.2801 O.co2     1 MOL    -0.5492
     16 H          20.3032   -0.2280   13.1058 H         1 MOL     0.0232
     17 H          20.8690   -1.1283   11.6534 H         1 MOL     0.0232
     18 H          20.3383   -2.0267   13.1247 H         1 MOL     0.0232
     19 H          18.0189   -1.1912   12.8726 H         1 MOL     0.0299
     20 H          18.9574    0.2095   10.2618 H         1 MOL     0.0232
     21 H          18.5769    1.0330   11.8169 H         1 MOL     0.0232
     22 H          17.2750    0.1720   10.9103 H         1 MOL     0.0232
     23 H          19.0246   -3.2759   11.4772 H         1 MOL     0.0316
     24 H          18.5564   -2.2649   10.0515 H         1 MOL     0.0316
     25 H          17.4944   -4.4802   12.6720 H         1 MOL     0.0620
     26 H          15.1578   -5.1541   13.1006 H         1 MOL     0.0621
     27 H          13.7880   -2.0883   10.4236 H         1 MOL     0.0621
     28 H          16.1262   -1.4319    9.9755 H         1 MOL     0.0620
     29 H          12.2315   -3.4449   11.3164 H         1 MOL     0.0406
     30 H          13.2047   -5.9515   12.8562 H         1 MOL     0.0239
     31 H          12.8966   -5.8413   11.0847 H         1 MOL     0.0239
     32 H          11.5283   -5.6697   12.2457 H         1 MOL     0.0239
@<TRIPOS>BOND
     1    1    2 1 
     2    1   16 1 
     3    1   17 1 
     4    1   18 1 
     5    2    3 1 
     6    2    4 1 
     7    2   19 1 
     8    3   20 1 
     9    3   21 1 
    10    3   22 1 
    11    4    5 1 
    12    4   23 1 
    13    4   24 1 
    14    5    6 ar
    15    5   10 ar
    16    6    7 ar
    17    6   25 1 
    18    7    8 ar
    19    7   26 1 
    20    8    9 ar
    21    8   11 1 
    22    9   10 ar
    23    9   27 1 
    24   10   28 1 
    25   11   12 1 
    26   11   13 1 
    27   11   29 1 
    28   12   30 1 
    29   12   31 1 
    30   12   32 1 
    31   13   14 ar
    32   13   15 ar
@<TRIPOS>SUBSTRUCTURE
1 MOL         1
@<TRIPOS>MOLECULE
query molecule
   32    32     1     0     0
SMALL
NO_CHARGE

@<TRIPOS>ATOM
      1 C           2.4524    9.9093   30.5864 C.3       1 MOL     0.0072
      2 C           3.9960   10.0259   30.6215 C.3       1 MOL    -0.0128
      3 C           4.6527    9.3868   29.3870 C.3       1 MOL     0.0072
      4 C           4.4256   11.4999   30.8171 C.3       1 MOL     0.0379
      5 C           5.6221   11.5624   31.6954 C.ar      1 MOL    -0.0471
      6 C           5.5107   11.1620   33.0326 C.ar      1 MOL     0.0037
      7 C           6.6200   11.2264   33.8715 C.ar      1 MOL     0.0044
      8 C           7.8502   11.6928   33.3886 C.ar      1 MOL    -0.0391
      9 C           7.9542   12.0961   32.0474 C.ar      1 MOL     0.0044
     10 C           6.8440   12.0284   31.2030 C.ar      1 MOL     0.0037
     11 C           9.0722   11.7643   34.2414 C.3       1 MOL     0.0614
     12 C           8.7390   12.1160   35.6970 C.3       1 MOL     0.0185
     13 C           9.8076   10.4262   34.1860 C.2       1 MOL     0.0489
     14 O          11.0619   10.5276   34.0673 O.co2     1 MOL    -0.5492
     15 O           9.1242    9.3677   34.2439 O.co2     1 MOL    -0.5492
     16 H           2.1480    8.8484   30.4837 H         1 MOL     0.0232
     17 H           2.0382   10.4840   29.7316 H         1 MOL     0.0232
     18 H           2.0184   10.3113   31.5278 H         1 MOL     0.0232
     19 H           4.3425    9.4571   31.5244 H         1 MOL     0.0299
     20 H           4.3363    9.9145   28.4573 H         1 MOL     0.0232
     21 H           4.3540    8.3163   29.2910 H         1 MOL     0.0232
     22 H           5.7614    9.4339   29.4524 H         1 MOL     0.0232
     23 H           3.6204   12.0629   31.3387 H         1 MOL     0.0316
     24 H           4.6576   11.9904   29.8562 H         1 MOL     0.0316
     25 H           4.5645   10.8033   33.4139 H         1 MOL     0.0620
     26 H           6.5328   10.9143   34.9032 H         1 MOL     0.0621
     27 H           8.9000   12.4566   31.6696 H         1 MOL     0.0621
     28 H           6.9315   12.3366   30.1728 H         1 MOL     0.0620
     29 H           9.7630   12.5537   33.8434 H         1 MOL     0.0406
     30 H           8.0550   11.3592   36.1346 H         1 MOL     0.0239
     31 H           8.2290   13.1031   35.7332 H         1 MOL     0.0239
     32 H           9.6577   12.1749   36.3166 H         1 MOL     0.0239
@<TRIPOS>BOND
     1    1    2 1 
     2    1   16 1 
     3    1   17 1 
     4    1   18 1 
     5    2    3 1 
     6    2    4 1 
     7    2   19 1 
     8    3   20 1 
     9    3   21 1 
    10    3   22 1 
    11    4    5 1 
    12    4   23 1 
    13    4   24 1 
    14    5    6 ar
    15    5   10 ar
    16    6    7 ar
    17    6   25 1 
    18    7    8 ar
    19    7   26 1 
    20    8    9 ar
    21    8   11 1 
    22    9   10 ar
    23    9   27 1 
    24   10   28 1 
    25   11   12 1 
    26   11   13 1 
    27   11   29 1 
    28   12   30 1 
    29   12   31 1 
    30   12   32 1 
    31   13   14 ar
    32   13   15 ar
@<TRIPOS>SUBSTRUCTURE
1 MOL         1
@<TRIPOS>MOLECULE
query molecule
   32    32     1     0     0
SMALL
NO_CHARGE

@<TRIPOS>ATOM
      1 C          -4.4583    5.2598   -6.2519 C.3       1 MOL     0.0072
      2 C          -4.1118    6.4997   -5.3813 C.3       1 MOL    -0.0128
      3 C          -4.9775    7.7183   -5.8053 C.3       1 MOL     0.0072
      4 C          -4.2137    6.2314   -3.8520 C.3       1 MOL     0.0379
      5 C          -2.8930    5.8032   -3.3018 C.ar      1 MOL    -0.0471
      6 C          -1.9682    6.7518   -2.8511 C.ar      1 MOL     0.0037
      7 C          -0.7612    6.3450   -2.2603 C.ar      1 MOL     0.0044
      8 C          -0.4454    4.9870   -2.1618 C.ar      1 MOL    -0.0391
      9 C          -1.3591    4.0453   -2.6712 C.ar      1 MOL     0.0044
     10 C          -2.5736    4.4433   -3.2310 C.ar      1 MOL     0.0037
     11 C           0.8189    4.4626   -1.5710 C.3       1 MOL     0.0614
     12 C           1.9988    4.8894   -2.4584 C.3       1 MOL     0.0185
     13 C           1.0611    4.8802   -0.1258 C.2       1 MOL     0.0489
     14 O           1.5581    6.0156    0.1289 O.co2     1 MOL    -0.5492
     15 O           0.7554    3.9794    0.7126 O.co2     1 MOL    -0.5492
     16 H          -4.3229    5.4913   -7.3290 H         1 MOL     0.0232
     17 H          -5.5129    4.9554   -6.0845 H         1 MOL     0.0232
     18 H          -3.7978    4.4074   -5.9869 H         1 MOL     0.0232
     19 H          -3.0459    6.7706   -5.5982 H         1 MOL     0.0299
     20 H          -6.0515    7.5163   -5.6094 H         1 MOL     0.0232
     21 H          -4.8501    7.9211   -6.8902 H         1 MOL     0.0232
     22 H          -4.6776    8.6249   -5.2396 H         1 MOL     0.0232
     23 H          -4.9589    5.4412   -3.6363 H         1 MOL     0.0316
     24 H          -4.5060    7.1664   -3.3261 H         1 MOL     0.0316
     25 H          -2.1976    7.8034   -2.9441 H         1 MOL     0.0620
     26 H          -0.0715    7.0880   -1.8904 H         1 MOL     0.0621
     27 H          -1.1195    2.9911   -2.6227 H         1 MOL     0.0621
     28 H          -3.2659    3.7021   -3.6032 H         1 MOL     0.0620
     29 H           0.7757    3.3423   -1.5926 H         1 MOL     0.0406
     30 H           2.0689    5.9955   -2.5007 H         1 MOL     0.0239
     31 H           1.8598    4.5012   -3.4896 H         1 MOL     0.0239
     32 H           2.9496    4.4847   -2.0527 H         1 MOL     0.0239
@<TRIPOS>BOND
     1    1    2 1 
     2    1   16 1 
     3    1   17 1 
     4    1   18 1 
     5    2    3 1 
     6    2    4 1 
     7    2   19 1 
     8    3   20 1 
     9    3   21 1 
    10    3   22 1 
    11    4    5 1 
    12    4   23 1 
    13    4   24 1 
    14    5    6 ar
    15    5   10 ar
    16    6    7 ar
    17    6   25 1 
    18    7    8 ar
    19    7   26 1 
    20    8    9 ar
    21    8   11 1 
    22    9   10 ar
    23    9   27 1 
    24   10   28 1 
    25   11   12 1 
    26   11   13 1 
    27   11   29 1 
    28   12   30 1 
    29   12   31 1 
    30   12   32 1 
    31   13   14 ar
    32   13   15 ar
@<TRIPOS>SUBSTRUCTURE
1 MOL         1
@<TRIPOS>MOLECULE
query molecule
   32    32     1     0     0
SMALL
NO_CHARGE

@<TRIPOS>ATOM
      1 C          -0.9181   21.2123   30.8113 C.3       1 MOL     0.0072
      2 C           0.3637   22.0378   30.5229 C.3       1 MOL    -0.0128
      3 C           0.0258   23.4659   30.0234 C.3       1 MOL     0.0072
      4 C           1.3140   22.0848   31.7456 C.3       1 MOL     0.0379
      5 C           2.3506   21.0240   31.6245 C.ar      1 MOL    -0.0471
      6 C           2.0842   19.7296   32.0774 C.ar      1 MOL     0.0037
      7 C           3.0602   18.7405   31.9747 C.ar      1 MOL     0.0044
      8 C           4.3200   19.0277   31.4277 C.ar      1 MOL    -0.0391
      9 C           4.5798   20.3304   30.9702 C.ar      1 MOL     0.0044
     10 C           3.6001   21.3228   31.0682 C.ar      1 MOL     0.0037
     11 C           5.4018   17.9974   31.3043 C.3       1 MOL     0.0614
     12 C           5.3331   16.9806   32.4581 C.3       1 MOL     0.0185
     13 C           5.2320   17.2655   29.9799 C.2       1 MOL     0.0489
     14 O           6.2152   17.2983   29.1917 O.co2     1 MOL    -0.5492
     15 O           4.1096   16.7210   29.7530 O.co2     1 MOL    -0.5492
     16 H          -1.5627   21.1703   29.9082 H         1 MOL     0.0232
     17 H          -1.4988   21.6734   31.6377 H         1 MOL     0.0232
     18 H          -0.6513   20.1745   31.1030 H         1 MOL     0.0232
     19 H           0.9155   21.5283   29.6920 H         1 MOL     0.0299
     20 H          -0.5132   24.0332   30.8104 H         1 MOL     0.0232
     21 H          -0.6126   23.4189   29.1169 H         1 MOL     0.0232
     22 H           0.9598   24.0110   29.7696 H         1 MOL     0.0232
     23 H           0.7559   21.9320   32.6898 H         1 MOL     0.0316
     24 H           1.8468   23.0581   31.7840 H         1 MOL     0.0316
     25 H           1.1216   19.4969   32.5074 H         1 MOL     0.0620
     26 H           2.8441   17.7404   32.3220 H         1 MOL     0.0621
     27 H           5.5419   20.5659   30.5392 H         1 MOL     0.0621
     28 H           3.8086   22.3217   30.7161 H         1 MOL     0.0620
     29 H           6.4026   18.4875   31.3178 H         1 MOL     0.0406
     30 H           4.3453   16.4718   32.4631 H         1 MOL     0.0239
     31 H           5.4566   17.5020   33.4326 H         1 MOL     0.0239
     32 H           6.1273   16.2131   32.3637 H         1 MOL     0.0239
@<TRIPOS>BOND
     1    1    2 1 
     2    1   16 1 
     3    1   17 1 
     4    1   18 1 
     5    2    3 1 
     6    2    4 1 
     7    2   19 1 
     8    3   20 1 
     9    3   21 1 
    10    3   22 1 
    11    4    5 1 
    12    4   23 1 
    13    4   24 1 
    14    5    6 ar
    15    5   10 ar
    16    6    7 ar
    17    6   25 1 
    18    7    8 ar
    19    7   26 1 
    20    8    9 ar
    21    8   11 1 
    22    9   10 ar
    23    9   27 1 
    24   10   28 1 
    25   11   12 1 
    26   11   13 1 
    27   11   29 1 
    28   12   30 1 
    29   12   31 1 
    30   12   32 1 
    31   13   14 ar
    32   13   15 ar
@<TRIPOS>SUBSTRUCTURE
1 MOL         1
@<TRIPOS>MOLECULE
query molecule
   32    32     1     0     0
SMALL
NO_CHARGE

@<TRIPOS>ATOM
      1 C          14.5781   -1.7117    5.4921 C.3       1 MOL     0.0072
      2 C          15.0539   -2.3668    6.8119 C.3       1 MOL    -0.0128
      3 C          16.2882   -1.6264    7.3893 C.3       1 MOL     0.0072
      4 C          13.9280   -2.4713    7.8677 C.3       1 MOL     0.0379
      5 C          13.0002   -3.5905    7.5489 C.ar      1 MOL    -0.0471
      6 C          13.2548   -4.8774    8.0345 C.ar      1 MOL     0.0037
      7 C          12.3529   -5.9165    7.7808 C.ar      1 MOL     0.0044
      8 C          11.1833   -5.6834    7.0386 C.ar      1 MOL    -0.0391
      9 C          10.9567   -4.4028    6.5261 C.ar      1 MOL     0.0044
     10 C          11.8544   -3.3623    6.7872 C.ar      1 MOL     0.0037
     11 C          10.2173   -6.8100    6.8481 C.3       1 MOL     0.0614
     12 C           8.8639   -6.4407    7.4819 C.3       1 MOL     0.0185
     13 C          10.0271   -7.1308    5.3643 C.2       1 MOL     0.0489
     14 O          10.5823   -8.2008    5.0003 O.co2     1 MOL    -0.5492
     15 O           9.3526   -6.3445    4.6438 O.co2     1 MOL    -0.5492
     16 H          15.4053   -1.6925    4.7514 H         1 MOL     0.0232
     17 H          14.2460   -0.6687    5.6779 H         1 MOL     0.0232
     18 H          13.7291   -2.2802    5.0586 H         1 MOL     0.0232
     19 H          15.3850   -3.4105    6.5755 H         1 MOL     0.0299
     20 H          16.0241   -0.5820    7.6567 H         1 MOL     0.0232
     21 H          17.1129   -1.6064    6.6469 H         1 MOL     0.0232
     22 H          16.6483   -2.1445    8.3038 H         1 MOL     0.0232
     23 H          13.3515   -1.5296    7.9377 H         1 MOL     0.0316
     24 H          14.3739   -2.7012    8.8614 H         1 MOL     0.0316
     25 H          14.1482   -5.0645    8.6125 H         1 MOL     0.0620
     26 H          12.5579   -6.9056    8.1658 H         1 MOL     0.0621
     27 H          10.0702   -4.2106    5.9377 H         1 MOL     0.0621
     28 H          11.6547   -2.3714    6.4055 H         1 MOL     0.0620
     29 H          10.6068   -7.7218    7.3633 H         1 MOL     0.0406
     30 H           8.4458   -5.5572    6.9556 H         1 MOL     0.0239
     31 H           8.9746   -6.1955    8.5576 H         1 MOL     0.0239
     32 H           8.1493   -7.2846    7.3806 H         1 MOL     0.0239
@<TRIPOS>BOND
     1    1    2 1 
     2    1   16 1 
     3    1   17 1 
     4    1   18 1 
     5    2    3 1 
     6    2    4 1 
     7    2   19 1 
     8    3   20 1 
     9    3   21 1 
    10    3   22 1 
    11    4    5 1 
    12    4   23 1 
    13    4   24 1 
    14    5    6 ar
    15    5   10 ar
    16    6    7 ar
    17    6   25 1 
    18    7    8 ar
    19    7   26 1 
    20    8    9 ar
    21    8   11 1 
    22    9   10 ar
    23    9   27 1 
    24   10   28 1 
    25   11   12 1 
    26   11   13 1 
    27   11   29 1 
    28   12   30 1 
    29   12   31 1 
    30   12   32 1 
    31   13   14 ar
    32   13   15 ar
@<TRIPOS>SUBSTRUCTURE
1 MOL         1
@<TRIPOS>MOLECULE
query molecule
   32    32     1     0     0
SMALL
NO_CHARGE

@<TRIPOS>ATOM
      1 C          -0.3844   -3.4446   10.8590 C.3       1 MOL     0.0072
      2 C          -0.0017   -4.5357    9.8276 C.3       1 MOL    -0.0128
      3 C           1.2318   -5.3505   10.2891 C.3       1 MOL     0.0072
      4 C          -1.1925   -5.4711    9.4891 C.3       1 MOL     0.0379
      5 C          -1.9481   -4.9086    8.3362 C.ar      1 MOL    -0.0471
      6 C          -3.0494   -4.0758    8.5541 C.ar      1 MOL     0.0037
      7 C          -3.7277   -3.5181    7.4696 C.ar      1 MOL     0.0044
      8 C          -3.3086   -3.7843    6.1598 C.ar      1 MOL    -0.0391
      9 C          -2.2294   -4.6564    5.9445 C.ar      1 MOL     0.0044
     10 C          -1.5499   -5.2145    7.0294 C.ar      1 MOL     0.0037
     11 C          -3.9389   -3.1407    4.9664 C.3       1 MOL     0.0614
     12 C          -5.4837   -3.3023    4.9814 C.3       1 MOL     0.0185
     13 C          -3.5011   -1.6754    4.9824 C.2       1 MOL     0.0489
     14 O          -4.1156   -0.8730    5.7378 O.co2     1 MOL    -0.5492
     15 O          -2.4996   -1.4259    4.2527 O.co2     1 MOL    -0.5492
     16 H           0.4754   -2.7646   11.0346 H         1 MOL     0.0232
     17 H          -0.6682   -3.9132   11.8250 H         1 MOL     0.0232
     18 H          -1.2424   -2.8451   10.4899 H         1 MOL     0.0232
     19 H           0.2900   -4.0200    8.8765 H         1 MOL     0.0299
     20 H           1.0090   -5.8920   11.2315 H         1 MOL     0.0232
     21 H           2.0990   -4.6791   10.4567 H         1 MOL     0.0232
     22 H           1.5058   -6.0943    9.5101 H         1 MOL     0.0232
     23 H          -1.8795   -5.5828   10.3482 H         1 MOL     0.0316
     24 H          -0.8219   -6.4699    9.1750 H         1 MOL     0.0316
     25 H          -3.3718   -3.8594    9.5616 H         1 MOL     0.0620
     26 H          -4.5755   -2.8700    7.6407 H         1 MOL     0.0621
     27 H          -1.9163   -4.8849    4.9359 H         1 MOL     0.0621
     28 H          -0.7132   -5.8752    6.8584 H         1 MOL     0.0620
     29 H          -3.5387   -3.6089    4.0340 H         1 MOL     0.0406
     30 H          -5.9079   -2.8588    5.8971 H         1 MOL     0.0239
     31 H          -5.7266   -4.3840    4.9534 H         1 MOL     0.0239
     32 H          -5.9198   -2.8130    4.0914 H         1 MOL     0.0239
@<TRIPOS>BOND
     1    1    2 1 
     2    1   16 1 
     3    1   17 1 
     4    1   18 1 
     5    2    3 1 
     6    2    4 1 
     7    2   19 1 
     8    3   20 1 
     9    3   21 1 
    10    3   22 1 
    11    4    5 1 
    12    4   23 1 
    13    4   24 1 
    14    5    6 ar
    15    5   10 ar
    16    6    7 ar
    17    6   25 1 
    18    7    8 ar
    19    7   26 1 
    20    8    9 ar
    21    8   11 1 
    22    9   10 ar
    23    9   27 1 
    24   10   28 1 
    25   11   12 1 
    26   11   13 1 
    27   11   29 1 
    28   12   30 1 
    29   12   31 1 
    30   12   32 1 
    31   13   14 ar
    32   13   15 ar
@<TRIPOS>SUBSTRUCTURE
1 MOL         1
@<TRIPOS>MOLECULE
query molecule
   32    32     1     0     0
SMALL
NO_CHARGE

@<TRIPOS>ATOM
      1 C          18.8601   23.6098   15.1828 C.3       1 MOL     0.0072
      2 C          18.3854   24.2317   13.8403 C.3       1 MOL    -0.0128
      3 C          17.6883   25.5974   14.0881 C.3       1 MOL     0.0072
      4 C          19.5491   24.3173   12.8113 C.3       1 MOL     0.0379
      5 C          19.0736   23.9405   11.4493 C.ar      1 MOL    -0.0471
      6 C          18.4084   24.8654   10.6408 C.ar      1 MOL     0.0037
      7 C          17.8978   24.4698    9.3954 C.ar      1 MOL     0.0044
      8 C          18.0680   23.1497    8.9340 C.ar      1 MOL    -0.0391
      9 C          18.7928   22.2497    9.7287 C.ar      1 MOL     0.0044
     10 C          19.2903   22.6402   10.9749 C.ar      1 MOL     0.0037
     11 C          17.4557   22.7510    7.6176 C.3       1 MOL     0.0614
     12 C          18.5127   22.0708    6.7288 C.3       1 MOL     0.0185
     13 C          16.2913   21.7806    7.8427 C.2       1 MOL     0.0489
     14 O          16.2614   20.6915    7.2014 O.co2     1 MOL    -0.5492
     15 O          15.4389   22.1836    8.6843 O.co2     1 MOL    -0.5492
     16 H          18.0051   23.5046   15.8839 H         1 MOL     0.0232
     17 H          19.6281   24.2536   15.6607 H         1 MOL     0.0232
     18 H          19.2992   22.6047   15.0106 H         1 MOL     0.0232
     19 H          17.6191   23.5325   13.4178 H         1 MOL     0.0299
     20 H          18.4061   26.3181   14.5355 H         1 MOL     0.0232
     21 H          16.8330   25.4763   14.7859 H         1 MOL     0.0232
     22 H          17.3119   26.0206   13.1342 H         1 MOL     0.0232
     23 H          20.3407   23.5851   13.0839 H         1 MOL     0.0316
     24 H          19.9856   25.3330   12.7779 H         1 MOL     0.0316
     25 H          18.2883   25.8869   10.9712 H         1 MOL     0.0620
     26 H          17.3604   25.1864    8.7875 H         1 MOL     0.0621
     27 H          18.9576   21.2409    9.3767 H         1 MOL     0.0621
     28 H          19.8383   21.9334   11.5812 H         1 MOL     0.0620
     29 H          17.0529   23.6587    7.1055 H         1 MOL     0.0406
     30 H          18.8527   21.1286    7.2126 H         1 MOL     0.0239
     31 H          19.3841   22.7378    6.5786 H         1 MOL     0.0239
     32 H          18.0707   21.8157    5.7446 H         1 MOL     0.0239
@<TRIPOS>BOND
     1    1    2 1 
     2    1   16 1 
     3    1   17 1 
     4    1   18 1 
     5    2    3 1 
     6    2    4 1 
     7    2   19 1 
     8    3   20 1 
     9    3   21 1 
    10    3   22 1 
    11    4    5 1 
    12    4   23 1 
    13    4   24 1 
    14    5    6 ar
    15    5   10 ar
    16    6    7 ar
    17    6   25 1 
    18    7    8 ar
    19    7   26 1 
    20    8    9 ar
    21    8   11 1 
    22    9   10 ar
    23    9   27 1 
    24   10   28 1 
    25   11   12 1 
    26   11   13 1 
    27   11   29 1 
    28   12   30 1 
    29   12   31 1 
    30   12   32 1 
    31   13   14 ar
    32   13   15 ar
@<TRIPOS>SUBSTRUCTURE
1 MOL         1
@<TRIPOS>MOLECULE
query molecule
   32    32     1     0     0
SMALL
NO_CHARGE

@<TRIPOS>ATOM
      1 C          13.8621    0.9394   37.0985 C.3       1 MOL     0.0072
      2 C          14.1014    2.3197   37.7688 C.3       1 MOL    -0.0128
      3 C          15.5387    2.3709   38.3595 C.3       1 MOL     0.0072
      4 C          13.8342    3.5475   36.8546 C.3       1 MOL     0.0379
      5 C          12.4834    3.5117   36.2248 C.ar      1 MOL    -0.0471
      6 C          11.3202    3.6404   36.9928 C.ar      1 MOL     0.0037
      7 C          10.0637    3.5655   36.3820 C.ar      1 MOL     0.0044
      8 C           9.9558    3.3623   34.9943 C.ar      1 MOL    -0.0391
      9 C          11.1297    3.2491   34.2340 C.ar      1 MOL     0.0044
     10 C          12.3830    3.3380   34.8385 C.ar      1 MOL     0.0037
     11 C           8.5981    3.2929   34.3723 C.3       1 MOL     0.0614
     12 C           8.6614    3.8365   32.9321 C.3       1 MOL     0.0185
     13 C           8.0608    1.8633   34.2991 C.2       1 MOL     0.0489
     14 O           6.8434    1.7408   34.6361 O.co2     1 MOL    -0.5492
     15 O           8.8113    0.9578   33.8370 O.co2     1 MOL    -0.5492
     16 H          14.0409    0.1221   37.8337 H         1 MOL     0.0232
     17 H          14.5489    0.7993   36.2389 H         1 MOL     0.0232
     18 H          12.8186    0.8614   36.7331 H         1 MOL     0.0232
     19 H          13.3861    2.3904   38.6294 H         1 MOL     0.0299
     20 H          16.2891    2.3074   37.5424 H         1 MOL     0.0232
     21 H          15.7009    1.5154   39.0492 H         1 MOL     0.0232
     22 H          15.7023    3.3143   38.9188 H         1 MOL     0.0232
     23 H          14.5845    3.5903   36.0367 H         1 MOL     0.0316
     24 H          13.9008    4.4831   37.4529 H         1 MOL     0.0316
     25 H          11.3949    3.7950   38.0607 H         1 MOL     0.0620
     26 H           9.1709    3.6668   36.9827 H         1 MOL     0.0621
     27 H          11.0580    3.0933   33.1660 H         1 MOL     0.0621
     28 H          13.2740    3.2715   34.2352 H         1 MOL     0.0620
     29 H           7.8787    3.9161   34.9556 H         1 MOL     0.0406
     30 H           9.3254    3.1985   32.3156 H         1 MOL     0.0239
     31 H           9.0455    4.8751   32.9222 H         1 MOL     0.0239
     32 H           7.6430    3.8279   32.4807 H         1 MOL     0.0239
@<TRIPOS>BOND
     1    1    2 1 
     2    1   16 1 
     3    1   17 1 
     4    1   18 1 
     5    2    3 1 
     6    2    4 1 
     7    2   19 1 
     8    3   20 1 
     9    3   21 1 
    10    3   22 1 
    11    4    5 1 
    12    4   23 1 
    13    4   24 1 
    14    5    6 ar
    15    5   10 ar
    16    6    7 ar
    17    6   25 1 
    18    7    8 ar
    19    7   26 1 
    20    8    9 ar
    21    8   11 1 
    22    9   10 ar
    23    9   27 1 
    24   10   28 1 
    25   11   12 1 
    26   11   13 1 
    27   11   29 1 
    28   12   30 1 
    29   12   31 1 
    30   12   32 1 
    31   13   14 ar
    32   13   15 ar
@<TRIPOS>SUBSTRUCTURE
1 MOL         1
@<TRIPOS>MOLECULE
query molecule
   32    32     1     0     0
SMALL
NO_CHARGE

@<TRIPOS>ATOM
      1 C          18.4688    1.5871   12.0817 C.3       1 MOL     0.0072
      2 C          17.6326    1.1393   10.8527 C.3       1 MOL    -0.0128
      3 C          17.8858    2.0807    9.6438 C.3       1 MOL     0.0072
      4 C          17.8621   -0.3633   10.5332 C.3       1 MOL     0.0379
      5 C          16.8305   -0.8730    9.5838 C.ar      1 MOL    -0.0471
      6 C          15.5019   -1.0464    9.9889 C.ar      1 MOL     0.0037
      7 C          14.5383   -1.4783    9.0707 C.ar      1 MOL     0.0044
      8 C          14.8954   -1.7540    7.7388 C.ar      1 MOL    -0.0391
      9 C          16.2374   -1.6142    7.3565 C.ar      1 MOL     0.0044
     10 C          17.1992   -1.1793    8.2685 C.ar      1 MOL     0.0037
     11 C          13.8256   -2.1611    6.7740 C.3       1 MOL     0.0614
     12 C          13.9704   -1.3759    5.4565 C.3       1 MOL     0.0185
     13 C          13.8748   -3.6569    6.4537 C.2       1 MOL     0.0489
     14 O          14.9401   -4.1324    5.9711 O.co2     1 MOL    -0.5492
     15 O          12.7989   -4.2828    6.6926 O.co2     1 MOL    -0.5492
     16 H          18.2433    2.6449   12.3333 H         1 MOL     0.0232
     17 H          19.5546    1.4988   11.8673 H         1 MOL     0.0232
     18 H          18.2280    0.9549   12.9619 H         1 MOL     0.0232
     19 H          16.5543    1.2521   11.1375 H         1 MOL     0.0299
     20 H          18.9465    2.0255    9.3212 H         1 MOL     0.0232
     21 H          17.6564    3.1315    9.9213 H         1 MOL     0.0232
     22 H          17.2386    1.7929    8.7891 H         1 MOL     0.0232
     23 H          17.7817   -0.9680   11.4618 H         1 MOL     0.0316
     24 H          18.8602   -0.5216   10.0767 H         1 MOL     0.0316
     25 H          15.2204   -0.8373   11.0114 H         1 MOL     0.0620
     26 H          13.5117   -1.5897    9.3905 H         1 MOL     0.0621
     27 H          16.5270   -1.8342    6.3390 H         1 MOL     0.0621
     28 H          18.2292   -1.0714    7.9600 H         1 MOL     0.0620
     29 H          12.8234   -1.9375    7.2142 H         1 MOL     0.0406
     30 H          14.9603   -1.5802    4.9975 H         1 MOL     0.0239
     31 H          13.8861   -0.2849    5.6407 H         1 MOL     0.0239
     32 H          13.1765   -1.6802    4.7443 H         1 MOL     0.0239
@<TRIPOS>BOND
     1    1    2 1 
     2    1   16 1 
     3    1   17 1 
     4    1   18 1 
     5    2    3 1 
     6    2    4 1 
     7    2   19 1 
     8    3   20 1 
     9    3   21 1 
    10    3   22 1 
    11    4    5 1 
    12    4   23 1 
    13    4   24 1 
    14    5    6 ar
    15    5   10 ar
    16    6    7 ar
    17    6   25 1 
    18    7    8 ar
    19    7   26 1 
    20    8    9 ar
    21    8   11 1 
    22    9   10 ar
    23    9   27 1 
    24   10   28 1 
    25   11   12 1 
    26   11   13 1 
    27   11   29 1 
    28   12   30 1 
    29   12   31 1 
    30   12   32 1 
    31   13   14 ar
    32   13   15 ar
@<TRIPOS>SUBSTRUCTURE
1 MOL         1
@<TRIPOS>MOLECULE
query molecule
   32    32     1     0     0
SMALL
NO_CHARGE

@<TRIPOS>ATOM
      1 C           2.7184   -8.0850   31.3767 C.3       1 MOL     0.0072
      2 C           1.7591   -7.2129   30.5257 C.3       1 MOL    -0.0128
      3 C           2.0727   -7.3529   29.0101 C.3       1 MOL     0.0072
      4 C           0.2734   -7.5283   30.8340 C.3       1 MOL     0.0379
      5 C          -0.5718   -6.3200   30.6243 C.ar      1 MOL    -0.0471
      6 C          -0.9546   -5.5414   31.7222 C.ar      1 MOL     0.0037
      7 C          -1.7733   -4.4265   31.5364 C.ar      1 MOL     0.0044
      8 C          -2.2127   -4.0661   30.2574 C.ar      1 MOL    -0.0391
      9 C          -1.8146   -4.8447   29.1565 C.ar      1 MOL     0.0044
     10 C          -0.9991   -5.9637   29.3404 C.ar      1 MOL     0.0037
     11 C          -3.0967   -2.8890   30.0130 C.3       1 MOL     0.0614
     12 C          -4.4717   -3.1170   30.6663 C.3       1 MOL     0.0185
     13 C          -2.5028   -1.5883   30.5393 C.2       1 MOL     0.0489
     14 O          -2.2771   -1.4766   31.7768 O.co2     1 MOL    -0.5492
     15 O          -2.2990   -0.7277   29.6468 O.co2     1 MOL    -0.5492
     16 H           3.7736   -7.8020   31.1751 H         1 MOL     0.0232
     17 H           2.5858   -9.1595   31.1308 H         1 MOL     0.0232
     18 H           2.5134   -7.9400   32.4579 H         1 MOL     0.0232
     19 H           1.9432   -6.1499   30.8253 H         1 MOL     0.0299
     20 H           1.9101   -8.4011   28.6831 H         1 MOL     0.0232
     21 H           3.1226   -7.0728   28.7917 H         1 MOL     0.0232
     22 H           1.3995   -6.6950   28.4206 H         1 MOL     0.0232
     23 H           0.1534   -7.8258   31.8974 H         1 MOL     0.0316
     24 H          -0.1015   -8.3413   30.1801 H         1 MOL     0.0316
     25 H          -0.6195   -5.7999   32.7166 H         1 MOL     0.0620
     26 H          -2.0729   -3.8307   32.3877 H         1 MOL     0.0621
     27 H          -2.1392   -4.5816   28.1600 H         1 MOL     0.0621
     28 H          -0.6912   -6.5600   28.4927 H         1 MOL     0.0620
     29 H          -3.2559   -2.7779   28.9123 H         1 MOL     0.0406
     30 H          -4.3638   -3.2179   31.7665 H         1 MOL     0.0239
     31 H          -4.9479   -4.0385   30.2677 H         1 MOL     0.0239
     32 H          -5.1354   -2.2529   30.4480 H         1 MOL     0.0239
@<TRIPOS>BOND
     1    1    2 1 
     2    1   16 1 
     3    1   17 1 
     4    1   18 1 
     5    2    3 1 
     6    2    4 1 
     7    2   19 1 
     8    3   20 1 
     9    3   21 1 
    10    3   22 1 
    11    4    5 1 
    12    4   23 1 
    13    4   24 1 
    14    5    6 ar
    15    5   10 ar
    16    6    7 ar
    17    6   25 1 
    18    7    8 ar
    19    7   26 1 
    20    8    9 ar
    21    8   11 1 
    22    9   10 ar
    23    9   27 1 
    24   10   28 1 
    25   11   12 1 
    26   11   13 1 
    27   11   29 1 
    28   12   30 1 
    29   12   31 1 
    30   12   32 1 
    31   13   14 ar
    32   13   15 ar
@<TRIPOS>SUBSTRUCTURE
1 MOL         1
@<TRIPOS>MOLECULE
query molecule
   32    32     1     0     0
SMALL
NO_CHARGE

@<TRIPOS>ATOM
      1 C           4.2705   20.5658   32.2889 C.3       1 MOL     0.0072
      2 C           2.9526   21.0733   31.6447 C.3       1 MOL    -0.0128
      3 C           1.7220   20.7219   32.5225 C.3       1 MOL     0.0072
      4 C           3.0076   22.5899   31.3339 C.3       1 MOL     0.0379
      5 C           3.4227   22.8156   29.9211 C.ar      1 MOL    -0.0471
      6 C           2.4525   23.0223   28.9328 C.ar      1 MOL     0.0037
      7 C           2.8402   23.2861   27.6132 C.ar      1 MOL     0.0044
      8 C           4.1957   23.3352   27.2643 C.ar      1 MOL    -0.0391
      9 C           5.1637   23.0958   28.2568 C.ar      1 MOL     0.0044
     10 C           4.7783   22.8387   29.5764 C.ar      1 MOL     0.0037
     11 C           4.6803   23.6573   25.8838 C.3       1 MOL     0.0614
     12 C           3.9317   22.8137   24.8432 C.3       1 MOL     0.0185
     13 C           4.5171   25.1571   25.6359 C.2       1 MOL     0.0489
     14 O           5.2984   25.9006   26.2937 O.co2     1 MOL    -0.5492
     15 O           3.6430   25.5441   24.7988 O.co2     1 MOL    -0.5492
     16 H           4.2254   19.4696   32.4571 H         1 MOL     0.0232
     17 H           4.4341   21.0660   33.2682 H         1 MOL     0.0232
     18 H           5.1353   20.7916   31.6308 H         1 MOL     0.0232
     19 H           2.8192   20.5387   30.6701 H         1 MOL     0.0299
     20 H           1.7932   21.2226   33.5112 H         1 MOL     0.0232
     21 H           1.6628   19.6251   32.6849 H         1 MOL     0.0232
     22 H           0.7874   21.0566   32.0246 H         1 MOL     0.0232
     23 H           3.7271   23.1049   32.0002 H         1 MOL     0.0316
     24 H           2.0017   23.0444   31.4583 H         1 MOL     0.0316
     25 H           1.4033   22.9858   29.1925 H         1 MOL     0.0620
     26 H           2.0831   23.4560   26.8611 H         1 MOL     0.0621
     27 H           6.2125   23.1187   28.0023 H         1 MOL     0.0621
     28 H           5.5271   22.6660   30.3363 H         1 MOL     0.0620
     29 H           5.7696   23.4250   25.8175 H         1 MOL     0.0406
     30 H           2.8444   23.0309   24.8962 H         1 MOL     0.0239
     31 H           4.0839   21.7304   25.0214 H         1 MOL     0.0239
     32 H           4.2935   23.0661   23.8243 H         1 MOL     0.0239
@<TRIPOS>BOND
     1    1    2 1 
     2    1   16 1 
     3    1   17 1 
     4    1   18 1 
     5    2    3 1 
     6    2    4 1 
     7    2   19 1 
     8    3   20 1 
     9    3   21 1 
    10    3   22 1 
    11    4    5 1 
    12    4   23 1 
    13    4   24 1 
    14    5    6 ar
    15    5   10 ar
    16    6    7 ar
    17    6   25 1 
    18    7    8 ar
    19    7   26 1 
    20    8    9 ar
    21    8   11 1 
    22    9   10 ar
    23    9   27 1 
    24   10   28 1 
    25   11   12 1 
    26   11   13 1 
    27   11   29 1 
    28   12   30 1 
    29   12   31 1 
    30   12   32 1 
    31   13   14 ar
    32   13   15 ar
@<TRIPOS>SUBSTRUCTURE
1 MOL         1
@<TRIPOS>MOLECULE
query molecule
   32    32     1     0     0
SMALL
NO_CHARGE

@<TRIPOS>ATOM
      1 C          13.5400   13.1637   -4.7901 C.3       1 MOL     0.0072
      2 C          15.0902   13.1713   -4.7759 C.3       1 MOL    -0.0128
      3 C          15.6408   11.7439   -5.0233 C.3       1 MOL     0.0072
      4 C          15.7103   14.1820   -5.7764 C.3       1 MOL     0.0379
      5 C          15.8641   15.5078   -5.1208 C.ar      1 MOL    -0.0471
      6 C          14.8387   16.4513   -5.1993 C.ar      1 MOL     0.0037
      7 C          14.9716   17.6684   -4.5378 C.ar      1 MOL     0.0044
      8 C          16.1149   17.9620   -3.7829 C.ar      1 MOL    -0.0391
      9 C          17.1684   17.0325   -3.7576 C.ar      1 MOL     0.0044
     10 C          17.0389   15.8059   -4.4185 C.ar      1 MOL     0.0037
     11 C          16.2397   19.2328   -3.0011 C.3       1 MOL     0.0614
     12 C          16.3153   20.3945   -4.0092 C.3       1 MOL     0.0185
     13 C          15.0773   19.4279   -2.0182 C.2       1 MOL     0.0489
     14 O          15.4136   19.4036   -0.7979 O.co2     1 MOL    -0.5492
     15 O          13.9082   19.5828   -2.4750 O.co2     1 MOL    -0.5492
     16 H          13.1596   12.4585   -4.0225 H         1 MOL     0.0232
     17 H          13.1754   12.8313   -5.7846 H         1 MOL     0.0232
     18 H          13.1382   14.1756   -4.5812 H         1 MOL     0.0232
     19 H          15.4199   13.4763   -3.7497 H         1 MOL     0.0299
     20 H          15.3480   11.3934   -6.0352 H         1 MOL     0.0232
     21 H          15.2320   11.0422   -4.2675 H         1 MOL     0.0232
     22 H          16.7487   11.7515   -4.9510 H         1 MOL     0.0232
     23 H          15.0859   14.2969   -6.6811 H         1 MOL     0.0316
     24 H          16.7314   13.8501   -6.0644 H         1 MOL     0.0316
     25 H          13.9396   16.2360   -5.7564 H         1 MOL     0.0620
     26 H          14.1724   18.3946   -4.5881 H         1 MOL     0.0621
     27 H          18.0808   17.2589   -3.2249 H         1 MOL     0.0621
     28 H          17.8411   15.0829   -4.3832 H         1 MOL     0.0620
     29 H          17.1967   19.2223   -2.4227 H         1 MOL     0.0406
     30 H          15.3834   20.4476   -4.6093 H         1 MOL     0.0239
     31 H          17.1678   20.2308   -4.7071 H         1 MOL     0.0239
     32 H          16.4714   21.3620   -3.4911 H         1 MOL     0.0239
@<TRIPOS>BOND
     1    1    2 1 
     2    1   16 1 
     3    1   17 1 
     4    1   18 1 
     5    2    3 1 
     6    2    4 1 
     7    2   19 1 
     8    3   20 1 
     9    3   21 1 
    10    3   22 1 
    11    4    5 1 
    12    4   23 1 
    13    4   24 1 
    14    5    6 ar
    15    5   10 ar
    16    6    7 ar
    17    6   25 1 
    18    7    8 ar
    19    7   26 1 
    20    8    9 ar
    21    8   11 1 
    22    9   10 ar
    23    9   27 1 
    24   10   28 1 
    25   11   12 1 
    26   11   13 1 
    27   11   29 1 
    28   12   30 1 
    29   12   31 1 
    30   12   32 1 
    31   13   14 ar
    32   13   15 ar
@<TRIPOS>SUBSTRUCTURE
1 MOL         1
@<TRIPOS>MOLECULE
query molecule
   32    32     1     0     0
SMALL
NO_CHARGE

@<TRIPOS>ATOM
      1 C          21.9243   25.6409    7.6051 C.3       1 MOL     0.0072
      2 C          20.8284   26.6877    7.2699 C.3       1 MOL    -0.0128
      3 C          21.3780   28.1308    7.4308 C.3       1 MOL     0.0072
      4 C          20.2046   26.4815    5.8639 C.3       1 MOL     0.0379
      5 C          19.1313   25.4473    5.9105 C.ar      1 MOL    -0.0471
      6 C          17.8773   25.7480    6.4574 C.ar      1 MOL     0.0037
      7 C          16.8826   24.7665    6.5064 C.ar      1 MOL     0.0044
      8 C          17.1279   23.4738    6.0144 C.ar      1 MOL    -0.0391
      9 C          18.3750   23.1906    5.4435 C.ar      1 MOL     0.0044
     10 C          19.3706   24.1699    5.3896 C.ar      1 MOL     0.0037
     11 C          16.0377   22.4587    6.1232 C.3       1 MOL     0.0614
     12 C          15.8032   21.7651    4.7709 C.3       1 MOL     0.0185
     13 C          16.3613   21.4174    7.1932 C.2       1 MOL     0.0489
     14 O          17.3537   20.6569    7.0342 O.co2     1 MOL    -0.5492
     15 O          15.5541   21.4018    8.1661 O.co2     1 MOL    -0.5492
     16 H          22.2974   25.7937    8.6403 H         1 MOL     0.0232
     17 H          22.7823   25.7484    6.9075 H         1 MOL     0.0232
     18 H          21.5248   24.6096    7.5208 H         1 MOL     0.0232
     19 H          20.0042   26.5687    8.0191 H         1 MOL     0.0299
     20 H          22.2071   28.3104    6.7148 H         1 MOL     0.0232
     21 H          21.7604   28.2846    8.4617 H         1 MOL     0.0232
     22 H          20.5748   28.8724    7.2368 H         1 MOL     0.0232
     23 H          20.9715   26.1582    5.1331 H         1 MOL     0.0316
     24 H          19.7336   27.4258    5.5159 H         1 MOL     0.0316
     25 H          17.6734   26.7377    6.8404 H         1 MOL     0.0620
     26 H          15.9164   25.0043    6.9273 H         1 MOL     0.0621
     27 H          18.5685   22.2077    5.0380 H         1 MOL     0.0621
     28 H          20.3278   23.9430    4.9436 H         1 MOL     0.0620
     29 H          15.0868   22.9646    6.4258 H         1 MOL     0.0406
     30 H          16.7233   21.2464    4.4291 H         1 MOL     0.0239
     31 H          15.5183   22.5171    4.0039 H         1 MOL     0.0239
     32 H          14.9870   21.0163    4.8506 H         1 MOL     0.0239
@<TRIPOS>BOND
     1    1    2 1 
     2    1   16 1 
     3    1   17 1 
     4    1   18 1 
     5    2    3 1 
     6    2    4 1 
     7    2   19 1 
     8    3   20 1 
     9    3   21 1 
    10    3   22 1 
    11    4    5 1 
    12    4   23 1 
    13    4   24 1 
    14    5    6 ar
    15    5   10 ar
    16    6    7 ar
    17    6   25 1 
    18    7    8 ar
    19    7   26 1 
    20    8    9 ar
    21    8   11 1 
    22    9   10 ar
    23    9   27 1 
    24   10   28 1 
    25   11   12 1 
    26   11   13 1 
    27   11   29 1 
    28   12   30 1 
    29   12   31 1 
    30   12   32 1 
    31   13   14 ar
    32   13   15 ar
@<TRIPOS>SUBSTRUCTURE
1 MOL         1
@<TRIPOS>MOLECULE
query molecule
   32    32     1     0     0
SMALL
NO_CHARGE

@<TRIPOS>ATOM
      1 C          15.3509   -1.3074    8.7634 C.3       1 MOL     0.0072
      2 C          14.4885   -1.9808    7.6672 C.3       1 MOL    -0.0128
      3 C          14.7491   -1.3573    6.2716 C.3       1 MOL     0.0072
      4 C          14.6980   -3.5120    7.6216 C.3       1 MOL     0.0379
      5 C          13.4079   -4.2355    7.4625 C.ar      1 MOL    -0.0471
      6 C          13.1117   -5.2981    8.3263 C.ar      1 MOL     0.0037
      7 C          11.9303   -6.0268    8.1589 C.ar      1 MOL     0.0044
      8 C          11.0316   -5.6943    7.1315 C.ar      1 MOL    -0.0391
      9 C          11.3322   -4.6213    6.2883 C.ar      1 MOL     0.0044
     10 C          12.5082   -3.8939    6.4472 C.ar      1 MOL     0.0037
     11 C           9.7823   -6.5000    6.9944 C.3       1 MOL     0.0614
     12 C           8.5968   -5.5927    7.3409 C.3       1 MOL     0.0185
     13 C           9.6037   -7.1035    5.6017 C.2       1 MOL     0.0489
     14 O           9.6665   -8.3681    5.5854 O.co2     1 MOL    -0.5492
     15 O           9.4057   -6.3433    4.6098 O.co2     1 MOL    -0.5492
     16 H          15.1380   -0.2177    8.8054 H         1 MOL     0.0232
     17 H          16.4303   -1.4480    8.5466 H         1 MOL     0.0232
     18 H          15.1265   -1.7519    9.7551 H         1 MOL     0.0232
     19 H          13.4124   -1.7995    7.9167 H         1 MOL     0.0299
     20 H          15.8092   -1.5048    5.9780 H         1 MOL     0.0232
     21 H          14.5261   -0.2711    6.2833 H         1 MOL     0.0232
     22 H          14.1001   -1.8475    5.5167 H         1 MOL     0.0232
     23 H          15.1889   -3.8744    8.5469 H         1 MOL     0.0316
     24 H          15.3228   -3.7803    6.7432 H         1 MOL     0.0316
     25 H          13.7993   -5.5594    9.1177 H         1 MOL     0.0620
     26 H          11.7085   -6.8508    8.8224 H         1 MOL     0.0621
     27 H          10.6431   -4.3581    5.4983 H         1 MOL     0.0621
     28 H          12.7298   -3.0696    5.7832 H         1 MOL     0.0620
     29 H           9.8098   -7.3358    7.7378 H         1 MOL     0.0406
     30 H           8.5518   -4.7457    6.6223 H         1 MOL     0.0239
     31 H           8.7214   -5.1760    8.3635 H         1 MOL     0.0239
     32 H           7.6401   -6.1525    7.2982 H         1 MOL     0.0239
@<TRIPOS>BOND
     1    1    2 1 
     2    1   16 1 
     3    1   17 1 
     4    1   18 1 
     5    2    3 1 
     6    2    4 1 
     7    2   19 1 
     8    3   20 1 
     9    3   21 1 
    10    3   22 1 
    11    4    5 1 
    12    4   23 1 
    13    4   24 1 
    14    5    6 ar
    15    5   10 ar
    16    6    7 ar
    17    6   25 1 
    18    7    8 ar
    19    7   26 1 
    20    8    9 ar
    21    8   11 1 
    22    9   10 ar
    23    9   27 1 
    24   10   28 1 
    25   11   12 1 
    26   11   13 1 
    27   11   29 1 
    28   12   30 1 
    29   12   31 1 
    30   12   32 1 
    31   13   14 ar
    32   13   15 ar
@<TRIPOS>SUBSTRUCTURE
1 MOL         1
@<TRIPOS>MOLECULE
query molecule
   32    32     1     0     0
SMALL
NO_CHARGE

@<TRIPOS>ATOM
      1 C          15.8397   -1.0230    7.3835 C.3       1 MOL     0.0072
      2 C          14.7223   -1.9333    6.8142 C.3       1 MOL    -0.0128
      3 C          14.3742   -1.5744    5.3479 C.3       1 MOL     0.0072
      4 C          15.1017   -3.4236    6.9809 C.3       1 MOL     0.0379
      5 C          13.8899   -4.2168    7.3098 C.ar      1 MOL    -0.0471
      6 C          13.5671   -4.4400    8.6535 C.ar      1 MOL     0.0037
      7 C          12.4393   -5.1934    8.9798 C.ar      1 MOL     0.0044
      8 C          11.6276   -5.7306    7.9726 C.ar      1 MOL    -0.0391
      9 C          11.9606   -5.5047    6.6265 C.ar      1 MOL     0.0044
     10 C          13.0872   -4.7480    6.2975 C.ar      1 MOL     0.0037
     11 C          10.3983   -6.5288    8.2637 C.3       1 MOL     0.0614
     12 C          10.5592   -7.3763    9.5362 C.3       1 MOL     0.0185
     13 C           9.2107   -5.5838    8.4196 C.2       1 MOL     0.0489
     14 O           8.1548   -5.9815    7.8497 O.co2     1 MOL    -0.5492
     15 O           9.3759   -4.5141    9.0662 O.co2     1 MOL    -0.5492
     16 H          15.5479    0.0440    7.2961 H         1 MOL     0.0232
     17 H          16.7893   -1.1785    6.8315 H         1 MOL     0.0232
     18 H          16.0088   -1.2544    8.4570 H         1 MOL     0.0232
     19 H          13.8086   -1.7516    7.4359 H         1 MOL     0.0299
     20 H          15.2571   -1.7379    4.6940 H         1 MOL     0.0232
     21 H          14.0727   -0.5088    5.2737 H         1 MOL     0.0232
     22 H          13.5397   -2.2076    4.9811 H         1 MOL     0.0232
     23 H          15.8019   -3.5441    7.8359 H         1 MOL     0.0316
     24 H          15.5632   -3.8350    6.0649 H         1 MOL     0.0316
     25 H          14.1875   -4.0321    9.4374 H         1 MOL     0.0620
     26 H          12.1887   -5.3632   10.0174 H         1 MOL     0.0621
     27 H          11.3390   -5.9169    5.8451 H         1 MOL     0.0621
     28 H          13.3358   -4.5746    5.2614 H         1 MOL     0.0620
     29 H          10.1868   -7.2194    7.4118 H         1 MOL     0.0406
     30 H          10.7751   -6.7326   10.4131 H         1 MOL     0.0239
     31 H          11.4112   -8.0797    9.4080 H         1 MOL     0.0239
     32 H           9.6441   -7.9714    9.7381 H         1 MOL     0.0239
@<TRIPOS>BOND
     1    1    2 1 
     2    1   16 1 
     3    1   17 1 
     4    1   18 1 
     5    2    3 1 
     6    2    4 1 
     7    2   19 1 
     8    3   20 1 
     9    3   21 1 
    10    3   22 1 
    11    4    5 1 
    12    4   23 1 
    13    4   24 1 
    14    5    6 ar
    15    5   10 ar
    16    6    7 ar
    17    6   25 1 
    18    7    8 ar
    19    7   26 1 
    20    8    9 ar
    21    8   11 1 
    22    9   10 ar
    23    9   27 1 
    24   10   28 1 
    25   11   12 1 
    26   11   13 1 
    27   11   29 1 
    28   12   30 1 
    29   12   31 1 
    30   12   32 1 
    31   13   14 ar
    32   13   15 ar
@<TRIPOS>SUBSTRUCTURE
1 MOL         1
@<TRIPOS>MOLECULE
query molecule
   32    32     1     0     0
SMALL
NO_CHARGE

@<TRIPOS>ATOM
      1 C           4.2497   -5.2584    1.7464 C.3       1 MOL     0.0072
      2 C           3.0364   -4.3865    1.3407 C.3       1 MOL    -0.0128
      3 C           1.7255   -4.9220    1.9758 C.3       1 MOL     0.0072
      4 C           3.2374   -2.8955    1.6741 C.3       1 MOL     0.0379
      5 C           4.0339   -2.1944    0.6351 C.ar      1 MOL    -0.0471
      6 C           3.4313   -1.8100   -0.5695 C.ar      1 MOL     0.0037
      7 C           4.1619   -1.0943   -1.5256 C.ar      1 MOL     0.0044
      8 C           5.5030   -0.7564   -1.2993 C.ar      1 MOL    -0.0391
      9 C           6.0980   -1.1746   -0.0948 C.ar      1 MOL     0.0044
     10 C           5.3762   -1.8839    0.8668 C.ar      1 MOL     0.0037
     11 C           6.3401    0.0197   -2.2794 C.3       1 MOL     0.0614
     12 C           6.0213   -0.3959   -3.7325 C.3       1 MOL     0.0185
     13 C           6.1314    1.5351   -2.1225 C.2       1 MOL     0.0489
     14 O           6.9966    2.1847   -1.4479 O.co2     1 MOL    -0.5492
     15 O           5.0783    2.0068   -2.6438 O.co2     1 MOL    -0.5492
     16 H           4.0788   -6.3170    1.4620 H         1 MOL     0.0232
     17 H           4.3897   -5.2119    2.8486 H         1 MOL     0.0232
     18 H           5.1768   -4.8963    1.2586 H         1 MOL     0.0232
     19 H           2.9159   -4.4681    0.2306 H         1 MOL     0.0299
     20 H           1.7702   -4.8585    3.0825 H         1 MOL     0.0232
     21 H           1.5668   -5.9832    1.6884 H         1 MOL     0.0232
     22 H           0.8546   -4.3310    1.6206 H         1 MOL     0.0232
     23 H           3.7299   -2.7602    2.6552 H         1 MOL     0.0316
     24 H           2.2455   -2.3895    1.6937 H         1 MOL     0.0316
     25 H           2.3970   -2.0574   -0.7602 H         1 MOL     0.0620
     26 H           3.6872   -0.8005   -2.4515 H         1 MOL     0.0621
     27 H           7.1381   -0.9416    0.0859 H         1 MOL     0.0621
     28 H           5.8551   -2.1878    1.7860 H         1 MOL     0.0620
     29 H           7.4200   -0.1991   -2.0838 H         1 MOL     0.0406
     30 H           4.9632   -0.1614   -3.9827 H         1 MOL     0.0239
     31 H           6.1800   -1.4855   -3.8775 H         1 MOL     0.0239
     32 H           6.6771    0.1535   -4.4407 H         1 MOL     0.0239
@<TRIPOS>BOND
     1    1    2 1 
     2    1   16 1 
     3    1   17 1 
     4    1   18 1 
     5    2    3 1 
     6    2    4 1 
     7    2   19 1 
     8    3   20 1 
     9    3   21 1 
    10    3   22 1 
    11    4    5 1 
    12    4   23 1 
    13    4   24 1 
    14    5    6 ar
    15    5   10 ar
    16    6    7 ar
    17    6   25 1 
    18    7    8 ar
    19    7   26 1 
    20    8    9 ar
    21    8   11 1 
    22    9   10 ar
    23    9   27 1 
    24   10   28 1 
    25   11   12 1 
    26   11   13 1 
    27   11   29 1 
    28   12   30 1 
    29   12   31 1 
    30   12   32 1 
    31   13   14 ar
    32   13   15 ar
@<TRIPOS>SUBSTRUCTURE
1 MOL         1
@<TRIPOS>MOLECULE
query molecule
   32    32     1     0     0
SMALL
NO_CHARGE

@<TRIPOS>ATOM
      1 C           1.1201   -2.6937    0.3228 C.3       1 MOL     0.0072
      2 C           2.6151   -2.7189    0.7294 C.3       1 MOL    -0.0128
      3 C           2.8458   -3.5253    2.0291 C.3       1 MOL     0.0072
      4 C           3.5029   -3.2415   -0.4204 C.3       1 MOL     0.0379
      5 C           4.2968   -2.1177   -0.9833 C.ar      1 MOL    -0.0471
      6 C           3.8605   -1.5019   -2.1624 C.ar      1 MOL     0.0037
      7 C           4.6189   -0.4846   -2.7468 C.ar      1 MOL     0.0044
      8 C           5.8262   -0.0758   -2.1673 C.ar      1 MOL    -0.0391
      9 C           6.2205   -0.6679   -0.9537 C.ar      1 MOL     0.0044
     10 C           5.4718   -1.6868   -0.3653 C.ar      1 MOL     0.0037
     11 C           6.7424    0.9316   -2.7951 C.3       1 MOL     0.0614
     12 C           6.8002    0.7449   -4.3237 C.3       1 MOL     0.0185
     13 C           6.3375    2.3576   -2.4626 C.2       1 MOL     0.0489
     14 O           5.2162    2.7633   -2.8823 O.co2     1 MOL    -0.5492
     15 O           7.1634    3.0115   -1.7538 O.co2     1 MOL    -0.5492
     16 H           0.5063   -2.2686    1.1435 H         1 MOL     0.0232
     17 H           0.7628   -3.7228    0.1066 H         1 MOL     0.0232
     18 H           0.9813   -2.0712   -0.5856 H         1 MOL     0.0232
     19 H           2.9204   -1.6598    0.9288 H         1 MOL     0.0299
     20 H           2.5585   -4.5872    1.8795 H         1 MOL     0.0232
     21 H           2.2319   -3.1057    2.8544 H         1 MOL     0.0232
     22 H           3.9144   -3.4848    2.3265 H         1 MOL     0.0232
     23 H           2.8759   -3.6500   -1.2397 H         1 MOL     0.0316
     24 H           4.2026   -4.0225   -0.0637 H         1 MOL     0.0316
     25 H           2.9384   -1.8241   -2.6243 H         1 MOL     0.0620
     26 H           4.2763   -0.0238   -3.6624 H         1 MOL     0.0621
     27 H           7.1351   -0.3385   -0.4782 H         1 MOL     0.0621
     28 H           5.8050   -2.1433    0.5539 H         1 MOL     0.0620
     29 H           7.7757    0.7759   -2.3910 H         1 MOL     0.0406
     30 H           5.7882    0.8315   -4.7710 H         1 MOL     0.0239
     31 H           7.2042   -0.2609   -4.5718 H         1 MOL     0.0239
     32 H           7.4601    1.5088   -4.7847 H         1 MOL     0.0239
@<TRIPOS>BOND
     1    1    2 1 
     2    1   16 1 
     3    1   17 1 
     4    1   18 1 
     5    2    3 1 
     6    2    4 1 
     7    2   19 1 
     8    3   20 1 
     9    3   21 1 
    10    3   22 1 
    11    4    5 1 
    12    4   23 1 
    13    4   24 1 
    14    5    6 ar
    15    5   10 ar
    16    6    7 ar
    17    6   25 1 
    18    7    8 ar
    19    7   26 1 
    20    8    9 ar
    21    8   11 1 
    22    9   10 ar
    23    9   27 1 
    24   10   28 1 
    25   11   12 1 
    26   11   13 1 
    27   11   29 1 
    28   12   30 1 
    29   12   31 1 
    30   12   32 1 
    31   13   14 ar
    32   13   15 ar
@<TRIPOS>SUBSTRUCTURE
1 MOL         1
@<TRIPOS>MOLECULE
query molecule
   32    32     1     0     0
SMALL
NO_CHARGE

@<TRIPOS>ATOM
      1 C           0.0908   16.6445   -2.6561 C.3       1 MOL     0.0072
      2 C           0.9520   15.6921   -1.7859 C.3       1 MOL    -0.0128
      3 C           2.4243   16.1762   -1.7118 C.3       1 MOL     0.0072
      4 C           0.3345   15.4937   -0.3797 C.3       1 MOL     0.0379
      5 C          -0.3523   14.1770   -0.2601 C.ar      1 MOL    -0.0471
      6 C           0.0356   13.3288    0.7849 C.ar      1 MOL     0.0037
      7 C          -0.5376   12.0717    0.9374 C.ar      1 MOL     0.0044
      8 C          -1.5404   11.6438    0.0614 C.ar      1 MOL    -0.0391
      9 C          -1.9477   12.5007   -0.9762 C.ar      1 MOL     0.0044
     10 C          -1.3542   13.7589   -1.1381 C.ar      1 MOL     0.0037
     11 C          -2.1940   10.3064    0.1873 C.3       1 MOL     0.0614
     12 C          -1.2005    9.2150   -0.2522 C.3       1 MOL     0.0185
     13 C          -2.6261   10.0145    1.6183 C.2       1 MOL     0.0489
     14 O          -3.8778    9.9755    1.7996 O.co2     1 MOL    -0.5492
     15 O          -1.7193    9.8069    2.4735 O.co2     1 MOL    -0.5492
     16 H           0.5294   16.7444   -3.6710 H         1 MOL     0.0232
     17 H           0.0419   17.6512   -2.1904 H         1 MOL     0.0232
     18 H          -0.9422   16.2493   -2.7533 H         1 MOL     0.0232
     19 H           0.9666   14.6915   -2.2895 H         1 MOL     0.0299
     20 H           2.4809   17.1651   -1.2107 H         1 MOL     0.0232
     21 H           2.8477   16.2735   -2.7340 H         1 MOL     0.0232
     22 H           3.0433   15.4528   -1.1412 H         1 MOL     0.0232
     23 H          -0.3912   16.2957   -0.1444 H         1 MOL     0.0316
     24 H           1.1467   15.4976    0.3816 H         1 MOL     0.0316
     25 H           0.7957   13.6524    1.4776 H         1 MOL     0.0620
     26 H          -0.2071   11.4233    1.7359 H         1 MOL     0.0621
     27 H          -2.7245   12.1855   -1.6582 H         1 MOL     0.0621
     28 H          -1.6695   14.4063   -1.9442 H         1 MOL     0.0620
     29 H          -3.0923   10.2579   -0.4733 H         1 MOL     0.0406
     30 H          -0.2786    9.2649    0.3652 H         1 MOL     0.0239
     31 H          -0.9265    9.3524   -1.3175 H         1 MOL     0.0239
     32 H          -1.6562    8.2109   -0.1231 H         1 MOL     0.0239
@<TRIPOS>BOND
     1    1    2 1 
     2    1   16 1 
     3    1   17 1 
     4    1   18 1 
     5    2    3 1 
     6    2    4 1 
     7    2   19 1 
     8    3   20 1 
     9    3   21 1 
    10    3   22 1 
    11    4    5 1 
    12    4   23 1 
    13    4   24 1 
    14    5    6 ar
    15    5   10 ar
    16    6    7 ar
    17    6   25 1 
    18    7    8 ar
    19    7   26 1 
    20    8    9 ar
    21    8   11 1 
    22    9   10 ar
    23    9   27 1 
    24   10   28 1 
    25   11   12 1 
    26   11   13 1 
    27   11   29 1 
    28   12   30 1 
    29   12   31 1 
    30   12   32 1 
    31   13   14 ar
    32   13   15 ar
@<TRIPOS>SUBSTRUCTURE
1 MOL         1
@<TRIPOS>MOLECULE
query molecule
   32    32     1     0     0
SMALL
NO_CHARGE

@<TRIPOS>ATOM
      1 C           4.2441   13.1322   -3.3927 C.3       1 MOL     0.0072
      2 C           4.2973   11.7747   -4.1381 C.3       1 MOL    -0.0128
      3 C           2.8840   11.3267   -4.5982 C.3       1 MOL     0.0072
      4 C           5.2998   11.8089   -5.3207 C.3       1 MOL     0.0379
      5 C           6.2173   10.6375   -5.2343 C.ar      1 MOL    -0.0471
      6 C           7.5140   10.8056   -4.7370 C.ar      1 MOL     0.0037
      7 C           8.3695    9.7072   -4.6260 C.ar      1 MOL     0.0044
      8 C           7.9431    8.4272   -5.0138 C.ar      1 MOL    -0.0391
      9 C           6.6527    8.2709   -5.5458 C.ar      1 MOL     0.0044
     10 C           5.7976    9.3702   -5.6521 C.ar      1 MOL     0.0037
     11 C           8.8021    7.2063   -4.8691 C.3       1 MOL     0.0614
     12 C          10.2545    7.5172   -5.2928 C.3       1 MOL     0.0185
     13 C           8.8122    6.7111   -3.4195 C.2       1 MOL     0.0489
     14 O           9.3528    5.5732   -3.2496 O.co2     1 MOL    -0.5492
     15 O           8.3446    7.4480   -2.4999 O.co2     1 MOL    -0.5492
     16 H           3.5474   13.0624   -2.5300 H         1 MOL     0.0232
     17 H           3.8871   13.9362   -4.0689 H         1 MOL     0.0232
     18 H           5.2504   13.4032   -3.0115 H         1 MOL     0.0232
     19 H           4.6701   11.0119   -3.4075 H         1 MOL     0.0299
     20 H           2.4734   12.0473   -5.3377 H         1 MOL     0.0232
     21 H           2.1891   11.2757   -3.7344 H         1 MOL     0.0232
     22 H           2.9304   10.3258   -5.0764 H         1 MOL     0.0232
     23 H           5.9224   12.7258   -5.2801 H         1 MOL     0.0316
     24 H           4.7652   11.7681   -6.2908 H         1 MOL     0.0316
     25 H           7.8544   11.7860   -4.4373 H         1 MOL     0.0620
     26 H           9.3686    9.8429   -4.2366 H         1 MOL     0.0621
     27 H           6.3170    7.2969   -5.8734 H         1 MOL     0.0621
     28 H           4.8066    9.2428   -6.0607 H         1 MOL     0.0620
     29 H           8.4091    6.3777   -5.5111 H         1 MOL     0.0406
     30 H          10.6757    8.3336   -4.6681 H         1 MOL     0.0239
     31 H          10.2762    7.8419   -6.3553 H         1 MOL     0.0239
     32 H          10.9041    6.6229   -5.1860 H         1 MOL     0.0239
@<TRIPOS>BOND
     1    1    2 1 
     2    1   16 1 
     3    1   17 1 
     4    1   18 1 
     5    2    3 1 
     6    2    4 1 
     7    2   19 1 
     8    3   20 1 
     9    3   21 1 
    10    3   22 1 
    11    4    5 1 
    12    4   23 1 
    13    4   24 1 
    14    5    6 ar
    15    5   10 ar
    16    6    7 ar
    17    6   25 1 
    18    7    8 ar
    19    7   26 1 
    20    8    9 ar
    21    8   11 1 
    22    9   10 ar
    23    9   27 1 
    24   10   28 1 
    25   11   12 1 
    26   11   13 1 
    27   11   29 1 
    28   12   30 1 
    29   12   31 1 
    30   12   32 1 
    31   13   14 ar
    32   13   15 ar
@<TRIPOS>SUBSTRUCTURE
1 MOL         1
@<TRIPOS>MOLECULE
query molecule
   32    32     1     0     0
SMALL
NO_CHARGE

@<TRIPOS>ATOM
      1 C          11.5958   -5.5571    7.9520 C.3       1 MOL     0.0072
      2 C          12.5472   -4.7778    7.0016 C.3       1 MOL    -0.0128
      3 C          12.3849   -5.2649    5.5370 C.3       1 MOL     0.0072
      4 C          12.3397   -3.2535    7.1576 C.3       1 MOL     0.0379
      5 C          13.6250   -2.5142    7.2211 C.ar      1 MOL    -0.0471
      6 C          14.2600   -2.0964    6.0491 C.ar      1 MOL     0.0037
      7 C          15.4570   -1.3920    6.1268 C.ar      1 MOL     0.0044
      8 C          16.0335   -1.0895    7.3697 C.ar      1 MOL    -0.0391
      9 C          15.3911   -1.5087    8.5400 C.ar      1 MOL     0.0044
     10 C          14.1937   -2.2213    8.4670 C.ar      1 MOL     0.0037
     11 C          17.3178   -0.3283    7.3835 C.3       1 MOL     0.0614
     12 C          17.2659    0.8315    8.3902 C.3       1 MOL     0.0185
     13 C          18.4726   -1.2662    7.7202 C.2       1 MOL     0.0489
     14 O          18.5553   -1.7115    8.8990 O.co2     1 MOL    -0.5492
     15 O          19.2448   -1.5110    6.7516 O.co2     1 MOL    -0.5492
     16 H          11.7823   -6.6492    7.8754 H         1 MOL     0.0232
     17 H          10.5370   -5.3594    7.6840 H         1 MOL     0.0232
     18 H          11.7595   -5.2448    9.0050 H         1 MOL     0.0232
     19 H          13.5961   -5.0071    7.3187 H         1 MOL     0.0299
     20 H          11.3487   -5.0790    5.1822 H         1 MOL     0.0232
     21 H          12.5932   -6.3544    5.4621 H         1 MOL     0.0232
     22 H          13.0889   -4.7255    4.8710 H         1 MOL     0.0232
     23 H          11.8127   -3.0532    8.1189 H         1 MOL     0.0316
     24 H          11.7397   -2.8405    6.3239 H         1 MOL     0.0316
     25 H          13.8242   -2.3236    5.0891 H         1 MOL     0.0620
     26 H          15.9572   -1.0803    5.2141 H         1 MOL     0.0621
     27 H          15.8232   -1.2799    9.5036 H         1 MOL     0.0621
     28 H          13.7051   -2.5457    9.3743 H         1 MOL     0.0620
     29 H          17.5018    0.0881    6.3626 H         1 MOL     0.0406
     30 H          17.0747    0.4454    9.4136 H         1 MOL     0.0239
     31 H          16.4464    1.5316    8.1203 H         1 MOL     0.0239
     32 H          18.2234    1.3914    8.3927 H         1 MOL     0.0239
@<TRIPOS>BOND
     1    1    2 1 
     2    1   16 1 
     3    1   17 1 
     4    1   18 1 
     5    2    3 1 
     6    2    4 1 
     7    2   19 1 
     8    3   20 1 
     9    3   21 1 
    10    3   22 1 
    11    4    5 1 
    12    4   23 1 
    13    4   24 1 
    14    5    6 ar
    15    5   10 ar
    16    6    7 ar
    17    6   25 1 
    18    7    8 ar
    19    7   26 1 
    20    8    9 ar
    21    8   11 1 
    22    9   10 ar
    23    9   27 1 
    24   10   28 1 
    25   11   12 1 
    26   11   13 1 
    27   11   29 1 
    28   12   30 1 
    29   12   31 1 
    30   12   32 1 
    31   13   14 ar
    32   13   15 ar
@<TRIPOS>SUBSTRUCTURE
1 MOL         1
@<TRIPOS>MOLECULE
query molecule
   32    32     1     0     0
SMALL
NO_CHARGE

@<TRIPOS>ATOM
      1 C           2.2934   21.8424   24.0371 C.3       1 MOL     0.0072
      2 C           2.1884   22.9855   25.0796 C.3       1 MOL    -0.0128
      3 C           3.3538   23.9913   24.8781 C.3       1 MOL     0.0072
      4 C           0.8186   23.7124   25.0866 C.3       1 MOL     0.0379
      5 C          -0.2943   22.8100   25.4992 C.ar      1 MOL    -0.0471
      6 C          -1.1336   22.2644   24.5207 C.ar      1 MOL     0.0037
      7 C          -2.1677   21.3950   24.8814 C.ar      1 MOL     0.0044
      8 C          -2.3954   21.0698   26.2252 C.ar      1 MOL    -0.0391
      9 C          -1.5640   21.6426   27.2058 C.ar      1 MOL     0.0044
     10 C          -0.5229   22.5069   26.8460 C.ar      1 MOL     0.0037
     11 C          -3.4845   20.1434   26.6745 C.3       1 MOL     0.0614
     12 C          -4.5152   19.8853   25.5618 C.3       1 MOL     0.0185
     13 C          -2.9163   18.7986   27.1311 C.2       1 MOL     0.0489
     14 O          -2.0720   18.2307   26.3749 O.co2     1 MOL    -0.5492
     15 O          -3.3420   18.3836   28.2451 O.co2     1 MOL    -0.5492
     16 H           3.2865   21.3516   24.1115 H         1 MOL     0.0232
     17 H           2.1724   22.2425   23.0097 H         1 MOL     0.0232
     18 H           1.5052   21.0803   24.2192 H         1 MOL     0.0232
     19 H           2.3207   22.5289   26.0939 H         1 MOL     0.0299
     20 H           3.2760   24.4703   23.8790 H         1 MOL     0.0232
     21 H           4.3296   23.4659   24.9415 H         1 MOL     0.0232
     22 H           3.3244   24.7831   25.6552 H         1 MOL     0.0232
     23 H           0.5826   24.1131   24.0798 H         1 MOL     0.0316
     24 H           0.8428   24.5551   25.8121 H         1 MOL     0.0316
     25 H          -0.9764   22.5127   23.4810 H         1 MOL     0.0620
     26 H          -2.7970   20.9704   24.1115 H         1 MOL     0.0621
     27 H          -1.7321   21.4132   28.2490 H         1 MOL     0.0621
     28 H           0.1037   22.9422   27.6112 H         1 MOL     0.0620
     29 H          -4.0226   20.5988   27.5427 H         1 MOL     0.0406
     30 H          -4.0251   19.4277   24.6778 H         1 MOL     0.0239
     31 H          -4.9853   20.8437   25.2554 H         1 MOL     0.0239
     32 H          -5.3089   19.1989   25.9245 H         1 MOL     0.0239
@<TRIPOS>BOND
     1    1    2 1 
     2    1   16 1 
     3    1   17 1 
     4    1   18 1 
     5    2    3 1 
     6    2    4 1 
     7    2   19 1 
     8    3   20 1 
     9    3   21 1 
    10    3   22 1 
    11    4    5 1 
    12    4   23 1 
    13    4   24 1 
    14    5    6 ar
    15    5   10 ar
    16    6    7 ar
    17    6   25 1 
    18    7    8 ar
    19    7   26 1 
    20    8    9 ar
    21    8   11 1 
    22    9   10 ar
    23    9   27 1 
    24   10   28 1 
    25   11   12 1 
    26   11   13 1 
    27   11   29 1 
    28   12   30 1 
    29   12   31 1 
    30   12   32 1 
    31   13   14 ar
    32   13   15 ar
@<TRIPOS>SUBSTRUCTURE
1 MOL         1
@<TRIPOS>MOLECULE
query molecule
   32    32     1     0     0
SMALL
NO_CHARGE

@<TRIPOS>ATOM
      1 C           5.9388   -1.1985   -1.1560 C.3       1 MOL     0.0072
      2 C           5.7935   -2.2906   -0.0666 C.3       1 MOL    -0.0128
      3 C           7.1746   -2.6964    0.5040 C.3       1 MOL     0.0072
      4 C           4.8164   -1.8478    1.0452 C.3       1 MOL     0.0379
      5 C           3.5183   -2.5601    0.9021 C.ar      1 MOL    -0.0471
      6 C           3.2278   -3.6774    1.6910 C.ar      1 MOL     0.0037
      7 C           1.9967   -4.3272    1.5551 C.ar      1 MOL     0.0044
      8 C           1.0484   -3.8666    0.6333 C.ar      1 MOL    -0.0391
      9 C           1.3461   -2.7428   -0.1533 C.ar      1 MOL     0.0044
     10 C           2.5732   -2.0958   -0.0190 C.ar      1 MOL     0.0037
     11 C          -0.2931   -4.4960    0.4399 C.3       1 MOL     0.0614
     12 C          -0.2040   -6.0246    0.2889 C.3       1 MOL     0.0185
     13 C          -1.1809   -4.1583    1.6295 C.2       1 MOL     0.0489
     14 O          -2.2744   -3.5893    1.3483 O.co2     1 MOL    -0.5492
     15 O          -0.7559   -4.4697    2.7766 O.co2     1 MOL    -0.5492
     16 H           6.6179   -1.5459   -1.9624 H         1 MOL     0.0232
     17 H           6.3601   -0.2698   -0.7170 H         1 MOL     0.0232
     18 H           4.9501   -0.9626   -1.6004 H         1 MOL     0.0232
     19 H           5.3613   -3.2005   -0.5544 H         1 MOL     0.0299
     20 H           7.6572   -1.8340    1.0016 H         1 MOL     0.0232
     21 H           7.8387   -3.0428   -0.3233 H         1 MOL     0.0232
     22 H           7.0687   -3.5181    1.2357 H         1 MOL     0.0232
     23 H           4.6159   -0.7576    0.9621 H         1 MOL     0.0316
     24 H           5.2213   -2.0752    2.0518 H         1 MOL     0.0316
     25 H           3.9503   -4.0388    2.4076 H         1 MOL     0.0620
     26 H           1.7732   -5.1876    2.1698 H         1 MOL     0.0621
     27 H           0.6172   -2.3758   -0.8607 H         1 MOL     0.0621
     28 H           2.7932   -1.2298   -0.6243 H         1 MOL     0.0620
     29 H          -0.7786   -4.0810   -0.4775 H         1 MOL     0.0406
     30 H           0.2594   -6.4840    1.1881 H         1 MOL     0.0239
     31 H           0.4013   -6.2971   -0.6003 H         1 MOL     0.0239
     32 H          -1.2207   -6.4564    0.1616 H         1 MOL     0.0239
@<TRIPOS>BOND
     1    1    2 1 
     2    1   16 1 
     3    1   17 1 
     4    1   18 1 
     5    2    3 1 
     6    2    4 1 
     7    2   19 1 
     8    3   20 1 
     9    3   21 1 
    10    3   22 1 
    11    4    5 1 
    12    4   23 1 
    13    4   24 1 
    14    5    6 ar
    15    5   10 ar
    16    6    7 ar
    17    6   25 1 
    18    7    8 ar
    19    7   26 1 
    20    8    9 ar
    21    8   11 1 
    22    9   10 ar
    23    9   27 1 
    24   10   28 1 
    25   11   12 1 
    26   11   13 1 
    27   11   29 1 
    28   12   30 1 
    29   12   31 1 
    30   12   32 1 
    31   13   14 ar
    32   13   15 ar
@<TRIPOS>SUBSTRUCTURE
1 MOL         1
@<TRIPOS>MOLECULE
query molecule
   32    32     1     0     0
SMALL
NO_CHARGE

@<TRIPOS>ATOM
      1 C          16.0453   21.8334   -5.4419 C.3       1 MOL     0.0072
      2 C          14.5174   21.9880   -5.6697 C.3       1 MOL    -0.0128
      3 C          13.8169   20.6073   -5.7377 C.3       1 MOL     0.0072
      4 C          13.9012   22.9154   -4.5953 C.3       1 MOL     0.0379
      5 C          12.7769   23.7052   -5.1556 C.ar      1 MOL    -0.0471
      6 C          11.4500   23.3178   -4.8870 C.ar      1 MOL     0.0037
      7 C          10.3891   24.0806   -5.3775 C.ar      1 MOL     0.0044
      8 C          10.6371   25.2339   -6.1383 C.ar      1 MOL    -0.0391
      9 C          11.9594   25.6013   -6.4161 C.ar      1 MOL     0.0044
     10 C          13.0226   24.8390   -5.9286 C.ar      1 MOL     0.0037
     11 C           9.4601   26.0188   -6.6119 C.3       1 MOL     0.0614
     12 C           9.5883   27.4843   -6.1710 C.3       1 MOL     0.0185
     13 C           9.3090   25.9022   -8.1192 C.2       1 MOL     0.0489
     14 O           8.1536   25.5267   -8.4741 O.co2     1 MOL    -0.5492
     15 O          10.2984   26.1422   -8.8749 O.co2     1 MOL    -0.5492
     16 H          16.4969   21.2144   -6.2446 H         1 MOL     0.0232
     17 H          16.2443   21.3494   -4.4630 H         1 MOL     0.0232
     18 H          16.5341   22.8313   -5.4472 H         1 MOL     0.0232
     19 H          14.3864   22.4904   -6.6620 H         1 MOL     0.0299
     20 H          13.9465   20.0666   -4.7760 H         1 MOL     0.0232
     21 H          14.2570   19.9914   -6.5499 H         1 MOL     0.0232
     22 H          12.7315   20.7308   -5.9314 H         1 MOL     0.0232
     23 H          14.6636   23.6541   -4.2601 H         1 MOL     0.0316
     24 H          13.5398   22.3395   -3.7233 H         1 MOL     0.0316
     25 H          11.2518   22.4364   -4.2984 H         1 MOL     0.0620
     26 H           9.3698   23.7882   -5.1699 H         1 MOL     0.0621
     27 H          12.1593   26.4828   -7.0090 H         1 MOL     0.0621
     28 H          14.0402   25.1337   -6.1456 H         1 MOL     0.0620
     29 H           8.5278   25.6060   -6.1491 H         1 MOL     0.0406
     30 H          10.4960   27.9559   -6.5990 H         1 MOL     0.0239
     31 H           9.6619   27.5273   -5.0610 H         1 MOL     0.0239
     32 H           8.6990   28.0708   -6.4824 H         1 MOL     0.0239
@<TRIPOS>BOND
     1    1    2 1 
     2    1   16 1 
     3    1   17 1 
     4    1   18 1 
     5    2    3 1 
     6    2    4 1 
     7    2   19 1 
     8    3   20 1 
     9    3   21 1 
    10    3   22 1 
    11    4    5 1 
    12    4   23 1 
    13    4   24 1 
    14    5    6 ar
    15    5   10 ar
    16    6    7 ar
    17    6   25 1 
    18    7    8 ar
    19    7   26 1 
    20    8    9 ar
    21    8   11 1 
    22    9   10 ar
    23    9   27 1 
    24   10   28 1 
    25   11   12 1 
    26   11   13 1 
    27   11   29 1 
    28   12   30 1 
    29   12   31 1 
    30   12   32 1 
    31   13   14 ar
    32   13   15 ar
@<TRIPOS>SUBSTRUCTURE
1 MOL         1
