@<TRIPOS>MOLECULE
ibuprofen_entry_00001_conf_39
32 32 1
SMALL
NO_CHARGES


@<TRIPOS>ATOM
      1 C         -13.2038  -57.7826    2.1029 C.3       1 UNL1        0.0000
      2 C         -13.7547  -58.6968    1.0490 C.3       1 UNL1        0.0000
      3 C         -15.0790  -58.2055    0.5578 C.3       1 UNL1        0.0000
      4 C         -12.7724  -58.7917   -0.0849 C.3       1 UNL1        0.0000
      5 C         -13.2952  -59.6484   -1.1771 C.ar      1 UNL1        0.0000
      6 C         -13.2995  -61.0123   -0.9985 C.ar      1 UNL1        0.0000
      7 C         -13.7711  -61.8399   -1.9770 C.ar      1 UNL1        0.0000
      8 C         -14.2496  -61.3247   -3.1569 C.ar      1 UNL1        0.0000
      9 C         -14.2508  -59.9651   -3.3462 C.ar      1 UNL1        0.0000
     10 C         -13.7738  -59.1318   -2.3570 C.ar      1 UNL1        0.0000
     11 C         -14.7639  -62.1944   -4.2283 C.3       1 UNL1        0.0000
     12 C         -14.6766  -61.4507   -5.5608 C.3       1 UNL1        0.0000
     13 C         -13.9009  -63.4116   -4.2615 C.2       1 UNL1        0.0000
     14 O         -13.1551  -63.6365   -5.2257 O.co2     1 UNL1       -0.5000
     15 O         -13.9475  -64.2772   -3.2063 O.co2     1 UNL1       -0.5000
     16 H         -13.9006  -57.7118    2.9127 H         1 UNL1        0.0000
     17 H         -13.0437  -56.8110    1.6844 H         1 UNL1        0.0000
     18 H         -12.2759  -58.1735    2.4637 H         1 UNL1        0.0000
     19 H         -13.9053  -59.6682    1.4703 H         1 UNL1        0.0000
     20 H         -14.9611  -57.2321    0.1290 H         1 UNL1        0.0000
     21 H         -15.7657  -58.1532    1.3765 H         1 UNL1        0.0000
     22 H         -15.4574  -58.8781   -0.1832 H         1 UNL1        0.0000
     23 H         -11.8577  -59.2098    0.2795 H         1 UNL1        0.0000
     24 H         -12.6089  -57.8086   -0.4742 H         1 UNL1        0.0000
     25 H         -12.9424  -61.4139   -0.1173 H         1 UNL1        0.0000
     26 H         -13.7676  -62.8615   -1.8282 H         1 UNL1        0.0000
     27 H         -14.6087  -59.5663   -4.2284 H         1 UNL1        0.0000
     28 H         -13.7758  -58.1102   -2.5031 H         1 UNL1        0.0000
     29 H         -15.7844  -62.4663   -4.0554 H         1 UNL1        0.0000
     30 H         -13.6604  -61.1717   -5.7473 H         1 UNL1        0.0000
     31 H         -15.2855  -60.5715   -5.5180 H         1 UNL1        0.0000
     32 H         -15.0232  -62.0871   -6.3475 H         1 UNL1        0.0000
@<TRIPOS>BOND
     1    1   17 1
     2    1    2 1
     3    1   16 1
     4    1   18 1
     5    2   19 1
     6    2    3 1
     7    2    4 1
     8    3   21 1
     9    3   22 1
    10    3   20 1
    11    4    5 1
    12    4   24 1
    13    4   23 1
    14    5    6 ar
    15    5   10 ar
    16    6    7 ar
    17    6   25 1
    18    7   26 1
    19    7    8 ar
    20    8    9 ar
    21    8   11 1
    22    9   10 ar
    23    9   27 1
    24   10   28 1
    25   11   29 1
    26   11   12 1
    27   11   13 1
    28   12   30 1
    29   12   31 1
    30   12   32 1
    31   13   15 ar
    32   13   14 ar
@<TRIPOS>SUBSTRUCTURE
1 UNL1 1
@<TRIPOS>COMMENT
ibuprofen
PLANTSproteinTorsions
102
4661 54.0321
5386 240.8432
6210 126.7394
5890 241.9389
4461 80.5652
1390 235.8752
2824 95.0949
4339 89.8162
2732 231.3279
4792 228.7496
3407 220.2777
5134 82.7607
6916 78.8288
7370 238.7690
6038 184.9658
7225 142.6853
3592 254.2613
2064 190.5684
2488 149.3792
1253 141.0709
2069 187.2948
2569 84.5928
3058 78.7719
1748 11.4545
1162 136.2744
1509 135.4934
560 175.0057
1627 93.8103
1941 189.9558
3631 78.6280
2381 177.5222
4221 297.6290
4687 92.8333
6983 13.9386
6668 21.5591
7305 54.8531
8693 245.5656
8404 0.0044
9055 248.7315
7052 75.5972
4708 89.1266
2652 267.0476
4332 56.4877
3011 153.9409
2257 28.1547
2778 31.7338
2057 40.9085
192 245.9957
315 214.5582
1085 90.9926
1007 17.7964
1407 185.4058
4816 233.1141
3131 49.5283
4654 303.5190
5144 226.6007
117 268.8294
6 106.7338
259 2.9146
1979 80.8864
2609 107.7376
2623 172.3506
5910 59.6450
5937 296.0602
2062 112.2177
890 334.6792
5008 261.6396
8602 280.5614
8478 44.9215
8300 86.5531
7721 171.4921
8466 162.3337
7852 77.4539
5849 116.5100
6302 260.9379
7439 198.6635
6284 231.1422
6003 154.9268
7165 206.5833
7623 254.2860
8158 246.3026
8667 78.3576
9078 281.3924
8684 199.3068
7666 40.7268
4231 86.8577
1659 202.6341
489 177.0158
238 130.3098
46 240.6346
83 6.3936
254 231.0719
1066 239.5350
2112 145.4024
4047 95.4576
5402 30.0638
2544 221.0394
4670 2.8651
4426 141.4609
5656 103.0105
7040 65.4024
6282 258.2860
PLANTSmolcadARTstart hb
PLANTSmolcadARTstart HB
LINES
PLANTSmolcadARTstart HBCH
LINES
PLANTSmolcadARTstart HB-CHO
LINES
PLANTSmolcadARTend
PLANTSmolcadARTstart HB_WATER
LINES
PLANTSmolcadARTend

PLANTSmolcadARTend

