@<TRIPOS>MOLECULE
ibuprofen_entry_00001_conf_16
32 32 1
SMALL
NO_CHARGES


@<TRIPOS>ATOM
      1 C         -12.8194  -53.3436    3.7227 C.3       1 UNL1        0.0000
      2 C         -13.3298  -54.5268    2.9550 C.3       1 UNL1        0.0000
      3 C         -13.6007  -54.1603    1.5306 C.3       1 UNL1        0.0000
      4 C         -12.3205  -55.6381    3.0320 C.3       1 UNL1        0.0000
      5 C         -12.7729  -56.8274    2.2698 C.ar      1 UNL1        0.0000
      6 C         -14.1220  -57.0843    2.1915 C.ar      1 UNL1        0.0000
      7 C         -14.5842  -58.1678    1.5008 C.ar      1 UNL1        0.0000
      8 C         -13.7099  -59.0203    0.8720 C.ar      1 UNL1        0.0000
      9 C         -12.3613  -58.7736    0.9428 C.ar      1 UNL1        0.0000
     10 C         -11.8973  -57.6793    1.6410 C.ar      1 UNL1        0.0000
     11 C         -14.1814  -60.1957    0.1206 C.3       1 UNL1        0.0000
     12 C         -13.5065  -60.2160   -1.2507 C.3       1 UNL1        0.0000
     13 C         -13.7919  -61.4054    0.9031 C.2       1 UNL1        0.0000
     14 O         -14.6525  -62.1694    1.3638 O.co2     1 UNL1       -0.5000
     15 O         -12.4648  -61.6571    1.1036 O.co2     1 UNL1       -0.5000
     16 H         -13.5353  -52.5491    3.6703 H         1 UNL1        0.0000
     17 H         -11.8925  -53.0166    3.2999 H         1 UNL1        0.0000
     18 H         -12.6680  -53.6206    4.7447 H         1 UNL1        0.0000
     19 H         -14.2519  -54.8544    3.3864 H         1 UNL1        0.0000
     20 H         -12.6940  -53.8274    1.0698 H         1 UNL1        0.0000
     21 H         -14.3266  -53.3752    1.4965 H         1 UNL1        0.0000
     22 H         -13.9741  -55.0149    1.0064 H         1 UNL1        0.0000
     23 H         -12.1805  -55.9124    4.0565 H         1 UNL1        0.0000
     24 H         -11.4024  -55.2916    2.6057 H         1 UNL1        0.0000
     25 H         -14.7910  -56.4529    2.6596 H         1 UNL1        0.0000
     26 H         -15.5997  -58.3475    1.4513 H         1 UNL1        0.0000
     27 H         -11.6947  -59.4068    0.4734 H         1 UNL1        0.0000
     28 H         -10.8827  -57.4974    1.6924 H         1 UNL1        0.0000
     29 H         -15.2418  -60.1697   -0.0213 H         1 UNL1        0.0000
     30 H         -12.4441  -60.2417   -1.1247 H         1 UNL1        0.0000
     31 H         -13.7797  -59.3357   -1.7946 H         1 UNL1        0.0000
     32 H         -13.8240  -61.0826   -1.7914 H         1 UNL1        0.0000
@<TRIPOS>BOND
     1    1   17 1
     2    1    2 1
     3    1   16 1
     4    1   18 1
     5    2   19 1
     6    2    3 1
     7    2    4 1
     8    3   21 1
     9    3   22 1
    10    3   20 1
    11    4    5 1
    12    4   24 1
    13    4   23 1
    14    5    6 ar
    15    5   10 ar
    16    6    7 ar
    17    6   25 1
    18    7   26 1
    19    7    8 ar
    20    8    9 ar
    21    8   11 1
    22    9   10 ar
    23    9   27 1
    24   10   28 1
    25   11   29 1
    26   11   12 1
    27   11   13 1
    28   12   30 1
    29   12   31 1
    30   12   32 1
    31   13   15 ar
    32   13   14 ar
@<TRIPOS>SUBSTRUCTURE
1 UNL1 1
@<TRIPOS>COMMENT
ibuprofen
PLANTSproteinTorsions
102
4661 141.1392
5386 185.3188
6210 176.2960
5890 357.6427
4461 320.3399
1390 106.3710
2824 121.0732
4339 2.2679
2732 133.9478
4792 201.3993
3407 6.9607
5134 18.2902
6916 83.5869
7370 53.3752
6038 105.9429
7225 174.9351
3592 206.4236
2064 78.8154
2488 20.5492
1253 254.6400
2069 77.1237
2569 180.1398
3058 130.2420
1748 200.5207
1162 42.0842
1509 319.2819
560 235.6172
1627 140.0332
1941 25.4600
3631 192.0965
2381 330.4487
4221 253.8432
4687 213.1739
6983 248.0646
6668 165.6101
7305 187.8448
8693 64.0405
8404 165.6259
9055 40.8087
7052 301.2571
4708 59.6590
2652 97.1430
4332 17.7792
3011 307.3951
2257 315.6824
2778 227.1094
2057 250.7755
192 102.5713
315 225.6154
1085 211.2083
1007 169.6336
1407 155.8001
4816 92.0506
3131 194.6472
4654 240.4973
5144 96.7133
117 73.4517
6 120.4775
259 34.0343
1979 351.2520
2609 233.6870
2623 234.9381
5910 168.7952
5937 59.2810
2062 60.1178
890 358.1468
5008 96.9414
8602 137.9112
8478 261.8396
8300 187.7541
7721 259.6613
8466 140.1095
7852 117.6025
5849 117.5251
6302 229.0255
7439 214.8717
6284 160.0047
6003 255.6447
7165 214.3284
7623 248.4901
8158 274.4021
8667 245.2523
9078 149.7478
8684 221.8211
7666 174.2060
4231 149.7224
1659 272.5822
489 91.8584
238 276.1222
46 288.1682
83 263.0489
254 125.0425
1066 281.1317
2112 124.2468
4047 24.1599
5402 156.1049
2544 135.6961
4670 271.9218
4426 176.7713
5656 253.0853
7040 198.0806
6282 269.1514
PLANTSmolcadARTstart hb
PLANTSmolcadARTstart HB
LINES
PLANTSmolcadARTstart HBCH
LINES
PLANTSmolcadARTstart HB-CHO
LINES
PLANTSmolcadARTend
PLANTSmolcadARTstart HB_WATER
LINES
PLANTSmolcadARTend

PLANTSmolcadARTend

