@<TRIPOS>MOLECULE
ibuprofen_entry_00001_conf_93
32 32 1
SMALL
NO_CHARGES


@<TRIPOS>ATOM
      1 C         -17.5603  -74.9720    8.0742 C.3       1 UNL1        0.0000
      2 C         -17.3372  -73.4903    8.0030 C.3       1 UNL1        0.0000
      3 C         -18.3981  -72.7557    8.7588 C.3       1 UNL1        0.0000
      4 C         -15.9764  -73.1689    8.5547 C.3       1 UNL1        0.0000
      5 C         -15.8006  -73.7373    9.9135 C.ar      1 UNL1        0.0000
      6 C         -14.9248  -74.7849   10.0798 C.ar      1 UNL1        0.0000
      7 C         -14.7313  -75.3399   11.3124 C.ar      1 UNL1        0.0000
      8 C         -15.4078  -74.8616   12.4079 C.ar      1 UNL1        0.0000
      9 C         -16.2839  -73.8160   12.2541 C.ar      1 UNL1        0.0000
     10 C         -16.4778  -73.2578   11.0086 C.ar      1 UNL1        0.0000
     11 C         -15.2178  -75.4415   13.7481 C.3       1 UNL1        0.0000
     12 C         -15.8118  -76.8496   13.7722 C.3       1 UNL1        0.0000
     13 C         -13.7479  -75.4994   13.9999 C.2       1 UNL1        0.0000
     14 O         -13.0696  -74.4631   14.0491 O.co2     1 UNL1       -0.5000
     15 O         -13.1605  -76.7196   14.1758 O.co2     1 UNL1       -0.5000
     16 H         -18.5289  -75.2056    7.6823 H         1 UNL1        0.0000
     17 H         -17.5009  -75.2933    9.0930 H         1 UNL1        0.0000
     18 H         -16.8116  -75.4729    7.4973 H         1 UNL1        0.0000
     19 H         -17.3897  -73.1757    6.9823 H         1 UNL1        0.0000
     20 H         -18.3711  -73.0498    9.7874 H         1 UNL1        0.0000
     21 H         -19.3569  -72.9904    8.3464 H         1 UNL1        0.0000
     22 H         -18.2256  -71.7024    8.6846 H         1 UNL1        0.0000
     23 H         -15.8611  -72.1065    8.6030 H         1 UNL1        0.0000
     24 H         -15.2393  -73.5992    7.9095 H         1 UNL1        0.0000
     25 H         -14.4099  -75.1554    9.2657 H         1 UNL1        0.0000
     26 H         -14.0708  -76.1259   11.4213 H         1 UNL1        0.0000
     27 H         -16.7973  -73.4475   13.0702 H         1 UNL1        0.0000
     28 H         -17.1376  -72.4721   10.8968 H         1 UNL1        0.0000
     29 H         -15.7015  -74.8542   14.5007 H         1 UNL1        0.0000
     30 H         -15.3374  -77.4495   13.0235 H         1 UNL1        0.0000
     31 H         -16.8621  -76.7961   13.5732 H         1 UNL1        0.0000
     32 H         -15.6528  -77.2872   14.7352 H         1 UNL1        0.0000
@<TRIPOS>BOND
     1    1   17 1
     2    1    2 1
     3    1   16 1
     4    1   18 1
     5    2   19 1
     6    2    3 1
     7    2    4 1
     8    3   21 1
     9    3   22 1
    10    3   20 1
    11    4    5 1
    12    4   24 1
    13    4   23 1
    14    5    6 ar
    15    5   10 ar
    16    6    7 ar
    17    6   25 1
    18    7   26 1
    19    7    8 ar
    20    8    9 ar
    21    8   11 1
    22    9   10 ar
    23    9   27 1
    24   10   28 1
    25   11   29 1
    26   11   12 1
    27   11   13 1
    28   12   30 1
    29   12   31 1
    30   12   32 1
    31   13   15 ar
    32   13   14 ar
@<TRIPOS>SUBSTRUCTURE
1 UNL1 1
@<TRIPOS>COMMENT
ibuprofen
PLANTSproteinTorsions
102
4661 88.7229
5386 197.8748
6210 57.1787
5890 142.7374
4461 58.3815
1390 113.1136
2824 26.2695
4339 109.0361
2732 351.8009
4792 23.4841
3407 243.4501
5134 122.0906
6916 253.8519
7370 184.1822
6038 21.4824
7225 358.8859
3592 346.1284
2064 215.2368
2488 271.2356
1253 169.6055
2069 169.1307
2569 89.4604
3058 175.0048
1748 253.7624
1162 164.5701
1509 110.0589
560 145.2627
1627 26.5439
1941 135.2215
3631 74.3097
2381 142.0958
4221 120.3296
4687 317.5563
6983 85.8066
6668 239.0101
7305 95.0452
8693 244.3800
8404 252.2075
9055 124.0448
7052 209.1121
4708 129.5803
2652 254.1392
4332 174.0359
3011 174.4471
2257 0.9118
2778 218.8259
2057 172.1951
192 87.7233
315 189.8983
1085 46.0273
1007 211.2588
1407 333.3872
4816 79.6734
3131 34.0935
4654 50.5512
5144 1.5443
117 191.2863
6 57.2969
259 46.4495
1979 269.8101
2609 317.4674
2623 27.8508
5910 93.9600
5937 205.0464
2062 302.2903
890 21.2112
5008 38.1436
8602 275.7914
8478 80.1857
8300 260.2269
7721 254.8199
8466 9.8943
7852 204.0073
5849 235.0652
6302 118.4020
7439 21.4559
6284 233.5159
6003 265.1278
7165 109.8770
7623 240.7609
8158 82.4455
8667 36.6681
9078 218.7556
8684 221.0974
7666 303.7198
4231 128.2913
1659 177.4856
489 60.6961
238 57.7809
46 163.1924
83 259.9475
254 226.8466
1066 257.0783
2112 243.3938
4047 104.5913
5402 99.9874
2544 298.5736
4670 256.1596
4426 244.4852
5656 191.4835
7040 224.5841
6282 252.6591
PLANTSmolcadARTstart hb
PLANTSmolcadARTstart HB
LINES
PLANTSmolcadARTstart HBCH
LINES
PLANTSmolcadARTstart HB-CHO
LINES
PLANTSmolcadARTend
PLANTSmolcadARTstart HB_WATER
LINES
PLANTSmolcadARTend

PLANTSmolcadARTend

