@<TRIPOS>MOLECULE
ibuprofen_entry_00001_conf_84
32 32 1
SMALL
NO_CHARGES


@<TRIPOS>ATOM
      1 C         -16.9791  -61.7439   29.3727 C.3       1 UNL1        0.0000
      2 C         -17.2242  -60.2982   29.0565 C.3       1 UNL1        0.0000
      3 C         -17.7435  -59.5718   30.2562 C.3       1 UNL1        0.0000
      4 C         -15.9445  -59.6745   28.5740 C.3       1 UNL1        0.0000
      5 C         -16.1398  -58.2440   28.2339 C.ar      1 UNL1        0.0000
      6 C         -15.0664  -57.3903   28.3397 C.ar      1 UNL1        0.0000
      7 C         -15.1997  -56.0653   28.0375 C.ar      1 UNL1        0.0000
      8 C         -16.4083  -55.5618   27.6223 C.ar      1 UNL1        0.0000
      9 C         -17.4865  -56.4044   27.5124 C.ar      1 UNL1        0.0000
     10 C         -17.3493  -57.7415   27.8186 C.ar      1 UNL1        0.0000
     11 C         -16.5796  -54.1374   27.2900 C.3       1 UNL1        0.0000
     12 C         -17.1982  -54.0200   25.8973 C.3       1 UNL1        0.0000
     13 C         -17.4979  -53.5531   28.3112 C.2       1 UNL1        0.0000
     14 O         -18.7117  -53.8039   28.2930 O.co2     1 UNL1       -0.5000
     15 O         -16.9753  -52.7334   29.2703 O.co2     1 UNL1       -0.5000
     16 H         -17.8883  -62.1923   29.7172 H         1 UNL1        0.0000
     17 H         -16.2324  -61.8209   30.1351 H         1 UNL1        0.0000
     18 H         -16.6436  -62.2491   28.4916 H         1 UNL1        0.0000
     19 H         -17.9652  -60.2271   28.2887 H         1 UNL1        0.0000
     20 H         -17.0220  -59.6250   31.0448 H         1 UNL1        0.0000
     21 H         -18.6576  -60.0244   30.5789 H         1 UNL1        0.0000
     22 H         -17.9217  -58.5474   30.0045 H         1 UNL1        0.0000
     23 H         -15.6075  -60.1974   27.7037 H         1 UNL1        0.0000
     24 H         -15.2192  -59.7404   29.3578 H         1 UNL1        0.0000
     25 H         -14.1521  -57.7543   28.6511 H         1 UNL1        0.0000
     26 H         -14.3849  -55.4370   28.1220 H         1 UNL1        0.0000
     27 H         -18.3995  -56.0375   27.2006 H         1 UNL1        0.0000
     28 H         -18.1623  -58.3718   27.7352 H         1 UNL1        0.0000
     29 H         -15.6430  -53.6197   27.2922 H         1 UNL1        0.0000
     30 H         -18.1367  -54.5339   25.8796 H         1 UNL1        0.0000
     31 H         -16.5385  -54.4577   25.1771 H         1 UNL1        0.0000
     32 H         -17.3507  -52.9880   25.6608 H         1 UNL1        0.0000
@<TRIPOS>BOND
     1    1   17 1
     2    1    2 1
     3    1   16 1
     4    1   18 1
     5    2   19 1
     6    2    3 1
     7    2    4 1
     8    3   21 1
     9    3   22 1
    10    3   20 1
    11    4    5 1
    12    4   24 1
    13    4   23 1
    14    5    6 ar
    15    5   10 ar
    16    6    7 ar
    17    6   25 1
    18    7   26 1
    19    7    8 ar
    20    8    9 ar
    21    8   11 1
    22    9   10 ar
    23    9   27 1
    24   10   28 1
    25   11   29 1
    26   11   12 1
    27   11   13 1
    28   12   30 1
    29   12   31 1
    30   12   32 1
    31   13   15 ar
    32   13   14 ar
@<TRIPOS>SUBSTRUCTURE
1 UNL1 1
@<TRIPOS>COMMENT
ibuprofen
PLANTSproteinTorsions
102
4661 323.1362
5386 135.1578
6210 54.4397
5890 175.7961
4461 55.4485
1390 330.6151
2824 101.1639
4339 66.0696
2732 86.5295
4792 46.5816
3407 109.3544
5134 14.3328
6916 350.0241
7370 194.3826
6038 159.2137
7225 1.1148
3592 138.3913
2064 70.4753
2488 70.5180
1253 267.5189
2069 29.3485
2569 95.5787
3058 64.4580
1748 24.8598
1162 13.1221
1509 20.8278
560 142.4224
1627 343.0222
1941 276.3849
3631 106.0161
2381 20.7540
4221 211.9478
4687 224.1506
6983 97.3893
6668 77.9301
7305 114.1107
8693 26.8352
8404 58.8682
9055 196.8566
7052 165.4250
4708 133.5318
2652 211.8421
4332 161.0135
3011 212.4807
2257 118.6980
2778 109.5526
2057 45.6436
192 199.8559
315 262.7834
1085 175.1886
1007 249.0956
1407 136.0360
4816 290.7323
3131 325.4060
4654 121.4734
5144 224.8444
117 260.8047
6 284.2869
259 299.6612
1979 68.7796
2609 159.3652
2623 29.0692
5910 194.1367
5937 30.0319
2062 194.2064
890 220.8728
5008 261.2038
8602 16.5336
8478 157.5576
8300 192.0859
7721 113.6776
8466 241.9436
7852 246.8120
5849 90.0364
6302 124.7509
7439 72.8302
6284 145.8945
6003 57.6432
7165 145.2390
7623 123.1047
8158 67.6989
8667 48.8573
9078 249.3071
8684 165.3800
7666 17.5557
4231 250.6746
1659 321.5495
489 145.2993
238 272.8199
46 248.2698
83 175.0466
254 136.9434
1066 260.9080
2112 46.7055
4047 330.9066
5402 68.5853
2544 161.9020
4670 210.9268
4426 151.5934
5656 263.2771
7040 234.0642
6282 256.3824
PLANTSmolcadARTstart hb
PLANTSmolcadARTstart HB
LINES
PLANTSmolcadARTstart HBCH
LINES
PLANTSmolcadARTstart HB-CHO
LINES
PLANTSmolcadARTend
PLANTSmolcadARTstart HB_WATER
LINES
PLANTSmolcadARTend

PLANTSmolcadARTend

