@<TRIPOS>MOLECULE
ibuprofen_entry_00001_conf_90
32 32 1
SMALL
NO_CHARGES


@<TRIPOS>ATOM
      1 C         -12.6562  -65.8219   -2.1266 C.3       1 UNL1        0.0000
      2 C         -13.1182  -65.1748   -3.3986 C.3       1 UNL1        0.0000
      3 C         -13.3638  -66.2007   -4.4586 C.3       1 UNL1        0.0000
      4 C         -14.3688  -64.3868   -3.1257 C.3       1 UNL1        0.0000
      5 C         -14.1159  -63.3012   -2.1470 C.ar      1 UNL1        0.0000
      6 C         -14.4114  -63.5275   -0.8228 C.ar      1 UNL1        0.0000
      7 C         -14.1953  -62.5570    0.1132 C.ar      1 UNL1        0.0000
      8 C         -13.6789  -61.3376   -0.2513 C.ar      1 UNL1        0.0000
      9 C         -13.3796  -61.1005   -1.5700 C.ar      1 UNL1        0.0000
     10 C         -13.5991  -62.0818   -2.5130 C.ar      1 UNL1        0.0000
     11 C         -13.4360  -60.2737    0.7375 C.3       1 UNL1        0.0000
     12 C         -13.9058  -60.7515    2.1112 C.3       1 UNL1        0.0000
     13 C         -11.9659  -60.0168    0.7577 C.2       1 UNL1        0.0000
     14 O         -11.5084  -58.9130    0.4280 O.co2     1 UNL1       -0.5000
     15 O         -11.1299  -61.0238    1.1474 O.co2     1 UNL1       -0.5000
     16 H         -11.7653  -66.3847   -2.3164 H         1 UNL1        0.0000
     17 H         -13.4199  -66.4759   -1.7609 H         1 UNL1        0.0000
     18 H         -12.4525  -65.0670   -1.3966 H         1 UNL1        0.0000
     19 H         -12.3547  -64.5165   -3.7554 H         1 UNL1        0.0000
     20 H         -14.1257  -66.8768   -4.1304 H         1 UNL1        0.0000
     21 H         -12.4613  -66.7443   -4.6444 H         1 UNL1        0.0000
     22 H         -13.6806  -65.7163   -5.3584 H         1 UNL1        0.0000
     23 H         -15.1167  -65.0433   -2.7334 H         1 UNL1        0.0000
     24 H         -14.6980  -63.9458   -4.0432 H         1 UNL1        0.0000
     25 H         -14.8006  -64.4388   -0.5340 H         1 UNL1        0.0000
     26 H         -14.4223  -62.7418    1.1033 H         1 UNL1        0.0000
     27 H         -12.9902  -60.1882   -1.8557 H         1 UNL1        0.0000
     28 H         -13.3733  -61.8997   -3.5034 H         1 UNL1        0.0000
     29 H         -13.9668  -59.3787    0.4876 H         1 UNL1        0.0000
     30 H         -13.3831  -61.6473    2.3750 H         1 UNL1        0.0000
     31 H         -14.9572  -60.9486    2.0788 H         1 UNL1        0.0000
     32 H         -13.7070  -59.9935    2.8394 H         1 UNL1        0.0000
@<TRIPOS>BOND
     1    1   17 1
     2    1    2 1
     3    1   16 1
     4    1   18 1
     5    2   19 1
     6    2    3 1
     7    2    4 1
     8    3   21 1
     9    3   22 1
    10    3   20 1
    11    4    5 1
    12    4   24 1
    13    4   23 1
    14    5    6 ar
    15    5   10 ar
    16    6    7 ar
    17    6   25 1
    18    7   26 1
    19    7    8 ar
    20    8    9 ar
    21    8   11 1
    22    9   10 ar
    23    9   27 1
    24   10   28 1
    25   11   29 1
    26   11   12 1
    27   11   13 1
    28   12   30 1
    29   12   31 1
    30   12   32 1
    31   13   15 ar
    32   13   14 ar
@<TRIPOS>SUBSTRUCTURE
1 UNL1 1
@<TRIPOS>COMMENT
ibuprofen
PLANTSproteinTorsions
102
4661 12.6867
5386 210.0889
6210 123.3754
5890 268.2550
4461 58.8555
1390 40.0762
2824 69.5734
4339 75.1841
2732 48.2578
4792 101.6427
3407 187.7990
5134 127.2591
6916 350.3871
7370 244.2482
6038 118.3975
7225 159.9627
3592 146.7027
2064 193.4940
2488 126.4983
1253 180.7433
2069 182.6598
2569 26.5952
3058 174.2769
1748 193.1356
1162 252.4087
1509 147.0296
560 179.7419
1627 0.0152
1941 123.4177
3631 340.0460
2381 25.6756
4221 42.5311
4687 94.4939
6983 19.3446
6668 25.4152
7305 34.2270
8693 85.1317
8404 293.4410
9055 228.4402
7052 70.0612
4708 117.5055
2652 254.8172
4332 201.2593
3011 242.1349
2257 99.5503
2778 214.9698
2057 24.2841
192 263.0337
315 265.7270
1085 42.2986
1007 31.8437
1407 247.8049
4816 310.4047
3131 198.8217
4654 13.7498
5144 131.1487
117 247.0599
6 145.0125
259 141.6727
1979 128.1864
2609 120.7724
2623 232.0217
5910 79.8350
5937 50.8523
2062 177.5444
890 189.9942
5008 32.9495
8602 80.7418
8478 166.7432
8300 77.0397
7721 181.9387
8466 80.5057
7852 88.9752
5849 78.1906
6302 284.0809
7439 212.8823
6284 234.5843
6003 204.9800
7165 228.7407
7623 254.7648
8158 245.2952
8667 66.2737
9078 78.8045
8684 152.6706
7666 217.7386
4231 59.4374
1659 218.7101
489 126.5945
238 145.1967
46 265.6232
83 240.0083
254 308.1167
1066 136.2384
2112 293.6259
4047 67.4898
5402 277.2010
2544 219.4781
4670 63.1988
4426 239.1470
5656 253.9906
7040 111.3634
6282 148.1381
PLANTSmolcadARTstart hb
PLANTSmolcadARTstart HB
LINES
PLANTSmolcadARTstart HBCH
LINES
PLANTSmolcadARTstart HB-CHO
LINES
PLANTSmolcadARTend
PLANTSmolcadARTstart HB_WATER
LINES
PLANTSmolcadARTend

PLANTSmolcadARTend

