@<TRIPOS>MOLECULE
ibuprofen_entry_00001_conf_37
32 32 1
SMALL
NO_CHARGES


@<TRIPOS>ATOM
      1 C         -14.9827  -54.6976    2.3596 C.3       1 UNL1        0.0000
      2 C         -14.7463  -54.6120    0.8808 C.3       1 UNL1        0.0000
      3 C         -13.2846  -54.6753    0.5712 C.3       1 UNL1        0.0000
      4 C         -15.4802  -55.7321    0.1979 C.3       1 UNL1        0.0000
      5 C         -14.7651  -57.0211    0.3629 C.ar      1 UNL1        0.0000
      6 C         -14.3128  -57.6710   -0.7620 C.ar      1 UNL1        0.0000
      7 C         -13.6496  -58.8602   -0.6581 C.ar      1 UNL1        0.0000
      8 C         -13.4225  -59.4283    0.5716 C.ar      1 UNL1        0.0000
      9 C         -13.8688  -58.7886    1.7013 C.ar      1 UNL1        0.0000
     10 C         -14.5383  -57.5884    1.5937 C.ar      1 UNL1        0.0000
     11 C         -12.7102  -60.7095    0.7119 C.3       1 UNL1        0.0000
     12 C         -11.5949  -60.5507    1.7449 C.3       1 UNL1        0.0000
     13 C         -13.7048  -61.7188    1.1805 C.2       1 UNL1        0.0000
     14 O         -14.9118  -61.4428    1.2390 O.co2     1 UNL1       -0.5000
     15 O         -13.2599  -62.9572    1.5454 O.co2     1 UNL1       -0.5000
     16 H         -14.4614  -53.9015    2.8503 H         1 UNL1        0.0000
     17 H         -14.6238  -55.6371    2.7247 H         1 UNL1        0.0000
     18 H         -16.0304  -54.6137    2.5582 H         1 UNL1        0.0000
     19 H         -15.1138  -53.6749    0.5199 H         1 UNL1        0.0000
     20 H         -12.8862  -55.6048    0.9212 H         1 UNL1        0.0000
     21 H         -12.7817  -53.8663    1.0583 H         1 UNL1        0.0000
     22 H         -13.1396  -54.6009   -0.4862 H         1 UNL1        0.0000
     23 H         -15.5638  -55.5102   -0.8451 H         1 UNL1        0.0000
     24 H         -16.4490  -55.8229    0.6429 H         1 UNL1        0.0000
     25 H         -14.4767  -57.2565   -1.6928 H         1 UNL1        0.0000
     26 H         -13.3164  -59.3361   -1.5116 H         1 UNL1        0.0000
     27 H         -13.7032  -59.2054    2.6309 H         1 UNL1        0.0000
     28 H         -14.8728  -57.1106    2.4452 H         1 UNL1        0.0000
     29 H         -12.2748  -61.0187   -0.2155 H         1 UNL1        0.0000
     30 H         -12.0156  -60.2410    2.6790 H         1 UNL1        0.0000
     31 H         -10.8983  -59.8124    1.4056 H         1 UNL1        0.0000
     32 H         -11.0908  -61.4855    1.8718 H         1 UNL1        0.0000
@<TRIPOS>BOND
     1    1   17 1
     2    1    2 1
     3    1   16 1
     4    1   18 1
     5    2   19 1
     6    2    3 1
     7    2    4 1
     8    3   21 1
     9    3   22 1
    10    3   20 1
    11    4    5 1
    12    4   24 1
    13    4   23 1
    14    5    6 ar
    15    5   10 ar
    16    6    7 ar
    17    6   25 1
    18    7   26 1
    19    7    8 ar
    20    8    9 ar
    21    8   11 1
    22    9   10 ar
    23    9   27 1
    24   10   28 1
    25   11   29 1
    26   11   12 1
    27   11   13 1
    28   12   30 1
    29   12   31 1
    30   12   32 1
    31   13   15 ar
    32   13   14 ar
@<TRIPOS>SUBSTRUCTURE
1 UNL1 1
@<TRIPOS>COMMENT
ibuprofen
PLANTSproteinTorsions
102
4661 173.5345
5386 309.6122
6210 295.5598
5890 202.4614
4461 141.9276
1390 346.0857
2824 257.8086
4339 65.4360
2732 94.9877
4792 40.7121
3407 232.0660
5134 334.7804
6916 132.1531
7370 163.0401
6038 218.0577
7225 177.1478
3592 64.1660
2064 262.5028
2488 225.6129
1253 5.7173
2069 217.2773
2569 2.9076
3058 292.6369
1748 44.5037
1162 330.9469
1509 334.6236
560 259.5072
1627 331.7209
1941 76.6488
3631 180.2337
2381 146.0699
4221 128.6626
4687 189.4139
6983 267.6456
6668 262.1672
7305 309.7845
8693 22.9435
8404 320.3678
9055 31.9545
7052 267.3413
4708 164.8992
2652 193.0661
4332 261.8293
3011 343.2542
2257 318.0703
2778 296.7165
2057 42.2240
192 155.8506
315 332.5753
1085 206.3302
1007 12.7024
1407 176.3042
4816 87.1739
3131 221.9621
4654 223.7176
5144 132.5514
117 221.7937
6 249.9704
259 250.3482
1979 44.5584
2609 237.0079
2623 49.2758
5910 280.5401
5937 78.1991
2062 248.2098
890 87.2768
5008 271.9290
8602 79.7924
8478 56.6714
8300 192.8268
7721 148.0343
8466 230.2930
7852 115.3900
5849 133.0396
6302 234.4709
7439 148.1548
6284 243.9196
6003 317.8884
7165 178.3825
7623 165.6854
8158 224.0282
8667 66.9077
9078 166.1814
8684 64.1669
7666 350.7253
4231 325.2814
1659 233.8468
489 66.3779
238 125.7777
46 224.2581
83 248.4573
254 21.8733
1066 151.9764
2112 202.0225
4047 124.8924
5402 142.1764
2544 242.5232
4670 154.2264
4426 62.6897
5656 215.9746
7040 116.7249
6282 131.1750
PLANTSmolcadARTstart hb
PLANTSmolcadARTstart HB
LINES
PLANTSmolcadARTstart HBCH
LINES
PLANTSmolcadARTstart HB-CHO
LINES
PLANTSmolcadARTend
PLANTSmolcadARTstart HB_WATER
LINES
PLANTSmolcadARTend

PLANTSmolcadARTend

