@<TRIPOS>MOLECULE
ibuprofen_entry_00001_conf_04
32 32 1
SMALL
NO_CHARGES


@<TRIPOS>ATOM
      1 C         -13.0074  -62.7587   -0.5767 C.3       1 UNL1        0.0000
      2 C         -13.5718  -61.5585    0.1240 C.3       1 UNL1        0.0000
      3 C         -14.1614  -61.9415    1.4440 C.3       1 UNL1        0.0000
      4 C         -12.4842  -60.5371    0.3073 C.3       1 UNL1        0.0000
      5 C         -13.0503  -59.1969    0.5966 C.ar      1 UNL1        0.0000
      6 C         -13.7492  -58.5499   -0.3961 C.ar      1 UNL1        0.0000
      7 C         -14.2877  -57.3147   -0.1749 C.ar      1 UNL1        0.0000
      8 C         -14.1409  -56.6966    1.0428 C.ar      1 UNL1        0.0000
      9 C         -13.4460  -57.3329    2.0412 C.ar      1 UNL1        0.0000
     10 C         -12.9030  -58.5797    1.8153 C.ar      1 UNL1        0.0000
     11 C         -14.7114  -55.3651    1.3080 C.3       1 UNL1        0.0000
     12 C         -15.1072  -55.2754    2.7816 C.3       1 UNL1        0.0000
     13 C         -13.6516  -54.3609    0.9985 C.2       1 UNL1        0.0000
     14 O         -12.7059  -54.6446    0.2489 O.co2     1 UNL1       -0.5000
     15 O         -13.7421  -53.1185    1.5581 O.co2     1 UNL1       -0.5000
     16 H         -13.7789  -63.4893   -0.7092 H         1 UNL1        0.0000
     17 H         -12.2176  -63.1769    0.0115 H         1 UNL1        0.0000
     18 H         -12.6252  -62.4662   -1.5320 H         1 UNL1        0.0000
     19 H         -14.3551  -61.1399   -0.4716 H         1 UNL1        0.0000
     20 H         -13.3996  -62.3650    2.0650 H         1 UNL1        0.0000
     21 H         -14.9380  -62.6614    1.2920 H         1 UNL1        0.0000
     22 H         -14.5673  -61.0734    1.9196 H         1 UNL1        0.0000
     23 H         -11.9006  -60.4839   -0.5876 H         1 UNL1        0.0000
     24 H         -11.8769  -60.8344    1.1364 H         1 UNL1        0.0000
     25 H         -13.8669  -59.0018   -1.3165 H         1 UNL1        0.0000
     26 H         -14.8093  -56.8416   -0.9299 H         1 UNL1        0.0000
     27 H         -13.3300  -56.8786    2.9608 H         1 UNL1        0.0000
     28 H         -12.3808  -59.0547    2.5681 H         1 UNL1        0.0000
     29 H         -15.5804  -55.1855    0.7097 H         1 UNL1        0.0000
     30 H         -14.2472  -55.4533    3.3932 H         1 UNL1        0.0000
     31 H         -15.8545  -56.0114    2.9946 H         1 UNL1        0.0000
     32 H         -15.4973  -54.3008    2.9873 H         1 UNL1        0.0000
@<TRIPOS>BOND
     1    1   17 1
     2    1    2 1
     3    1   16 1
     4    1   18 1
     5    2   19 1
     6    2    3 1
     7    2    4 1
     8    3   21 1
     9    3   22 1
    10    3   20 1
    11    4    5 1
    12    4   24 1
    13    4   23 1
    14    5    6 ar
    15    5   10 ar
    16    6    7 ar
    17    6   25 1
    18    7   26 1
    19    7    8 ar
    20    8    9 ar
    21    8   11 1
    22    9   10 ar
    23    9   27 1
    24   10   28 1
    25   11   29 1
    26   11   12 1
    27   11   13 1
    28   12   30 1
    29   12   31 1
    30   12   32 1
    31   13   15 ar
    32   13   14 ar
@<TRIPOS>SUBSTRUCTURE
1 UNL1 1
@<TRIPOS>COMMENT
ibuprofen
PLANTSproteinTorsions
102
4661 341.5194
5386 95.4081
6210 259.7327
5890 164.7337
4461 193.6988
1390 354.8113
2824 251.5958
4339 269.1524
2732 278.6794
4792 346.9991
3407 209.3940
5134 218.1936
6916 331.9052
7370 303.9173
6038 276.3282
7225 261.4684
3592 21.9329
2064 289.1641
2488 223.9805
1253 157.4035
2069 232.0372
2569 117.3534
3058 305.8296
1748 299.2379
1162 276.3239
1509 64.5742
560 302.0345
1627 334.3722
1941 198.8307
3631 272.2735
2381 31.3685
4221 131.6837
4687 261.2951
6983 303.9081
6668 77.5576
7305 88.3068
8693 25.4088
8404 315.6304
9055 83.9106
7052 210.4675
4708 215.7476
2652 167.3595
4332 258.8571
3011 196.1171
2257 237.9747
2778 347.2553
2057 39.4698
192 193.1317
315 8.4559
1085 306.7753
1007 18.9220
1407 255.0586
4816 271.0059
3131 260.4167
4654 129.2384
5144 216.8673
117 221.9507
6 293.3082
259 294.4682
1979 135.4492
2609 12.6075
2623 180.2833
5910 267.9748
5937 174.8556
2062 278.0446
890 244.1021
5008 272.3474
8602 106.2484
8478 94.9943
8300 197.5815
7721 23.5290
8466 67.4459
7852 95.8124
5849 235.5065
6302 229.7130
7439 214.8472
6284 15.5946
6003 314.4369
7165 76.4600
7623 163.9739
8158 289.3336
8667 73.1051
9078 42.9257
8684 66.7448
7666 342.5471
4231 269.4039
1659 90.4753
489 34.2372
238 16.7502
46 233.1308
83 72.4337
254 42.9470
1066 344.6163
2112 157.2034
4047 181.6258
5402 213.6511
2544 351.2139
4670 292.7162
4426 356.1941
5656 226.0522
7040 327.3625
6282 291.7538
PLANTSmolcadARTstart hb
PLANTSmolcadARTstart HB
LINES
-13.7421 -53.1185 1.55807 -13.532 -51.995 -0.043 0 255 0 5
PLANTSmolcadARTstart HBCH
LINES
PLANTSmolcadARTstart HB-CHO
LINES
PLANTSmolcadARTend
PLANTSmolcadARTstart HB_WATER
LINES
PLANTSmolcadARTend

PLANTSmolcadARTend

