@<TRIPOS>MOLECULE
ibuprofen_entry_00001_conf_21
32 32 1
SMALL
NO_CHARGES


@<TRIPOS>ATOM
      1 C         -40.6814  -52.7485    7.7241 C.3       1 UNL1        0.0000
      2 C         -40.8999  -54.2323    7.7510 C.3       1 UNL1        0.0000
      3 C         -42.1899  -54.5678    8.4292 C.3       1 UNL1        0.0000
      4 C         -40.8907  -54.7583    6.3429 C.3       1 UNL1        0.0000
      5 C         -40.8429  -56.2407    6.3244 C.ar      1 UNL1        0.0000
      6 C         -41.9351  -56.9281    5.8480 C.ar      1 UNL1        0.0000
      7 C         -41.9358  -58.2932    5.8125 C.ar      1 UNL1        0.0000
      8 C         -40.8457  -59.0039    6.2520 C.ar      1 UNL1        0.0000
      9 C         -39.7497  -58.3287    6.7290 C.ar      1 UNL1        0.0000
     10 C         -39.7517  -56.9506    6.7641 C.ar      1 UNL1        0.0000
     11 C         -40.8201  -60.4761    6.2247 C.3       1 UNL1        0.0000
     12 C         -42.2551  -61.0015    6.2546 C.3       1 UNL1        0.0000
     13 C         -40.1503  -60.8826    4.9544 C.2       1 UNL1        0.0000
     14 O         -39.0350  -61.4233    4.9681 O.co2     1 UNL1       -0.5000
     15 O         -40.7906  -60.6473    3.7714 O.co2     1 UNL1       -0.5000
     16 H         -40.6874  -52.3693    8.7254 H         1 UNL1        0.0000
     17 H         -41.4633  -52.2827    7.1617 H         1 UNL1        0.0000
     18 H         -39.7376  -52.5359    7.2678 H         1 UNL1        0.0000
     19 H         -40.1117  -54.6936    8.3073 H         1 UNL1        0.0000
     20 H         -43.0009  -54.1191    7.8943 H         1 UNL1        0.0000
     21 H         -42.1737  -54.1932    9.4312 H         1 UNL1        0.0000
     22 H         -42.3188  -55.6297    8.4470 H         1 UNL1        0.0000
     23 H         -40.0324  -54.3749    5.8324 H         1 UNL1        0.0000
     24 H         -41.7904  -54.4423    5.8576 H         1 UNL1        0.0000
     25 H         -42.7617  -56.4075    5.5151 H         1 UNL1        0.0000
     26 H         -42.7631  -58.7949    5.4524 H         1 UNL1        0.0000
     27 H         -38.9244  -58.8521    7.0610 H         1 UNL1        0.0000
     28 H         -38.9262  -56.4465    7.1239 H         1 UNL1        0.0000
     29 H         -40.2934  -60.8739    7.0671 H         1 UNL1        0.0000
     30 H         -42.7951  -60.6114    5.4171 H         1 UNL1        0.0000
     31 H         -42.7295  -60.6888    7.1616 H         1 UNL1        0.0000
     32 H         -42.2445  -62.0701    6.2074 H         1 UNL1        0.0000
@<TRIPOS>BOND
     1    1   17 1
     2    1    2 1
     3    1   16 1
     4    1   18 1
     5    2   19 1
     6    2    3 1
     7    2    4 1
     8    3   21 1
     9    3   22 1
    10    3   20 1
    11    4    5 1
    12    4   24 1
    13    4   23 1
    14    5    6 ar
    15    5   10 ar
    16    6    7 ar
    17    6   25 1
    18    7   26 1
    19    7    8 ar
    20    8    9 ar
    21    8   11 1
    22    9   10 ar
    23    9   27 1
    24   10   28 1
    25   11   29 1
    26   11   12 1
    27   11   13 1
    28   12   30 1
    29   12   31 1
    30   12   32 1
    31   13   15 ar
    32   13   14 ar
@<TRIPOS>SUBSTRUCTURE
1 UNL1 1
@<TRIPOS>COMMENT
ibuprofen
PLANTSproteinTorsions
102
4661 31.6832
5386 181.8570
6210 47.7923
5890 9.6279
4461 76.9042
1390 225.1357
2824 33.6330
4339 247.7105
2732 77.1273
4792 84.2293
3407 323.7050
5134 136.1259
6916 329.6100
7370 38.9725
6038 14.4161
7225 177.8714
3592 142.2659
2064 195.5907
2488 30.8337
1253 199.2145
2069 171.5435
2569 18.0603
3058 148.7537
1748 167.6235
1162 18.2859
1509 64.1825
560 122.0529
1627 183.6761
1941 215.5829
3631 187.6864
2381 40.7257
4221 16.9699
4687 175.3993
6983 223.8751
6668 179.9715
7305 93.1831
8693 59.3507
8404 160.4942
9055 48.6813
7052 327.2940
4708 202.1231
2652 80.5823
4332 23.6744
3011 289.0351
2257 38.2702
2778 221.8239
2057 167.3752
192 62.1337
315 232.0197
1085 250.9000
1007 243.0150
1407 180.3442
4816 53.5049
3131 247.8911
4654 206.1240
5144 225.0956
117 154.5940
6 175.9171
259 213.8078
1979 213.7605
2609 126.6875
2623 71.8471
5910 249.8903
5937 200.8654
2062 77.7853
890 18.7256
5008 256.9211
8602 253.0752
8478 75.9967
8300 171.1813
7721 179.4392
8466 3.2918
7852 19.3545
5849 60.0174
6302 92.2295
7439 290.5566
6284 343.3398
6003 285.3022
7165 104.5163
7623 179.7691
8158 242.2212
8667 303.5312
9078 349.8936
8684 272.3895
7666 298.0293
4231 189.1831
1659 260.9350
489 166.1804
238 181.9850
46 213.1685
83 211.6706
254 231.5430
1066 257.6317
2112 147.3148
4047 99.8953
5402 129.5520
2544 266.8487
4670 271.3474
4426 144.6232
5656 179.8507
7040 48.4716
6282 266.6566
PLANTSmolcadARTstart hb
PLANTSmolcadARTstart HB
LINES
PLANTSmolcadARTstart HBCH
LINES
PLANTSmolcadARTstart HB-CHO
LINES
-39.035 -61.4233 4.96812 -37.486 -61.093 6.901 0 255 255 5
PLANTSmolcadARTend
PLANTSmolcadARTstart HB_WATER
LINES
PLANTSmolcadARTend

PLANTSmolcadARTend

