@<TRIPOS>MOLECULE
ibuprofen_entry_00001_conf_24
32 32 1
SMALL
NO_CHARGES


@<TRIPOS>ATOM
      1 C          -0.7705  -70.0986    4.7598 C.3       1 UNL1        0.0000
      2 C          -1.2308  -68.7077    4.4380 C.3       1 UNL1        0.0000
      3 C          -2.1453  -68.7104    3.2547 C.3       1 UNL1        0.0000
      4 C          -1.9224  -68.1262    5.6393 C.3       1 UNL1        0.0000
      5 C          -2.1764  -66.6756    5.4621 C.ar      1 UNL1        0.0000
      6 C          -1.4513  -65.7838    6.2178 C.ar      1 UNL1        0.0000
      7 C          -1.6516  -64.4393    6.0884 C.ar      1 UNL1        0.0000
      8 C          -2.5808  -63.9537    5.2011 C.ar      1 UNL1        0.0000
      9 C          -3.3100  -64.8342    4.4411 C.ar      1 UNL1        0.0000
     10 C          -3.1061  -66.1911    4.5739 C.ar      1 UNL1        0.0000
     11 C          -2.8167  -62.5089    5.0416 C.3       1 UNL1        0.0000
     12 C          -4.2542  -62.2860    4.5724 C.3       1 UNL1        0.0000
     13 C          -2.6084  -61.8773    6.3777 C.2       1 UNL1        0.0000
     14 O          -2.0401  -60.7806    6.4813 O.co2     1 UNL1       -0.5000
     15 O          -3.0568  -62.5318    7.4892 O.co2     1 UNL1       -0.5000
     16 H          -0.2773  -70.5170    3.9065 H         1 UNL1        0.0000
     17 H          -1.6149  -70.7038    5.0158 H         1 UNL1        0.0000
     18 H          -0.0905  -70.0667    5.5848 H         1 UNL1        0.0000
     19 H          -0.3826  -68.1052    4.1907 H         1 UNL1        0.0000
     20 H          -3.0069  -69.3069    3.4717 H         1 UNL1        0.0000
     21 H          -1.6330  -69.1191    2.4092 H         1 UNL1        0.0000
     22 H          -2.4511  -67.7085    3.0369 H         1 UNL1        0.0000
     23 H          -1.3053  -68.2700    6.5012 H         1 UNL1        0.0000
     24 H          -2.8625  -68.6223    5.7617 H         1 UNL1        0.0000
     25 H          -0.7500  -66.1341    6.8893 H         1 UNL1        0.0000
     26 H          -1.0998  -63.7824    6.6628 H         1 UNL1        0.0000
     27 H          -4.0105  -64.4810    3.7702 H         1 UNL1        0.0000
     28 H          -3.6565  -66.8500    4.0012 H         1 UNL1        0.0000
     29 H          -2.1521  -62.0812    4.3201 H         1 UNL1        0.0000
     30 H          -4.9314  -62.7092    5.2849 H         1 UNL1        0.0000
     31 H          -4.3955  -62.7580    3.6223 H         1 UNL1        0.0000
     32 H          -4.4406  -61.2367    4.4809 H         1 UNL1        0.0000
@<TRIPOS>BOND
     1    1   17 1
     2    1    2 1
     3    1   16 1
     4    1   18 1
     5    2   19 1
     6    2    3 1
     7    2    4 1
     8    3   21 1
     9    3   22 1
    10    3   20 1
    11    4    5 1
    12    4   24 1
    13    4   23 1
    14    5    6 ar
    15    5   10 ar
    16    6    7 ar
    17    6   25 1
    18    7   26 1
    19    7    8 ar
    20    8    9 ar
    21    8   11 1
    22    9   10 ar
    23    9   27 1
    24   10   28 1
    25   11   29 1
    26   11   12 1
    27   11   13 1
    28   12   30 1
    29   12   31 1
    30   12   32 1
    31   13   15 ar
    32   13   14 ar
@<TRIPOS>SUBSTRUCTURE
1 UNL1 1
@<TRIPOS>COMMENT
ibuprofen
PLANTSproteinTorsions
102
4661 93.1406
5386 26.5987
6210 76.4792
5890 338.7587
4461 95.0229
1390 212.2735
2824 350.5149
4339 340.0596
2732 143.8875
4792 186.4556
3407 66.1539
5134 320.9915
6916 177.7776
7370 152.3040
6038 206.3542
7225 264.6313
3592 272.4479
2064 114.2573
2488 168.8040
1253 159.0132
2069 265.5605
2569 234.6273
3058 281.5759
1748 125.3424
1162 82.5206
1509 10.0287
560 177.1906
1627 25.2278
1941 85.1843
3631 352.1006
2381 218.9185
4221 30.8777
4687 109.6140
6983 20.6499
6668 230.9999
7305 0.7646
8693 228.0676
8404 115.0992
9055 245.0704
7052 231.6833
4708 343.3307
2652 186.5570
4332 303.7963
3011 35.7665
2257 356.2355
2778 89.9745
2057 107.5054
192 185.9523
315 95.7229
1085 21.4000
1007 54.3291
1407 47.1900
4816 149.8972
3131 265.6384
4654 218.1735
5144 116.9635
117 109.8997
6 83.7629
259 268.4913
1979 86.1313
2609 131.1409
2623 90.7377
5910 21.3637
5937 166.8234
2062 25.4844
890 185.2516
5008 56.5504
8602 264.7862
8478 238.3723
8300 125.8065
7721 110.8310
8466 119.6680
7852 60.2671
5849 98.8610
6302 98.4686
7439 91.0513
6284 52.7287
6003 59.3071
7165 9.3028
7623 193.4117
8158 125.5763
8667 331.7692
9078 117.0687
8684 245.9205
7666 141.6449
4231 200.7179
1659 51.8521
489 124.3170
238 157.7999
46 95.0158
83 255.2086
254 233.3252
1066 104.4768
2112 250.7746
4047 115.9464
5402 223.3525
2544 139.1964
4670 174.8824
4426 265.6472
5656 151.7396
7040 243.5819
6282 163.1158
PLANTSmolcadARTstart hb
PLANTSmolcadARTstart HB
LINES
PLANTSmolcadARTstart HBCH
LINES
PLANTSmolcadARTstart HB-CHO
LINES
PLANTSmolcadARTend
PLANTSmolcadARTstart HB_WATER
LINES
PLANTSmolcadARTend

PLANTSmolcadARTend

