@<TRIPOS>MOLECULE
ibuprofen_entry_00001_conf_17
32 32 1
SMALL
NO_CHARGES


@<TRIPOS>ATOM
      1 C         -12.0438  -58.1975    1.3035 C.3       1 UNL1        0.0000
      2 C         -12.1080  -59.4824    0.5322 C.3       1 UNL1        0.0000
      3 C         -10.9532  -60.3680    0.8766 C.3       1 UNL1        0.0000
      4 C         -13.4101  -60.1721    0.8293 C.3       1 UNL1        0.0000
      5 C         -13.6454  -61.2996   -0.1053 C.ar      1 UNL1        0.0000
      6 C         -13.9655  -62.5312    0.4172 C.ar      1 UNL1        0.0000
      7 C         -14.1903  -63.5979   -0.4052 C.ar      1 UNL1        0.0000
      8 C         -14.1009  -63.4597   -1.7688 C.ar      1 UNL1        0.0000
      9 C         -13.7827  -62.2352   -2.3017 C.ar      1 UNL1        0.0000
     10 C         -13.5558  -61.1600   -1.4693 C.ar      1 UNL1        0.0000
     11 C         -14.3384  -64.5933   -2.6783 C.3       1 UNL1        0.0000
     12 C         -13.5303  -64.3845   -3.9588 C.3       1 UNL1        0.0000
     13 C         -13.8785  -65.8270   -1.9756 C.2       1 UNL1        0.0000
     14 O         -14.6149  -66.8201   -1.8861 O.co2     1 UNL1       -0.5000
     15 O         -12.6265  -65.8428   -1.4305 O.co2     1 UNL1       -0.5000
     16 H         -11.1174  -57.7028    1.0950 H         1 UNL1        0.0000
     17 H         -12.1086  -58.4063    2.3509 H         1 UNL1        0.0000
     18 H         -12.8580  -57.5672    1.0138 H         1 UNL1        0.0000
     19 H         -12.0509  -59.2675   -0.5139 H         1 UNL1        0.0000
     20 H         -10.9826  -60.6018    1.9206 H         1 UNL1        0.0000
     21 H         -10.0373  -59.8636    0.6503 H         1 UNL1        0.0000
     22 H         -11.0134  -61.2717    0.3071 H         1 UNL1        0.0000
     23 H         -14.2087  -59.4668    0.7337 H         1 UNL1        0.0000
     24 H         -13.3677  -60.5609    1.8252 H         1 UNL1        0.0000
     25 H         -14.0356  -62.6503    1.4400 H         1 UNL1        0.0000
     26 H         -14.4294  -64.5160    0.0020 H         1 UNL1        0.0000
     27 H         -13.7135  -62.1190   -3.3250 H         1 UNL1        0.0000
     28 H         -13.3164  -60.2412   -1.8736 H         1 UNL1        0.0000
     29 H         -15.3733  -64.6765   -2.9376 H         1 UNL1        0.0000
     30 H         -12.4918  -64.2991   -3.7149 H         1 UNL1        0.0000
     31 H         -13.8575  -63.4883   -4.4437 H         1 UNL1        0.0000
     32 H         -13.6770  -65.2182   -4.6127 H         1 UNL1        0.0000
@<TRIPOS>BOND
     1    1   17 1
     2    1    2 1
     3    1   16 1
     4    1   18 1
     5    2   19 1
     6    2    3 1
     7    2    4 1
     8    3   21 1
     9    3   22 1
    10    3   20 1
    11    4    5 1
    12    4   24 1
    13    4   23 1
    14    5    6 ar
    15    5   10 ar
    16    6    7 ar
    17    6   25 1
    18    7   26 1
    19    7    8 ar
    20    8    9 ar
    21    8   11 1
    22    9   10 ar
    23    9   27 1
    24   10   28 1
    25   11   29 1
    26   11   12 1
    27   11   13 1
    28   12   30 1
    29   12   31 1
    30   12   32 1
    31   13   15 ar
    32   13   14 ar
@<TRIPOS>SUBSTRUCTURE
1 UNL1 1
@<TRIPOS>COMMENT
ibuprofen
PLANTSproteinTorsions
102
4661 172.8710
5386 162.3663
6210 111.7157
5890 332.9821
4461 87.2595
1390 227.3162
2824 81.5391
4339 32.6187
2732 36.4472
4792 71.0461
3407 165.9996
5134 188.3261
6916 207.6442
7370 63.0146
6038 144.6684
7225 270.8010
3592 180.2361
2064 250.7851
2488 225.0051
1253 137.0924
2069 162.6197
2569 83.5615
3058 251.8873
1748 280.7708
1162 147.4490
1509 75.2609
560 163.5363
1627 118.4539
1941 65.6742
3631 190.3909
2381 46.8679
4221 237.9742
4687 44.7491
6983 19.5360
6668 143.9805
7305 352.7715
8693 117.0621
8404 111.0051
9055 71.0087
7052 283.6742
4708 73.9496
2652 254.4785
4332 56.6827
3011 89.6483
2257 130.2381
2778 315.9799
2057 286.8328
192 208.7696
315 242.1279
1085 103.0665
1007 143.2646
1407 184.5399
4816 129.2818
3131 146.3492
4654 45.5770
5144 15.9993
117 165.3504
6 53.2786
259 236.0182
1979 67.2234
2609 19.9057
2623 7.7408
5910 106.0873
5937 330.0776
2062 74.5744
890 1.4340
5008 262.8975
8602 178.7761
8478 262.6915
8300 252.0944
7721 56.6501
8466 214.2777
7852 304.2414
5849 266.0627
6302 66.2146
7439 252.3555
6284 157.4610
6003 5.5952
7165 202.0137
7623 52.8357
8158 232.2924
8667 264.9159
9078 166.3445
8684 167.6880
7666 121.8125
4231 117.7848
1659 165.5357
489 232.6278
238 201.8062
46 227.5906
83 209.8067
254 249.1213
1066 153.0024
2112 262.6826
4047 271.7833
5402 294.6271
2544 283.3288
4670 252.9583
4426 185.6434
5656 216.4963
7040 71.6792
6282 186.7119
PLANTSmolcadARTstart hb
PLANTSmolcadARTstart HB
LINES
PLANTSmolcadARTstart HBCH
LINES
PLANTSmolcadARTstart HB-CHO
LINES
PLANTSmolcadARTend
PLANTSmolcadARTstart HB_WATER
LINES
PLANTSmolcadARTend

PLANTSmolcadARTend

