@<TRIPOS>MOLECULE
ibuprofen_entry_00001_conf_32
32 32 1
SMALL
NO_CHARGES


@<TRIPOS>ATOM
      1 C         -13.6035  -64.1560   -5.5241 C.3       1 UNL1        0.0000
      2 C         -13.5697  -62.6908   -5.8437 C.3       1 UNL1        0.0000
      3 C         -13.8170  -62.4580   -7.3001 C.3       1 UNL1        0.0000
      4 C         -14.6009  -61.9802   -5.0122 C.3       1 UNL1        0.0000
      5 C         -14.2493  -62.0208   -3.5718 C.ar      1 UNL1        0.0000
      6 C         -14.5834  -63.1396   -2.8445 C.ar      1 UNL1        0.0000
      7 C         -14.2798  -63.2209   -1.5156 C.ar      1 UNL1        0.0000
      8 C         -13.6354  -62.1868   -0.8818 C.ar      1 UNL1        0.0000
      9 C         -13.2965  -61.0654   -1.5975 C.ar      1 UNL1        0.0000
     10 C         -13.6045  -60.9857   -2.9389 C.ar      1 UNL1        0.0000
     11 C         -13.2961  -62.2485    0.5499 C.3       1 UNL1        0.0000
     12 C         -13.0777  -60.8291    1.0734 C.3       1 UNL1        0.0000
     13 C         -14.4513  -62.8826    1.2505 C.2       1 UNL1        0.0000
     14 O         -15.6114  -62.7097    0.8494 O.co2     1 UNL1       -0.5000
     15 O         -14.2069  -63.6602    2.3462 O.co2     1 UNL1       -0.5000
     16 H         -12.8704  -64.6663   -6.1145 H         1 UNL1        0.0000
     17 H         -14.5745  -64.5472   -5.7451 H         1 UNL1        0.0000
     18 H         -13.3883  -64.2991   -4.4861 H         1 UNL1        0.0000
     19 H         -12.5999  -62.3032   -5.6136 H         1 UNL1        0.0000
     20 H         -14.7832  -62.8362   -7.5622 H         1 UNL1        0.0000
     21 H         -13.0690  -62.9637   -7.8739 H         1 UNL1        0.0000
     22 H         -13.7768  -61.4090   -7.5064 H         1 UNL1        0.0000
     23 H         -15.5499  -62.4533   -5.1535 H         1 UNL1        0.0000
     24 H         -14.6397  -60.9571   -5.3228 H         1 UNL1        0.0000
     25 H         -15.0686  -63.9244   -3.3071 H         1 UNL1        0.0000
     26 H         -14.5373  -64.0671   -0.9831 H         1 UNL1        0.0000
     27 H         -12.8111  -60.2822   -1.1322 H         1 UNL1        0.0000
     28 H         -13.3485  -60.1409   -3.4736 H         1 UNL1        0.0000
     29 H         -12.4034  -62.8147    0.7164 H         1 UNL1        0.0000
     30 H         -13.9633  -60.2500    0.9133 H         1 UNL1        0.0000
     31 H         -12.2587  -60.3796    0.5514 H         1 UNL1        0.0000
     32 H         -12.8578  -60.8650    2.1196 H         1 UNL1        0.0000
@<TRIPOS>BOND
     1    1   17 1
     2    1    2 1
     3    1   16 1
     4    1   18 1
     5    2   19 1
     6    2    3 1
     7    2    4 1
     8    3   21 1
     9    3   22 1
    10    3   20 1
    11    4    5 1
    12    4   24 1
    13    4   23 1
    14    5    6 ar
    15    5   10 ar
    16    6    7 ar
    17    6   25 1
    18    7   26 1
    19    7    8 ar
    20    8    9 ar
    21    8   11 1
    22    9   10 ar
    23    9   27 1
    24   10   28 1
    25   11   29 1
    26   11   12 1
    27   11   13 1
    28   12   30 1
    29   12   31 1
    30   12   32 1
    31   13   15 ar
    32   13   14 ar
@<TRIPOS>SUBSTRUCTURE
1 UNL1 1
@<TRIPOS>COMMENT
ibuprofen
PLANTSproteinTorsions
102
4661 324.2943
5386 164.5905
6210 29.0517
5890 121.7630
4461 57.9074
1390 119.7693
2824 133.4959
4339 101.4526
2732 242.6526
4792 306.7955
3407 356.9167
5134 340.7583
6916 327.5412
7370 247.7791
6038 164.3579
7225 153.3192
3592 156.7115
2064 88.4785
2488 55.6782
1253 187.6483
2069 318.5309
2569 96.5086
3058 135.6738
1748 244.0406
1162 44.9153
1509 298.9889
560 47.1906
1627 61.2225
1941 228.4771
3631 169.8114
2381 86.7143
4221 76.2123
4687 218.0277
6983 358.8110
6668 153.0208
7305 208.4247
8693 107.6103
8404 224.9239
9055 105.8875
7052 49.2392
4708 162.0307
2652 157.4858
4332 163.2237
3011 132.4702
2257 290.4394
2778 88.6276
2057 135.9946
192 210.3333
315 302.7448
1085 227.8724
1007 112.4753
1407 118.3669
4816 129.1095
3131 273.6755
4654 194.2303
5144 148.9570
117 168.2745
6 201.6511
259 222.1197
1979 269.4146
2609 124.2728
2623 215.1846
5910 145.5948
5937 296.8855
2062 110.2331
890 315.7509
5008 248.8729
8602 114.1913
8478 199.0548
8300 252.4348
7721 304.3739
8466 146.7430
7852 104.5178
5849 98.0875
6302 258.0077
7439 90.9607
6284 247.1414
6003 65.4465
7165 233.9815
7623 201.9377
8158 238.4860
8667 198.0968
9078 228.0357
8684 116.0455
7666 164.4245
4231 135.0740
1659 232.3878
489 330.4168
238 188.3808
46 180.2089
83 250.5725
254 110.6691
1066 200.8299
2112 104.6095
4047 259.2876
5402 177.8297
2544 286.4581
4670 191.9622
4426 240.4867
5656 225.7893
7040 253.2520
6282 263.7045
PLANTSmolcadARTstart hb
PLANTSmolcadARTstart HB
LINES
PLANTSmolcadARTstart HBCH
LINES
PLANTSmolcadARTstart HB-CHO
LINES
PLANTSmolcadARTend
PLANTSmolcadARTstart HB_WATER
LINES
PLANTSmolcadARTend

PLANTSmolcadARTend

