@<TRIPOS>MOLECULE
ibuprofen_entry_00001_conf_26
32 32 1
SMALL
NO_CHARGES


@<TRIPOS>ATOM
      1 C         -15.0372  -67.1064   -2.1323 C.3       1 UNL1        0.0000
      2 C         -15.0663  -65.6693   -1.7034 C.3       1 UNL1        0.0000
      3 C         -16.2569  -65.3955   -0.8409 C.3       1 UNL1        0.0000
      4 C         -13.7954  -65.3478   -0.9678 C.3       1 UNL1        0.0000
      5 C         -13.7507  -63.9185   -0.5738 C.ar      1 UNL1        0.0000
      6 C         -13.1254  -63.0245   -1.4117 C.ar      1 UNL1        0.0000
      7 C         -13.0597  -61.6991   -1.0895 C.ar      1 UNL1        0.0000
      8 C         -13.6171  -61.2354    0.0770 C.ar      1 UNL1        0.0000
      9 C         -14.2444  -62.1182    0.9207 C.ar      1 UNL1        0.0000
     10 C         -14.3089  -63.4557    0.5934 C.ar      1 UNL1        0.0000
     11 C         -13.5607  -59.8115    0.4485 C.3       1 UNL1        0.0000
     12 C         -13.6627  -59.6871    1.9684 C.3       1 UNL1        0.0000
     13 C         -12.2469  -59.2837   -0.0235 C.2       1 UNL1        0.0000
     14 O         -12.0863  -58.9396   -1.2034 O.co2     1 UNL1       -0.5000
     15 O         -11.2200  -59.1862    0.8715 O.co2     1 UNL1       -0.5000
     16 H         -15.9410  -67.3400   -2.6567 H         1 UNL1        0.0000
     17 H         -14.9526  -67.7345   -1.2703 H         1 UNL1        0.0000
     18 H         -14.1988  -67.2689   -2.7764 H         1 UNL1        0.0000
     19 H         -15.1428  -65.0458   -2.5689 H         1 UNL1        0.0000
     20 H         -16.2091  -66.0064    0.0365 H         1 UNL1        0.0000
     21 H         -17.1502  -65.6219   -1.3842 H         1 UNL1        0.0000
     22 H         -16.2632  -64.3640   -0.5572 H         1 UNL1        0.0000
     23 H         -12.9611  -65.5614   -1.6022 H         1 UNL1        0.0000
     24 H         -13.7574  -65.9450   -0.0809 H         1 UNL1        0.0000
     25 H         -12.7013  -63.3586   -2.2913 H         1 UNL1        0.0000
     26 H         -12.5868  -61.0404   -1.7285 H         1 UNL1        0.0000
     27 H         -14.6677  -61.7811    1.7997 H         1 UNL1        0.0000
     28 H         -14.7808  -64.1165    1.2304 H         1 UNL1        0.0000
     29 H         -14.3640  -59.2597    0.0063 H         1 UNL1        0.0000
     30 H         -12.8648  -60.2349    2.4252 H         1 UNL1        0.0000
     31 H         -14.6010  -60.0845    2.2957 H         1 UNL1        0.0000
     32 H         -13.5947  -58.6566    2.2471 H         1 UNL1        0.0000
@<TRIPOS>BOND
     1    1   17 1
     2    1    2 1
     3    1   16 1
     4    1   18 1
     5    2   19 1
     6    2    3 1
     7    2    4 1
     8    3   21 1
     9    3   22 1
    10    3   20 1
    11    4    5 1
    12    4   24 1
    13    4   23 1
    14    5    6 ar
    15    5   10 ar
    16    6    7 ar
    17    6   25 1
    18    7   26 1
    19    7    8 ar
    20    8    9 ar
    21    8   11 1
    22    9   10 ar
    23    9   27 1
    24   10   28 1
    25   11   29 1
    26   11   12 1
    27   11   13 1
    28   12   30 1
    29   12   31 1
    30   12   32 1
    31   13   15 ar
    32   13   14 ar
@<TRIPOS>SUBSTRUCTURE
1 UNL1 1
@<TRIPOS>COMMENT
ibuprofen
PLANTSproteinTorsions
102
4661 102.8198
5386 180.7016
6210 113.8298
5890 156.7859
4461 93.7644
1390 180.2413
2824 102.1687
4339 42.4499
2732 42.7508
4792 270.2268
3407 17.1816
5134 329.4004
6916 124.8209
7370 248.3240
6038 25.9089
7225 35.0955
3592 144.0555
2064 173.9724
2488 240.5185
1253 131.1610
2069 204.7425
2569 88.1917
3058 137.5247
1748 184.4416
1162 294.6308
1509 127.6805
560 110.3591
1627 322.3279
1941 236.3737
3631 6.4160
2381 8.1623
4221 107.5088
4687 341.7103
6983 161.6609
6668 278.7371
7305 172.8867
8693 67.5867
8404 357.6501
9055 137.7722
7052 199.1862
4708 78.0641
2652 133.2569
4332 178.5373
3011 43.7305
2257 270.3844
2778 232.8015
2057 125.8210
192 123.4929
315 209.9666
1085 98.6571
1007 98.4727
1407 120.0834
4816 212.8162
3131 49.8350
4654 48.2839
5144 131.5193
117 166.9331
6 71.3023
259 44.7079
1979 170.7159
2609 30.1529
2623 299.2910
5910 122.2697
5937 94.5692
2062 66.3131
890 78.0939
5008 323.1613
8602 196.1926
8478 119.6900
8300 186.1948
7721 93.4620
8466 91.3270
7852 57.9762
5849 323.0459
6302 65.6366
7439 254.4268
6284 93.0959
6003 73.0536
7165 282.6009
7623 72.6230
8158 238.8770
8667 142.0230
9078 169.3005
8684 235.8152
7666 80.3226
4231 212.3772
1659 169.2161
489 224.2915
238 257.8060
46 123.7551
83 251.0231
254 139.0515
1066 148.3653
2112 260.5850
4047 259.4417
5402 101.1916
2544 150.1465
4670 44.4896
4426 358.4768
5656 145.4843
7040 225.6955
6282 157.6381
PLANTSmolcadARTstart hb
PLANTSmolcadARTstart HB
LINES
-12.0863 -58.9396 -1.20343 -11.654 -59.599 -3.055 0 255 0 5
PLANTSmolcadARTstart HBCH
LINES
PLANTSmolcadARTstart HB-CHO
LINES
PLANTSmolcadARTend
PLANTSmolcadARTstart HB_WATER
LINES
PLANTSmolcadARTend

PLANTSmolcadARTend

