@<TRIPOS>MOLECULE
ibuprofen_entry_00001_conf_43
32 32 1
SMALL
NO_CHARGES


@<TRIPOS>ATOM
      1 C         -20.6556  -30.8627   18.9332 C.3       1 UNL1        0.0000
      2 C         -21.6185  -30.5169   17.8362 C.3       1 UNL1        0.0000
      3 C         -21.5824  -29.0517   17.5389 C.3       1 UNL1        0.0000
      4 C         -21.2754  -31.3139   16.6087 C.3       1 UNL1        0.0000
      5 C         -21.7073  -32.7261   16.7481 C.ar      1 UNL1        0.0000
      6 C         -21.6193  -33.5520   15.6516 C.ar      1 UNL1        0.0000
      7 C         -22.0058  -34.8592   15.7333 C.ar      1 UNL1        0.0000
      8 C         -22.4890  -35.3723   16.9122 C.ar      1 UNL1        0.0000
      9 C         -22.5807  -34.5576   18.0134 C.ar      1 UNL1        0.0000
     10 C         -22.1903  -33.2383   17.9280 C.ar      1 UNL1        0.0000
     11 C         -22.9125  -36.7780   17.0279 C.3       1 UNL1        0.0000
     12 C         -22.2447  -37.4019   18.2530 C.3       1 UNL1        0.0000
     13 C         -24.3957  -36.7801   17.1939 C.2       1 UNL1        0.0000
     14 O         -24.9404  -36.0738   18.0547 O.co2     1 UNL1       -0.5000
     15 O         -25.1455  -37.5774   16.3774 O.co2     1 UNL1       -0.5000
     16 H         -20.8962  -30.2969   19.8098 H         1 UNL1        0.0000
     17 H         -19.6594  -30.6293   18.6204 H         1 UNL1        0.0000
     18 H         -20.7258  -31.9073   19.1524 H         1 UNL1        0.0000
     19 H         -22.6114  -30.7595   18.1508 H         1 UNL1        0.0000
     20 H         -20.5984  -28.7770   17.2203 H         1 UNL1        0.0000
     21 H         -21.8374  -28.5027   18.4211 H         1 UNL1        0.0000
     22 H         -22.2841  -28.8269   16.7632 H         1 UNL1        0.0000
     23 H         -20.2167  -31.2857   16.4586 H         1 UNL1        0.0000
     24 H         -21.7863  -30.8844   15.7725 H         1 UNL1        0.0000
     25 H         -21.2588  -33.1802   14.7588 H         1 UNL1        0.0000
     26 H         -21.9340  -35.4666   14.9016 H         1 UNL1        0.0000
     27 H         -22.9415  -34.9323   18.9049 H         1 UNL1        0.0000
     28 H         -22.2612  -32.6287   18.7578 H         1 UNL1        0.0000
     29 H         -22.6340  -37.3429   16.1627 H         1 UNL1        0.0000
     30 H         -22.5141  -36.8466   19.1273 H         1 UNL1        0.0000
     31 H         -21.1819  -37.3785   18.1294 H         1 UNL1        0.0000
     32 H         -22.5696  -38.4155   18.3586 H         1 UNL1        0.0000
@<TRIPOS>BOND
     1    1   17 1
     2    1    2 1
     3    1   16 1
     4    1   18 1
     5    2   19 1
     6    2    3 1
     7    2    4 1
     8    3   21 1
     9    3   22 1
    10    3   20 1
    11    4    5 1
    12    4   24 1
    13    4   23 1
    14    5    6 ar
    15    5   10 ar
    16    6    7 ar
    17    6   25 1
    18    7   26 1
    19    7    8 ar
    20    8    9 ar
    21    8   11 1
    22    9   10 ar
    23    9   27 1
    24   10   28 1
    25   11   29 1
    26   11   12 1
    27   11   13 1
    28   12   30 1
    29   12   31 1
    30   12   32 1
    31   13   15 ar
    32   13   14 ar
@<TRIPOS>SUBSTRUCTURE
1 UNL1 1
@<TRIPOS>COMMENT
ibuprofen
PLANTSproteinTorsions
102
4661 65.8410
5386 71.1104
6210 118.4496
5890 179.6125
4461 113.5731
1390 0.0423
2824 75.6071
4339 357.6254
2732 22.2618
4792 104.0399
3407 355.3687
5134 328.2234
6916 252.3040
7370 352.9934
6038 96.1171
7225 22.9173
3592 74.3439
2064 322.1624
2488 25.7815
1253 55.0657
2069 326.1761
2569 354.4194
3058 38.1412
1748 141.9220
1162 68.6399
1509 24.6646
560 61.5773
1627 10.3590
1941 122.8131
3631 111.5609
2381 192.5923
4221 281.6744
4687 353.4694
6983 161.0931
6668 123.0365
7305 190.4044
8693 55.4317
8404 109.1082
9055 219.6756
7052 240.0866
4708 322.5739
2652 219.8312
4332 323.7486
3011 231.2856
2257 45.2605
2778 34.7470
2057 232.7747
192 232.7470
315 153.7127
1085 268.1885
1007 265.6443
1407 237.0444
4816 165.2868
3131 250.5523
4654 235.8733
5144 48.4718
117 31.0005
6 236.9693
259 314.3525
1979 110.0259
2609 8.5515
2623 190.3052
5910 284.5139
5937 171.2244
2062 200.4190
890 34.2620
5008 215.0739
8602 130.7866
8478 295.2965
8300 150.1455
7721 263.1370
8466 193.4606
7852 33.2815
5849 77.9066
6302 285.1064
7439 316.6487
6284 52.9912
6003 138.5633
7165 245.8809
7623 134.8796
8158 210.5337
8667 240.9841
9078 207.7418
8684 264.4918
7666 299.9095
4231 45.0361
1659 193.5969
489 270.7162
238 137.5385
46 175.5266
83 222.7621
254 68.4599
1066 251.8334
2112 164.6444
4047 123.3934
5402 320.4214
2544 221.4131
4670 180.8224
4426 172.4297
5656 240.3309
7040 76.6274
6282 321.0231
PLANTSmolcadARTstart hb
PLANTSmolcadARTstart HB
LINES
PLANTSmolcadARTstart HBCH
LINES
PLANTSmolcadARTstart HB-CHO
LINES
PLANTSmolcadARTend
PLANTSmolcadARTstart HB_WATER
LINES
PLANTSmolcadARTend

PLANTSmolcadARTend

