@<TRIPOS>MOLECULE
ibuprofen_entry_00001_conf_11
32 32 1
SMALL
NO_CHARGES


@<TRIPOS>ATOM
      1 C         -13.1583  -53.4246    3.7664 C.3       1 UNL1        0.0000
      2 C         -13.8981  -54.0564    2.6246 C.3       1 UNL1        0.0000
      3 C         -14.5772  -53.0172    1.7907 C.3       1 UNL1        0.0000
      4 C         -12.9335  -54.8544    1.7926 C.3       1 UNL1        0.0000
      5 C         -13.6478  -55.6875    0.7947 C.ar      1 UNL1        0.0000
      6 C         -13.6701  -57.0515    0.9718 C.ar      1 UNL1        0.0000
      7 C         -14.3152  -57.8578    0.0782 C.ar      1 UNL1        0.0000
      8 C         -14.9533  -57.3209   -1.0131 C.ar      1 UNL1        0.0000
      9 C         -14.9382  -55.9610   -1.1999 C.ar      1 UNL1        0.0000
     10 C         -14.2859  -55.1492   -0.2966 C.ar      1 UNL1        0.0000
     11 C         -15.6563  -58.1674   -1.9918 C.3       1 UNL1        0.0000
     12 C         -16.6401  -57.3054   -2.7826 C.3       1 UNL1        0.0000
     13 C         -14.6231  -58.7377   -2.9054 C.2       1 UNL1        0.0000
     14 O         -14.8217  -58.8055   -4.1270 O.co2     1 UNL1       -0.5000
     15 O         -13.4496  -59.1855   -2.3694 O.co2     1 UNL1       -0.5000
     16 H         -13.8417  -52.8547    4.3619 H         1 UNL1        0.0000
     17 H         -12.3951  -52.7796    3.3840 H         1 UNL1        0.0000
     18 H         -12.7122  -54.1885    4.3679 H         1 UNL1        0.0000
     19 H         -14.6541  -54.7058    3.0122 H         1 UNL1        0.0000
     20 H         -13.8445  -52.3496    1.3872 H         1 UNL1        0.0000
     21 H         -15.2647  -52.4665    2.3977 H         1 UNL1        0.0000
     22 H         -15.1069  -53.4907    0.9909 H         1 UNL1        0.0000
     23 H         -12.3624  -55.4915    2.4347 H         1 UNL1        0.0000
     24 H         -12.2937  -54.1742    1.2704 H         1 UNL1        0.0000
     25 H         -13.1943  -57.4693    1.7868 H         1 UNL1        0.0000
     26 H         -14.3230  -58.8798    0.2246 H         1 UNL1        0.0000
     27 H         -15.4150  -55.5460   -2.0159 H         1 UNL1        0.0000
     28 H         -14.2763  -54.1273   -0.4406 H         1 UNL1        0.0000
     29 H         -16.2013  -58.9524   -1.5100 H         1 UNL1        0.0000
     30 H         -16.1089  -56.5147   -3.2704 H         1 UNL1        0.0000
     31 H         -17.3648  -56.8887   -2.1144 H         1 UNL1        0.0000
     32 H         -17.1346  -57.9090   -3.5143 H         1 UNL1        0.0000
@<TRIPOS>BOND
     1    1   17 1
     2    1    2 1
     3    1   16 1
     4    1   18 1
     5    2   19 1
     6    2    3 1
     7    2    4 1
     8    3   21 1
     9    3   22 1
    10    3   20 1
    11    4    5 1
    12    4   24 1
    13    4   23 1
    14    5    6 ar
    15    5   10 ar
    16    6    7 ar
    17    6   25 1
    18    7   26 1
    19    7    8 ar
    20    8    9 ar
    21    8   11 1
    22    9   10 ar
    23    9   27 1
    24   10   28 1
    25   11   29 1
    26   11   12 1
    27   11   13 1
    28   12   30 1
    29   12   31 1
    30   12   32 1
    31   13   15 ar
    32   13   14 ar
@<TRIPOS>SUBSTRUCTURE
1 UNL1 1
@<TRIPOS>COMMENT
ibuprofen
PLANTSproteinTorsions
102
4661 157.1604
5386 69.3049
6210 272.2463
5890 35.3042
4461 175.8112
1390 225.3645
2824 24.9008
4339 355.9000
2732 29.4105
4792 30.1762
3407 225.1440
5134 356.3824
6916 59.0104
7370 188.6201
6038 73.6693
7225 167.3161
3592 332.9977
2064 353.2093
2488 223.2940
1253 68.7620
2069 187.7537
2569 330.8610
3058 199.3509
1748 287.4653
1162 267.4137
1509 265.5970
560 319.7147
1627 17.2853
1941 249.9837
3631 132.7186
2381 307.5227
4221 131.0970
4687 109.7930
6983 34.5455
6668 34.0151
7305 209.0922
8693 100.8300
8404 54.2825
9055 357.9491
7052 40.2690
4708 138.8153
2652 97.7160
4332 312.4306
3011 256.0108
2257 251.6249
2778 3.1556
2057 75.5144
192 230.2923
315 214.0204
1085 202.4884
1007 127.6349
1407 64.6345
4816 352.0287
3131 102.7373
4654 208.6665
5144 234.7911
117 33.1033
6 151.9883
259 207.9323
1979 20.4957
2609 15.0738
2623 152.6557
5910 276.9241
5937 155.3473
2062 98.4602
890 8.3232
5008 249.2416
8602 230.1126
8478 164.4931
8300 124.2146
7721 138.1478
8466 279.1210
7852 160.2582
5849 188.3196
6302 253.8648
7439 181.1551
6284 117.3551
6003 158.0648
7165 107.8367
7623 153.9452
8158 247.1668
8667 153.4274
9078 180.9493
8684 35.9636
7666 198.1918
4231 174.3822
1659 263.6415
489 159.7410
238 326.4159
46 184.4687
83 2.6703
254 192.0299
1066 342.4262
2112 114.5829
4047 253.2573
5402 17.6692
2544 129.3607
4670 251.1025
4426 307.9016
5656 188.2250
7040 250.3015
6282 237.4375
PLANTSmolcadARTstart hb
PLANTSmolcadARTstart HB
LINES
-14.8217 -58.8055 -4.12701 -16.0938 -59.0685 -5.40608 0 255 0 5
-13.4496 -59.1855 -2.36942 -11.654 -59.599 -3.055 0 255 0 5
PLANTSmolcadARTstart HBCH
LINES
PLANTSmolcadARTstart HB-CHO
LINES
PLANTSmolcadARTend
PLANTSmolcadARTstart HB_WATER
LINES
PLANTSmolcadARTend

PLANTSmolcadARTend

