@<TRIPOS>MOLECULE
ibuprofen_entry_00001_conf_29_protein
256 154 102
SMALL
NO_CHARGES


@<TRIPOS>ATOM
      1 H           2.3705  -83.1292    1.3670 H        28 GLY28      -0.0894
      2 N           1.9710  -83.9720    1.7370 N.4      28 GLY28       0.3838
      3 H2          2.6377  -84.7155    1.6385 H        28 GLY28      -0.0894
      4 H3          1.1522  -84.2013    1.2031 H        28 GLY28      -0.0894
      5 HG1        -5.1503  -76.9652    6.1502 H        31 THR31       0.2099
      6 OG1        -5.5490  -77.8520    5.8930 O.3      31 THR31      -0.3897
      7 HH         -3.8034  -66.7285    9.3634 H        38 TYR38       0.2921
      8 OH         -4.6290  -67.0170    8.8830 O.3      38 TYR38      -0.5068
      9 HH        -14.8260  -64.0559    7.3418 H        39 TYR39       0.2921
     10 OH        -15.2560  -63.1550    7.3150 O.3      39 TYR39      -0.5068
     11 HH         -1.5108  -59.7215    1.9631 H        55 TYR55       0.2921
     12 OH         -2.4450  -59.4310    1.7660 O.3      55 TYR55      -0.5068
     13 HG1        -8.3556  -52.7278  -12.6690 H        60 THR60       0.2099
     14 OG1        -8.4490  -52.9250  -11.6880 O.3      60 THR60      -0.3897
     15 HG1        -8.8801  -50.1429   -4.3498 H        62 THR62       0.2099
     16 OG1        -9.2280  -49.6990   -5.1820 O.3      62 THR62      -0.3897
     17 HH         -9.2496  -43.0083    1.1373 H        64 TYR64       0.2921
     18 OH         -9.5040  -43.9480    1.3590 O.3      64 TYR64      -0.5068
     19 HG         -0.7594  -47.6126   -4.7155 H        65 SER65       0.2095
     20 OG         -1.6780  -47.2380   -4.8310 O.3      65 SER65      -0.3927
     21 HG1        -3.0716  -51.5436    1.5988 H        70 THR70       0.2099
     22 OG1        -2.7710  -50.8080    2.2150 O.3      70 THR70      -0.3897
     23 HG1        -6.9368  -41.3219   -1.9779 H        76 THR76       0.2099
     24 OG1        -7.4980  -42.0730   -2.3400 O.3      76 THR76      -0.3897
     25 HG         -8.0589  -35.3625    3.0342 H        81 SER81       0.2095
     26 OG         -7.2260  -35.3370    3.5860 O.3      81 SER81      -0.3927
     27 HG        -17.7952  -40.0982   12.4313 H        85 SER85       0.2095
     28 OG        -18.4230  -39.3210   12.4060 O.3      85 SER85      -0.3927
     29 HG        -21.6523  -41.6814   13.0496 H        87 SER87       0.2095
     30 OG        -21.7540  -41.4260   14.0100 O.3      87 SER87      -0.3927
     31 HG1       -21.6026  -37.3169    7.5158 H        89 THR89       0.2099
     32 OG1       -21.9430  -36.3830    7.3650 O.3      89 THR89      -0.3897
     33 HG1       -29.7409  -34.5287   14.6641 H        94 THR94       0.2099
     34 OG1       -29.7610  -34.2720   13.6920 O.3      94 THR94      -0.3897
     35 HG1       -31.5112  -21.7660   -0.6853 H       106 THR106      0.2099
     36 OG1       -31.9840  -22.2340   -1.4400 O.3     106 THR106     -0.3897
     37 HG1       -25.5874  -36.7349   -7.9062 H       118 THR118      0.2099
     38 OG1       -25.4270  -37.7120   -8.0780 O.3     118 THR118     -0.3897
     39 HG        -28.7169  -43.9399   -6.5600 H       121 SER121      0.2095
     40 OG        -28.0170  -43.6970   -5.8890 O.3     121 SER121     -0.3927
     41 HG        -21.7285  -49.9280  -13.4848 H       126 SER126      0.2095
     42 OG        -21.9940  -50.0310  -12.5270 O.3     126 SER126     -0.3927
     43 HG1       -20.8961  -57.4634   -6.0308 H       129 THR129      0.2099
     44 OG1       -21.5190  -57.3710   -6.8150 O.3     129 THR129     -0.3897
     45 HH        -17.0002  -57.6809   -6.0468 H       130 TYR130      0.2921
     46 OH        -16.7630  -58.6500   -6.0170 O.3     130 TYR130     -0.5068
     47 HG        -27.6944  -67.4101   -5.0746 H       132 SER132      0.2095
     48 OG        -28.2430  -67.4690   -4.2420 O.3     132 SER132     -0.3927
     49 HH        -17.7879  -70.3399  -10.3534 H       136 TYR136      0.2921
     50 OH        -18.4010  -69.8190   -9.7630 O.3     136 TYR136     -0.5068
     51 HG        -21.6351  -66.0869  -11.6092 H       138 SER138      0.2095
     52 OG        -21.7000  -65.3460  -12.2760 O.3     138 SER138     -0.3927
     53 HG        -24.0069  -62.5603   -9.2445 H       141 SER141      0.2095
     54 OG        -24.2850  -62.2830  -10.1630 O.3     141 SER141     -0.3927
     55 HG        -27.4989  -65.4843  -17.9009 H       143 SER143      0.2095
     56 OG        -27.8490  -64.9650  -17.1220 O.3     143 SER143     -0.3927
     57 HG        -36.4697  -67.0509   -9.5445 H       146 SER146      0.2095
     58 OG        -35.5350  -67.3800   -9.4140 O.3     146 SER146     -0.3927
     59 HH        -28.7917  -70.8142   -9.5963 H       147 TYR147      0.2921
     60 OH        -28.4260  -70.4670   -8.7350 O.3     147 TYR147     -0.5068
     61 HH        -37.0347  -62.4372   -2.0240 H       148 TYR148      0.2921
     62 OH        -36.4560  -61.7190   -1.6440 O.3     148 TYR148     -0.5068
     63 HG1       -25.9317  -57.9688   -6.3500 H       149 THR149      0.2099
     64 OG1       -26.1570  -58.8760   -6.7210 O.3     149 THR149     -0.3897
     65 HG        -20.8355  -67.3697   -0.3446 H       154 SER154      0.2095
     66 OG        -20.0840  -66.8360    0.0410 O.3     154 SER154     -0.3927
     67 HZ1       -21.9226  -73.4005    1.0232 H       157 LYS157     -0.0901
     68 NZ        -21.3030  -73.3640    1.8070 N.4     157 LYS157      0.3781
     69 HZ2       -21.8223  -73.1521    2.6344 H       157 LYS157     -0.0901
     70 HZ3       -20.6118  -72.6582    1.6559 H       157 LYS157     -0.0901
     71 HG1       -13.4005  -67.5272   11.2865 H       161 THR161      0.2099
     72 OG1       -13.9700  -67.3810   12.1020 O.3     161 THR161     -0.3897
     73 HG1       -10.5055  -63.5716   10.7517 H       165 THR165      0.2099
     74 OG1        -9.5520  -63.8260   10.5610 O.3     165 THR165     -0.3897
     75 HZ1        -7.0725  -62.4556   15.0668 H       166 LYS166     -0.0901
     76 NZ         -7.2730  -62.7880   14.1460 N.4     166 LYS166      0.3781
     77 HZ2        -7.4028  -63.7790   14.1684 H       166 LYS166     -0.0901
     78 HZ3        -6.5138  -62.5630   13.5364 H       166 LYS166     -0.0901
     79 HZ1       -18.5377  -67.1508   24.0686 H       168 LYS168     -0.0901
     80 NZ        -18.1320  -68.0390   23.8530 N.4     168 LYS168      0.3781
     81 HZ2       -18.8376  -68.6526   23.4999 H       168 LYS168     -0.0901
     82 HZ3       -17.7293  -68.4318   24.6790 H       168 LYS168     -0.0901
     83 HZ1       -15.5901  -76.9213   20.3180 H       169 LYS169     -0.0901
     84 NZ        -15.7760  -75.9460   20.4320 N.4     169 LYS169      0.3781
     85 HZ2       -16.1192  -75.7758   21.3556 H       169 LYS169     -0.0901
     86 HZ3       -16.4587  -75.6549   19.7624 H       169 LYS169     -0.0901
     87 HZ1       -42.6133  -48.1475   31.0033 H       186 LYS186     -0.0901
     88 NZ        -42.5640  -49.1260   31.2020 N.4     186 LYS186      0.3781
     89 HZ2       -43.4119  -49.4223   31.6411 H       186 LYS186     -0.0901
     90 HZ3       -41.7911  -49.3060   31.8096 H       186 LYS186     -0.0901
     91 HG1       -40.7987  -43.5739   12.4913 H       194 THR194      0.2099
     92 OG1       -41.7230  -43.2040   12.3500 O.3     194 THR194     -0.3897
     93 HG1       -42.8502  -54.9018    2.5242 H       206 THR206      0.2099
     94 OG1       -41.9280  -54.7860    2.9080 O.3     206 THR206     -0.3897
     95 HZ1       -44.6179  -60.3038   -6.7015 H       211 LYS211     -0.0901
     96 NZ        -45.0200  -60.4690   -5.8010 N.4     211 LYS211      0.3781
     97 HZ2       -45.4468  -61.3728   -5.7856 H       211 LYS211     -0.0901
     98 HZ3       -45.7085  -59.7710   -5.6086 H       211 LYS211     -0.0901
     99 HG1       -37.1255  -64.3409    1.7354 H       212 THR212      0.2099
    100 OG1       -37.0600  -64.5640    0.7570 O.3     212 THR212     -0.3897
    101 HG        -40.6114  -70.3321   -4.4225 H       213 SER213      0.2095
    102 OG        -39.6210  -70.4680   -4.4390 O.3     213 SER213     -0.3927
    103 HZ1       -40.6887  -71.1213   -6.8228 H       215 LYS215     -0.0901
    104 NZ        -40.7140  -72.0550   -7.1780 N.4     215 LYS215      0.3781
    105 HZ2       -39.9060  -72.5535   -6.8671 H       215 LYS215     -0.0901
    106 HZ3       -40.7318  -72.0333   -8.1769 H       215 LYS215     -0.0901
    107 HG1       -37.6408  -61.6375   -6.1599 H       221 THR221      0.2099
    108 OG1       -37.7410  -62.2150   -5.3430 O.3     221 THR221     -0.3897
    109 HZ1       -42.8384  -70.2425   -7.7206 H       222 LYS222     -0.0901
    110 NZ        -42.2670  -69.5280   -8.1230 N.4     222 LYS222      0.3781
    111 HZ2       -42.5408  -69.3735   -9.0721 H       222 LYS222     -0.0901
    112 HZ3       -41.3083  -69.8079   -8.0923 H       222 LYS222     -0.0901
    113 HH        -51.8771  -59.7976  -22.0771 H       242 TYR242      0.2921
    114 OH        -51.5270  -60.6600  -21.7160 O.3     242 TYR242     -0.5068
    115 HZ1       -69.1672  -51.6828  -20.3287 H       248 LYS248     -0.0901
    116 NZ        -68.1830  -51.5330  -20.2430 N.4     248 LYS248      0.3781
    117 HZ2       -67.9538  -50.6156  -20.5660 H       248 LYS248     -0.0901
    118 HZ3       -67.6923  -52.2126  -20.7873 H       248 LYS248     -0.0901
    119 HZ1       -64.5185  -46.5576  -13.1416 H       251 LYS251     -0.0901
    120 NZ        -64.3690  -47.5440  -13.0810 N.4     251 LYS251      0.3781
    121 HZ2       -65.1394  -48.0257  -13.4979 H       251 LYS251     -0.0901
    122 HZ3       -64.2868  -47.8121  -12.1221 H       251 LYS251     -0.0901
    123 HZ1       -62.2233  -60.6426  -14.6822 H       253 LYS253     -0.0901
    124 NZ        -61.7340  -61.4150  -14.2790 N.4     253 LYS253      0.3781
    125 HZ2       -60.8390  -61.5095  -14.7145 H       253 LYS253     -0.0901
    126 HZ3       -62.2621  -62.2528  -14.4124 H       253 LYS253     -0.0901
    127 HH        -68.8240  -51.3307  -11.1376 H       254 TYR254      0.2921
    128 OH        -67.9490  -51.2120  -11.6040 O.3     254 TYR254     -0.5068
    129 HH        -64.5496  -50.9418    3.8382 H       262 TYR262      0.2921
    130 OH        -65.3490  -51.3490    3.4010 O.3     262 TYR262     -0.5068
    131 HG        -64.8260  -64.3866   -3.1764 H       265 SER265      0.2095
    132 OG        -65.2160  -63.5150   -2.8830 O.3     265 SER265     -0.3927
    133 HH        -59.6940  -61.5425    1.3899 H       275 TYR275      0.2921
    134 OH        -58.7510  -61.6620    1.6930 O.3     275 TYR275     -0.5068
    135 HG        -67.0320  -64.4313    3.3370 H       283 SER283      0.2095
    136 OG        -66.4350  -64.2560    4.1190 O.3     283 SER283     -0.3927
    137 HZ1       -62.4613  -47.3660  -23.1100 H       317 LYS317     -0.0901
    138 NZ        -62.9320  -46.6960  -23.6840 N.4     317 LYS317      0.3781
    139 HZ2       -63.7231  -47.1250  -24.1194 H       317 LYS317     -0.0901
    140 HZ3       -62.3062  -46.3571  -24.3852 H       317 LYS317     -0.0901
    141 HG1       -57.7445  -42.1377  -29.8810 H       322 THR322      0.2099
    142 OG1       -58.6530  -41.8510  -29.5590 O.3     322 THR322     -0.3897
    143 HG1       -51.2914  -46.6167  -21.2713 H       331 THR331      0.2099
    144 OG1       -50.7660  -45.8310  -20.9280 O.3     331 THR331     -0.3897
    145 HE2       -52.3845  -42.2094   -8.6872 H       339 GLU339      0.2951
    146 OE2       -51.4690  -42.4210   -8.5640 O.3     339 GLU339     -0.4806
    147 HG1       -46.7986  -46.6100   -6.8491 H       340 THR340      0.2099
    148 OG1       -46.5450  -46.8770   -5.9140 O.3     340 THR340     -0.3897
    149 HZ1       -43.3799  -35.2754   -5.9821 H       342 LYS342     -0.0901
    150 NZ        -44.2730  -34.8380   -5.8830 N.4     342 LYS342      0.3781
    151 HZ2       -44.6798  -34.6961   -6.7850 H       342 LYS342     -0.0901
    152 HZ3       -44.1661  -33.9580   -5.4221 H       342 LYS342     -0.0901
    153 HG        -35.7959  -38.2180    6.5771 H       353 SER353      0.2095
    154 OG        -34.8470  -38.0790    6.8560 O.3     353 SER353     -0.3927
    155 HH        -29.5417  -39.5435    7.7678 H       355 TYR355      0.2921
    156 OH        -29.4390  -38.9590    6.9650 O.3     355 TYR355     -0.5068
    157 HZ1       -36.9075  -30.5111   -8.9672 H       360 LYS360     -0.0901
    158 NZ        -37.0810  -30.0700   -8.0870 N.4     360 LYS360      0.3781
    159 HZ2       -37.5866  -29.2203   -8.2323 H       360 LYS360     -0.0901
    160 HZ3       -36.2120  -29.8702   -7.6352 H       360 LYS360     -0.0901
    161 HH        -31.5865  -40.2409  -15.6423 H       373 TYR373      0.2921
    162 OH        -31.5330  -40.6670  -14.7410 O.3     373 TYR373     -0.5068
    163 HH        -39.0674  -49.9514    2.2003 H       385 TYR385      0.2921
    164 OH        -38.5070  -49.7260    2.9980 O.3     385 TYR385     -0.5068
    165 HG        -53.3797  -52.9494   21.9007 H       394 SER394      0.2095
    166 OG        -52.8560  -53.6470   22.3880 O.3     394 SER394     -0.3927
    167 HZ1       -55.9275  -45.1155   21.7081 H       396 LYS396     -0.0901
    168 NZ        -56.8890  -45.1950   21.4480 N.4     396 LYS396      0.3781
    169 HZ2       -57.1357  -44.4412   20.8391 H       396 LYS396     -0.0901
    170 HZ3       -57.4609  -45.1647   22.2667 H       396 LYS396     -0.0901
    171 HG        -64.1159  -49.8914   19.6478 H       399 SER399      0.2095
    172 OG        -64.8050  -49.1850   19.4900 O.3     399 SER399     -0.3927
    173 HH        -63.5249  -53.9205   16.0023 H       402 TYR402      0.2921
    174 OH        -63.4400  -54.9110   16.0920 O.3     402 TYR402     -0.5068
    175 HG        -56.2247  -61.5866   21.2419 H       403 SER403      0.2095
    176 OG        -56.3060  -60.7630   20.6820 O.3     403 SER403     -0.3927
    177 HH        -46.6038  -57.7781   16.1699 H       404 TYR404      0.2921
    178 OH        -47.2120  -57.3120   16.8100 O.3     404 TYR404     -0.5068
    179 HG1       -61.0739  -64.0204    8.0178 H       411 THR411      0.2099
    180 OG1       -61.0480  -63.9800    7.0130 O.3     411 THR411     -0.3897
    181 HG        -64.6351  -58.8434   10.4095 H       412 SER412      0.2095
    182 OG        -65.0720  -59.6800   10.0830 O.3     412 SER412     -0.3927
    183 HH        -64.5410  -51.6876   16.1627 H       417 TYR417      0.2921
    184 OH        -63.8670  -52.2620   15.7010 O.3     417 TYR417     -0.5068
    185 HG        -26.1119  -63.5064    7.7869 H       455 SER455      0.2095
    186 OG        -26.5990  -63.2690    8.6260 O.3     455 SER455     -0.3927
    187 HZ1       -11.6216  -55.3457    8.0246 H       468 LYS468     -0.0901
    188 NZ        -11.4800  -54.5700    7.4110 N.4     468 LYS468      0.3781
    189 HZ2       -11.1385  -54.8966    6.5302 H       468 LYS468     -0.0901
    190 HZ3       -10.8177  -53.9402    7.8148 H       468 LYS468     -0.0901
    191 HZ1       -10.4110  -44.2069   14.2960 H       473 LYS473     -0.0901
    192 NZ        -11.2340  -43.8560   13.8500 N.4     473 LYS473      0.3781
    193 HZ2       -11.0163  -43.0122   13.3604 H       473 LYS473     -0.0901
    194 HZ3       -11.9371  -43.6736   14.5370 H       473 LYS473     -0.0901
    195 HH        -21.7287  -47.1869   15.3958 H       475 TYR475      0.2921
    196 OH        -22.0570  -48.1150   15.5640 O.3     475 TYR475     -0.5068
    197 HG1       -12.5259  -49.6048   20.6537 H       476 THR476      0.2099
    198 OG1       -13.0660  -49.5060   19.8110 O.3     476 THR476     -0.3897
    199 HG        -16.2494  -50.4982   23.3007 H       477 SER477      0.2095
    200 OG        -15.6220  -50.5540   22.5250 O.3     477 SER477     -0.3927
    201 HZ1       -20.0512  -45.9644   31.7420 H       485 LYS485     -0.0901
    202 NZ        -20.1320  -46.7880   32.3030 N.4     485 LYS485      0.3781
    203 HZ2       -21.0809  -46.9017   32.5956 H       485 LYS485     -0.0901
    204 HZ3       -19.5420  -46.7060   33.1054 H       485 LYS485     -0.0901
    205 HZ1       -27.2476  -43.8136   21.9704 H       511 LYS511     -0.0901
    206 NZ        -26.7900  -43.3340   22.7180 N.4     511 LYS511      0.3781
    207 HZ2       -27.4635  -43.0617   23.4042 H       511 LYS511     -0.0901
    208 HZ3       -26.3269  -42.5227   22.3622 H       511 LYS511     -0.0901
    209 HG        -32.4032  -43.3738   15.4461 H       516 SER516      0.2095
    210 OG        -31.9800  -42.6720   16.0180 O.3     516 SER516     -0.3927
    211 HG        -34.9542  -48.0486    0.7551 H       530 SER530      0.2095
    212 OG        -34.2320  -47.4470    1.0930 O.3     530 SER530     -0.3927
    213 HZ1       -28.3997  -47.8944  -10.7340 H       532 LYS532     -0.0901
    214 NZ        -27.6550  -48.3070  -10.2110 N.4     532 LYS532      0.3781
    215 HZ2       -27.0185  -47.5959   -9.9157 H       532 LYS532     -0.0901
    216 HZ3       -27.1740  -48.9722  -10.7807 H       532 LYS532     -0.0901
    217 HG        -35.6040  -43.7583  -19.5705 H       541 SER541      0.2095
    218 OG        -35.8170  -43.9740  -18.6180 O.3     541 SER541     -0.3927
    219 HH        -39.7391  -49.0325  -21.9616 H       544 TYR544      0.2921
    220 OH        -39.2750  -49.0250  -21.0780 O.3     544 TYR544     -0.5068
    221 HZ1       -38.7592  -39.8401  -26.1550 H       546 LYS546     -0.0901
    222 NZ        -38.9760  -38.9140  -25.8470 N.4     546 LYS546      0.3781
    223 HZ2       -39.8521  -38.6286  -26.2348 H       546 LYS546     -0.0901
    224 HZ3       -38.2581  -38.2855  -26.1443 H       546 LYS546     -0.0901
    225 HG        -44.3705  -39.9781  -25.1539 H       548 SER548      0.2095
    226 OG        -44.5870  -39.4220  -24.3530 O.3     548 SER548     -0.3927
    227 HG1       -43.3767  -42.0715  -21.9135 H       549 THR549      0.2099
    228 OG1       -43.1030  -42.0380  -20.9460 O.3     549 THR549     -0.3897
    229 HZ1       -45.0503  -33.9530  -14.6691 H       560 LYS560     -0.0901
    230 NZ        -44.3980  -33.9200  -13.9130 N.4     560 LYS560      0.3781
    231 HZ2       -43.5022  -33.6403  -14.2563 H       560 LYS560     -0.0901
    232 HZ3       -44.3285  -34.8234  -13.4899 H       560 LYS560     -0.0901
    233 HG1       -50.8978  -33.6561   -7.4062 H       561 THR561      0.2099
    234 OG1       -50.0060  -33.4230   -7.8080 O.3     561 THR561     -0.3897
    235 HG1       -51.4133  -36.9105    0.4801 H       563 THR563      0.2099
    236 OG1       -51.2400  -36.2740   -0.2790 O.3     563 THR563     -0.3897
    237 HZ1       -55.2555  -36.3093    5.2795 H       565 LYS565     -0.0901
    238 NZ        -55.2080  -35.3570    5.5790 N.4     565 LYS565      0.3781
    239 HZ2       -54.8061  -35.3125    6.4933 H       565 LYS565     -0.0901
    240 HZ3       -56.1284  -34.9664    5.5988 H       565 LYS565     -0.0901
    241 HZ1       -52.6553  -35.2848   -6.9892 H       566 LYS566     -0.0901
    242 NZ        -52.4230  -34.8340   -6.1280 N.4     566 LYS566      0.3781
    243 HZ2       -52.4892  -33.8427   -6.2407 H       566 LYS566     -0.0901
    244 HZ3       -51.4910  -35.0791   -5.8624 H       566 LYS566     -0.0901
    245 HG1       -61.8121  -40.5504    1.5174 H       572 THR572      0.2099
    246 OG1       -61.3190  -41.3360    1.9050 O.3     572 THR572     -0.3897
    247 HZ1       -70.7978  -41.7336    0.4402 H       573 LYS573     -0.0901
    248 NZ        -71.0950  -42.6030    0.8330 N.4     573 LYS573      0.3781
    249 HZ2       -71.1009  -43.3065    0.1233 H       573 LYS573     -0.0901
    250 HZ3       -72.0139  -42.5019    1.2131 H       573 LYS573     -0.0901
    251 HG1       -65.1579  -40.7243    7.0119 H       574 THR574      0.2099
    252 OG1       -64.6450  -40.3960    6.2120 O.3     574 THR574     -0.3897
    253 HH        -50.6093  -36.1597   12.1609 H       577 TYR577      0.2921
    254 OH        -50.9160  -36.9720   12.6540 O.3     577 TYR577     -0.5068
    255 HG        -49.2658  -37.3416   10.4118 H       579 SER579      0.2095
    256 OG        -49.7460  -38.1280   10.0250 O.3     579 SER579     -0.3927
@<TRIPOS>BOND
     1  142  141 1
     2  224  222 1
     3  221  222 1
     4  223  222 1
     5  139  138 1
     6  226  225 1
     7  140  138 1
     8  138  137 1
     9  114  113 1
    10  219  220 1
    11  228  227 1
    12  143  144 1
    13  118  116 1
    14  115  116 1
    15  117  116 1
    16  218  217 1
    17   56   55 1
    18  126  124 1
    19  162  161 1
    20  229  230 1
    21  125  124 1
    22  123  124 1
    23  232  230 1
    24  230  231 1
    25  122  120 1
    26  120  119 1
    27  120  121 1
    28   42   41 1
    29  127  128 1
    30   52   51 1
    31   14   13 1
    32  216  214 1
    33  215  214 1
    34  214  213 1
    35   54   53 1
    36   50   49 1
    37   58   57 1
    38  159  158 1
    39   59   60 1
    40  112  110 1
    41  146  145 1
    42  111  110 1
    43  160  158 1
    44  105  104 1
    45  233  234 1
    46  110  109 1
    47  158  157 1
    48   38   37 1
    49  104  103 1
    50  104  106 1
    51   43   44 1
    52  241  242 1
    53  152  150 1
    54   63   64 1
    55  147  148 1
    56   97   96 1
    57  244  242 1
    58  107  108 1
    59  242  243 1
    60   15   16 1
    61   46   45 1
    62   40   39 1
    63  150  149 1
    64  150  151 1
    65   95   96 1
    66   96   98 1
    67   20   19 1
    68  102  101 1
    69   48   47 1
    70  131  132 1
    71   23   24 1
    72   61   62 1
    73   36   35 1
    74   65   66 1
    75  236  235 1
    76  250  248 1
    77  247  248 1
    78  133  134 1
    79  100   99 1
    80  248  249 1
    81   67   68 1
    82  212  211 1
    83    3    2 1
    84    1    2 1
    85   18   17 1
    86    4    2 1
    87   11   12 1
    88   68   69 1
    89   68   70 1
    90  246  245 1
    91   21   22 1
    92  163  164 1
    93   94   93 1
    94   25   26 1
    95  130  129 1
    96  136  135 1
    97  239  238 1
    98  238  237 1
    99  238  240 1
   100  251  252 1
   101    6    5 1
   102  153  154 1
   103  155  156 1
   104  190  188 1
   105  180  179 1
   106    9   10 1
   107   32   31 1
   108  188  189 1
   109  188  187 1
   110    7    8 1
   111  186  185 1
   112   73   74 1
   113  256  255 1
   114  182  181 1
   115   27   28 1
   116   72   71 1
   117   92   91 1
   118  254  253 1
   119   33   34 1
   120  191  192 1
   121   75   76 1
   122  192  194 1
   123  192  193 1
   124   29   30 1
   125   77   76 1
   126   76   78 1
   127  195  196 1
   128  184  183 1
   129  210  209 1
   130  174  173 1
   131  178  177 1
   132  171  172 1
   133  197  198 1
   134   86   84 1
   135   83   84 1
   136   84   85 1
   137  176  175 1
   138  167  168 1
   139  168  170 1
   140  168  169 1
   141  199  200 1
   142  165  166 1
   143  205  206 1
   144  208  206 1
   145  206  207 1
   146   82   80 1
   147   81   80 1
   148   80   79 1
   149   89   88 1
   150   88   87 1
   151   88   90 1
   152  203  202 1
   153  204  202 1
   154  202  201 1
@<TRIPOS>SUBSTRUCTURE
28 GLY28 1
31 THR31 5
38 TYR38 7
39 TYR39 9
55 TYR55 11
60 THR60 13
62 THR62 15
64 TYR64 17
65 SER65 19
70 THR70 21
76 THR76 23
81 SER81 25
85 SER85 27
87 SER87 29
89 THR89 31
94 THR94 33
106 THR106 35
118 THR118 37
121 SER121 39
126 SER126 41
129 THR129 43
130 TYR130 45
132 SER132 47
136 TYR136 49
138 SER138 51
141 SER141 53
143 SER143 55
146 SER146 57
147 TYR147 59
148 TYR148 61
149 THR149 63
154 SER154 65
157 LYS157 67
161 THR161 71
165 THR165 73
166 LYS166 75
168 LYS168 79
169 LYS169 83
186 LYS186 87
194 THR194 91
206 THR206 93
211 LYS211 95
212 THR212 99
213 SER213 101
215 LYS215 103
221 THR221 107
222 LYS222 109
242 TYR242 113
248 LYS248 115
251 LYS251 119
253 LYS253 123
254 TYR254 127
262 TYR262 129
265 SER265 131
275 TYR275 133
283 SER283 135
317 LYS317 137
322 THR322 141
331 THR331 143
339 GLU339 145
340 THR340 147
342 LYS342 149
353 SER353 153
355 TYR355 155
360 LYS360 157
373 TYR373 161
385 TYR385 163
394 SER394 165
396 LYS396 167
399 SER399 171
402 TYR402 173
403 SER403 175
404 TYR404 177
411 THR411 179
412 SER412 181
417 TYR417 183
455 SER455 185
468 LYS468 187
473 LYS473 191
475 TYR475 195
476 THR476 197
477 SER477 199
485 LYS485 201
511 LYS511 205
516 SER516 209
530 SER530 211
532 LYS532 213
541 SER541 217
544 TYR544 219
546 LYS546 221
548 SER548 225
549 THR549 227
560 LYS560 229
561 THR561 233
563 THR563 235
565 LYS565 237
566 LYS566 241
572 THR572 245
573 LYS573 247
574 THR574 251
577 TYR577 253
579 SER579 255
@<TRIPOS>COMMENT
