@<TRIPOS>MOLECULE
ibuprofen_entry_00001_conf_09
32 32 1
SMALL
NO_CHARGES


@<TRIPOS>ATOM
      1 C         -14.4586  -52.2165    2.0483 C.3       1 UNL1        0.0000
      2 C         -13.9609  -53.6281    1.9489 C.3       1 UNL1        0.0000
      3 C         -13.3829  -54.0813    3.2516 C.3       1 UNL1        0.0000
      4 C         -15.0947  -54.5233    1.5337 C.3       1 UNL1        0.0000
      5 C         -14.6295  -55.9162    1.3248 C.ar      1 UNL1        0.0000
      6 C         -14.6251  -56.7761    2.3985 C.ar      1 UNL1        0.0000
      7 C         -14.2049  -58.0672    2.2531 C.ar      1 UNL1        0.0000
      8 C         -13.7793  -58.5300    1.0319 C.ar      1 UNL1        0.0000
      9 C         -13.7799  -57.6811   -0.0469 C.ar      1 UNL1        0.0000
     10 C         -14.2042  -56.3780    0.1026 C.ar      1 UNL1        0.0000
     11 C         -13.3212  -59.9174    0.8474 C.3       1 UNL1        0.0000
     12 C         -13.7297  -60.3975   -0.5449 C.3       1 UNL1        0.0000
     13 C         -11.8341  -59.9118    0.9734 C.2       1 UNL1        0.0000
     14 O         -11.2065  -60.9664    1.1482 O.co2     1 UNL1       -0.5000
     15 O         -11.1738  -58.7192    0.8923 O.co2     1 UNL1       -0.5000
     16 H         -13.6540  -51.5751    2.3441 H         1 UNL1        0.0000
     17 H         -15.2418  -52.1646    2.7754 H         1 UNL1        0.0000
     18 H         -14.8332  -51.9032    1.0966 H         1 UNL1        0.0000
     19 H         -13.1840  -53.6759    1.2155 H         1 UNL1        0.0000
     20 H         -14.1385  -54.0447    4.0086 H         1 UNL1        0.0000
     21 H         -12.5732  -53.4379    3.5254 H         1 UNL1        0.0000
     22 H         -13.0244  -55.0846    3.1539 H         1 UNL1        0.0000
     23 H         -15.5146  -54.1549    0.6214 H         1 UNL1        0.0000
     24 H         -15.8280  -54.5243    2.3129 H         1 UNL1        0.0000
     25 H         -14.9414  -56.4423    3.3225 H         1 UNL1        0.0000
     26 H         -14.2071  -58.7006    3.0684 H         1 UNL1        0.0000
     27 H         -13.4631  -58.0178   -0.9698 H         1 UNL1        0.0000
     28 H         -14.2027  -55.7426   -0.7106 H         1 UNL1        0.0000
     29 H         -13.7539  -60.5722    1.5749 H         1 UNL1        0.0000
     30 H         -13.3040  -59.7512   -1.2840 H         1 UNL1        0.0000
     31 H         -14.7966  -60.3803   -0.6283 H         1 UNL1        0.0000
     32 H         -13.3760  -61.3957   -0.6958 H         1 UNL1        0.0000
@<TRIPOS>BOND
     1    1   17 1
     2    1    2 1
     3    1   16 1
     4    1   18 1
     5    2   19 1
     6    2    3 1
     7    2    4 1
     8    3   21 1
     9    3   22 1
    10    3   20 1
    11    4    5 1
    12    4   24 1
    13    4   23 1
    14    5    6 ar
    15    5   10 ar
    16    6    7 ar
    17    6   25 1
    18    7   26 1
    19    7    8 ar
    20    8    9 ar
    21    8   11 1
    22    9   10 ar
    23    9   27 1
    24   10   28 1
    25   11   29 1
    26   11   12 1
    27   11   13 1
    28   12   30 1
    29   12   31 1
    30   12   32 1
    31   13   15 ar
    32   13   14 ar
@<TRIPOS>SUBSTRUCTURE
1 UNL1 1
@<TRIPOS>COMMENT
ibuprofen
PLANTSproteinTorsions
102
4661 143.1908
5386 358.2627
6210 172.2448
5890 34.7788
4461 174.7910
1390 138.7735
2824 340.5139
4339 22.0541
2732 159.6316
4792 337.8372
3407 92.7884
5134 9.3587
6916 31.0834
7370 198.1260
6038 64.4703
7225 178.2357
3592 312.6680
2064 6.2243
2488 231.1969
1253 139.6403
2069 247.6288
2569 201.5906
3058 175.3457
1748 287.1126
1162 156.6650
1509 216.7306
560 228.0475
1627 66.0327
1941 94.0260
3631 135.5080
2381 149.7171
4221 139.1530
4687 125.7921
6983 135.0141
6668 117.2157
7305 235.4305
8693 113.8567
8404 75.9018
9055 242.5109
7052 49.0066
4708 3.8979
2652 108.5840
4332 107.7457
3011 239.3359
2257 255.4601
2778 7.0846
2057 103.9071
192 20.7566
315 102.1709
1085 198.9079
1007 99.6518
1407 13.0951
4816 53.3295
3131 114.5696
4654 142.6691
5144 153.2361
117 170.0030
6 260.3300
259 185.4025
1979 17.0078
2609 22.5003
2623 138.3128
5910 127.8787
5937 120.3787
2062 263.1049
890 50.3511
5008 222.9221
8602 239.6626
8478 345.8650
8300 128.5922
7721 18.2730
8466 73.8076
7852 161.4294
5849 39.6670
6302 256.3616
7439 162.7641
6284 131.4608
6003 163.1217
7165 203.0083
7623 351.6717
8158 244.6996
8667 164.8929
9078 250.2761
8684 16.0494
7666 293.8557
4231 45.6936
1659 126.3329
489 195.8444
238 40.6321
46 270.9812
83 73.7525
254 195.5492
1066 204.3490
2112 135.2206
4047 251.9183
5402 270.2986
2544 263.9091
4670 159.3763
4426 193.4414
5656 214.7210
7040 271.5253
6282 53.7885
PLANTSmolcadARTstart hb
PLANTSmolcadARTstart HB
LINES
PLANTSmolcadARTstart HBCH
LINES
PLANTSmolcadARTstart HB-CHO
LINES
PLANTSmolcadARTend
PLANTSmolcadARTstart HB_WATER
LINES
PLANTSmolcadARTend

PLANTSmolcadARTend

