@<TRIPOS>MOLECULE
ibuprofen_entry_00001_conf_72
32 32 1
SMALL
NO_CHARGES


@<TRIPOS>ATOM
      1 C           1.4385  -32.6843    1.9875 C.3       1 UNL1        0.0000
      2 C           1.1580  -34.0015    1.3270 C.3       1 UNL1        0.0000
      3 C           2.3351  -34.4552    0.5238 C.3       1 UNL1        0.0000
      4 C           0.8127  -35.0179    2.3792 C.3       1 UNL1        0.0000
      5 C           0.4572  -36.3222    1.7689 C.ar      1 UNL1        0.0000
      6 C           0.5008  -37.4500    2.5553 C.ar      1 UNL1        0.0000
      7 C           0.1821  -38.6721    2.0360 C.ar      1 UNL1        0.0000
      8 C          -0.1878  -38.7965    0.7191 C.ar      1 UNL1        0.0000
      9 C          -0.2356  -37.6779   -0.0752 C.ar      1 UNL1        0.0000
     10 C           0.0871  -36.4454    0.4514 C.ar      1 UNL1        0.0000
     11 C          -0.5366  -40.1021    0.1338 C.3       1 UNL1        0.0000
     12 C          -1.6070  -39.8993   -0.9382 C.3       1 UNL1        0.0000
     13 C           0.7059  -40.6573   -0.4790 C.2       1 UNL1        0.0000
     14 O           0.7459  -41.8270   -0.8874 O.co2     1 UNL1       -0.5000
     15 O           1.8029  -39.8506   -0.5823 O.co2     1 UNL1       -0.5000
     16 H           1.6853  -31.9570    1.2415 H         1 UNL1        0.0000
     17 H           2.2593  -32.7924    2.6653 H         1 UNL1        0.0000
     18 H           0.5711  -32.3637    2.5252 H         1 UNL1        0.0000
     19 H           0.3321  -33.8897    0.6569 H         1 UNL1        0.0000
     20 H           3.1807  -34.5766    1.1684 H         1 UNL1        0.0000
     21 H           2.5596  -33.7238   -0.2240 H         1 UNL1        0.0000
     22 H           2.1084  -35.3889    0.0534 H         1 UNL1        0.0000
     23 H          -0.0188  -34.6611    2.9498 H         1 UNL1        0.0000
     24 H           1.6676  -35.1593    3.0067 H         1 UNL1        0.0000
     25 H           0.7777  -37.3720    3.5465 H         1 UNL1        0.0000
     26 H           0.2198  -39.5094    2.6387 H         1 UNL1        0.0000
     27 H          -0.5130  -37.7589   -1.0661 H         1 UNL1        0.0000
     28 H           0.0505  -35.6067   -0.1489 H         1 UNL1        0.0000
     29 H          -0.9184  -40.7735    0.8746 H         1 UNL1        0.0000
     30 H          -1.2391  -39.2289   -1.6869 H         1 UNL1        0.0000
     31 H          -2.4858  -39.4849   -0.4894 H         1 UNL1        0.0000
     32 H          -1.8452  -40.8407   -1.3867 H         1 UNL1        0.0000
@<TRIPOS>BOND
     1    1   17 1
     2    1    2 1
     3    1   16 1
     4    1   18 1
     5    2   19 1
     6    2    3 1
     7    2    4 1
     8    3   21 1
     9    3   22 1
    10    3   20 1
    11    4    5 1
    12    4   24 1
    13    4   23 1
    14    5    6 ar
    15    5   10 ar
    16    6    7 ar
    17    6   25 1
    18    7   26 1
    19    7    8 ar
    20    8    9 ar
    21    8   11 1
    22    9   10 ar
    23    9   27 1
    24   10   28 1
    25   11   29 1
    26   11   12 1
    27   11   13 1
    28   12   30 1
    29   12   31 1
    30   12   32 1
    31   13   15 ar
    32   13   14 ar
@<TRIPOS>SUBSTRUCTURE
1 UNL1 1
@<TRIPOS>COMMENT
ibuprofen
PLANTSproteinTorsions
102
4661 318.5121
5386 156.0316
6210 118.1386
5890 9.2452
4461 354.3742
1390 179.3451
2824 221.3819
4339 226.8428
2732 85.3439
4792 286.6117
3407 7.6349
5134 344.7381
6916 335.1115
7370 101.3017
6038 99.4374
7225 333.7882
3592 45.1806
2064 228.9921
2488 152.3550
1253 208.0723
2069 177.0859
2569 169.0161
3058 47.0065
1748 107.5661
1162 145.4493
1509 128.0488
560 49.2045
1627 173.6102
1941 168.2524
3631 202.1311
2381 194.8714
4221 163.1959
4687 69.6472
6983 21.6761
6668 81.4817
7305 118.9387
8693 9.9042
8404 68.1530
9055 247.1511
7052 356.5583
4708 334.6925
2652 111.7999
4332 51.9583
3011 253.5166
2257 327.1863
2778 339.2816
2057 16.3385
192 314.4835
315 297.3827
1085 99.9367
1007 132.1413
1407 60.8756
4816 310.9776
3131 95.4195
4654 298.0130
5144 344.4726
117 203.1609
6 38.6087
259 219.9563
1979 311.9138
2609 41.9341
2623 167.6004
5910 351.9194
5937 204.8623
2062 336.6418
890 93.7152
5008 315.3317
8602 246.4965
8478 261.3399
8300 76.2866
7721 315.3522
8466 207.3527
7852 297.2954
5849 250.7081
6302 116.0151
7439 106.8045
6284 237.4125
6003 116.0028
7165 132.3992
7623 172.7660
8158 30.6617
8667 175.5547
9078 189.1075
8684 153.8533
7666 104.4206
4231 209.4196
1659 70.1768
489 88.8673
238 167.0327
46 267.1064
83 264.1596
254 70.1277
1066 231.2793
2112 57.9659
4047 291.7224
5402 245.6257
2544 15.6213
4670 331.2586
4426 95.2494
5656 319.2283
7040 255.8310
6282 289.3421
PLANTSmolcadARTstart hb
PLANTSmolcadARTstart HB
LINES
PLANTSmolcadARTstart HBCH
LINES
PLANTSmolcadARTstart HB-CHO
LINES
PLANTSmolcadARTend
PLANTSmolcadARTstart HB_WATER
LINES
PLANTSmolcadARTend

PLANTSmolcadARTend

