@<TRIPOS>MOLECULE
ibuprofen_entry_00001_conf_47
32 32 1
SMALL
NO_CHARGES


@<TRIPOS>ATOM
      1 C         -17.2837  -45.4018    0.0259 C.3       1 UNL1        0.0000
      2 C         -17.5282  -44.4055    1.1202 C.3       1 UNL1        0.0000
      3 C         -16.4548  -43.3644    1.1414 C.3       1 UNL1        0.0000
      4 C         -18.8759  -43.7711    0.9181 C.3       1 UNL1        0.0000
      5 C         -19.2410  -42.9093    2.0688 C.ar      1 UNL1        0.0000
      6 C         -19.8523  -43.4886    3.1565 C.ar      1 UNL1        0.0000
      7 C         -20.2065  -42.7341    4.2382 C.ar      1 UNL1        0.0000
      8 C         -19.9584  -41.3833    4.2591 C.ar      1 UNL1        0.0000
      9 C         -19.3483  -40.7943    3.1796 C.ar      1 UNL1        0.0000
     10 C         -18.9921  -41.5581    2.0887 C.ar      1 UNL1        0.0000
     11 C         -20.3298  -40.5466    5.4126 C.3       1 UNL1        0.0000
     12 C         -19.1592  -39.6275    5.7608 C.3       1 UNL1        0.0000
     13 C         -21.5161  -39.7369    5.0070 C.2       1 UNL1        0.0000
     14 O         -22.4571  -40.2534    4.3872 O.co2     1 UNL1       -0.5000
     15 O         -21.5468  -38.4109    5.3320 O.co2     1 UNL1       -0.5000
     16 H         -16.3243  -45.8562    0.1657 H         1 UNL1        0.0000
     17 H         -17.3082  -44.9049   -0.9214 H         1 UNL1        0.0000
     18 H         -18.0427  -46.1550    0.0539 H         1 UNL1        0.0000
     19 H         -17.5107  -44.9085    2.0637 H         1 UNL1        0.0000
     20 H         -16.4470  -42.8417    0.2076 H         1 UNL1        0.0000
     21 H         -15.5058  -43.8340    1.2946 H         1 UNL1        0.0000
     22 H         -16.6433  -42.6727    1.9355 H         1 UNL1        0.0000
     23 H         -19.6115  -44.5403    0.8107 H         1 UNL1        0.0000
     24 H         -18.8353  -43.1628    0.0388 H         1 UNL1        0.0000
     25 H         -20.0458  -44.5024    3.1547 H         1 UNL1        0.0000
     26 H         -20.6648  -43.1833    5.0469 H         1 UNL1        0.0000
     27 H         -19.1559  -39.7802    3.1843 H         1 UNL1        0.0000
     28 H         -18.5341  -41.1117    1.2787 H         1 UNL1        0.0000
     29 H         -20.5619  -41.1433    6.2702 H         1 UNL1        0.0000
     30 H         -18.9151  -39.0239    4.9115 H         1 UNL1        0.0000
     31 H         -18.3105  -40.2200    6.0329 H         1 UNL1        0.0000
     32 H         -19.4324  -38.9975    6.5810 H         1 UNL1        0.0000
@<TRIPOS>BOND
     1    1   17 1
     2    1    2 1
     3    1   16 1
     4    1   18 1
     5    2   19 1
     6    2    3 1
     7    2    4 1
     8    3   21 1
     9    3   22 1
    10    3   20 1
    11    4    5 1
    12    4   24 1
    13    4   23 1
    14    5    6 ar
    15    5   10 ar
    16    6    7 ar
    17    6   25 1
    18    7   26 1
    19    7    8 ar
    20    8    9 ar
    21    8   11 1
    22    9   10 ar
    23    9   27 1
    24   10   28 1
    25   11   29 1
    26   11   12 1
    27   11   13 1
    28   12   30 1
    29   12   31 1
    30   12   32 1
    31   13   15 ar
    32   13   14 ar
@<TRIPOS>SUBSTRUCTURE
1 UNL1 1
@<TRIPOS>COMMENT
ibuprofen
PLANTSproteinTorsions
102
4661 76.2773
5386 135.3769
6210 92.8370
5890 20.8398
4461 106.2511
1390 206.3473
2824 73.1527
4339 134.6144
2732 215.2770
4792 175.5516
3407 78.4775
5134 42.0514
6916 15.4973
7370 179.7166
6038 127.9809
7225 141.5333
3592 180.7838
2064 189.8734
2488 253.7997
1253 36.7768
2069 204.3142
2569 189.6043
3058 331.6849
1748 15.7842
1162 220.8792
1509 188.3011
560 240.1654
1627 172.8247
1941 41.5907
3631 65.9675
2381 121.6732
4221 91.5862
4687 111.1958
6983 184.3951
6668 56.5402
7305 253.1620
8693 36.7407
8404 258.6623
9055 13.0731
7052 279.5070
4708 133.1673
2652 146.7581
4332 238.0743
3011 44.2661
2257 255.7801
2778 108.7684
2057 120.6900
192 115.1064
315 325.7250
1085 23.8682
1007 35.8589
1407 138.4365
4816 64.0811
3131 350.6749
4654 197.1050
5144 14.7888
117 206.4233
6 82.2615
259 235.1331
1979 64.2053
2609 23.7049
2623 228.4052
5910 139.7730
5937 235.8034
2062 81.2025
890 238.2195
5008 217.1941
8602 82.3031
8478 243.4374
8300 87.6343
7721 40.4077
8466 28.1337
7852 267.6115
5849 137.8265
6302 35.2924
7439 282.1282
6284 268.3899
6003 226.1191
7165 130.6153
7623 132.8579
8158 29.9759
8667 161.5818
9078 78.3004
8684 249.1176
7666 121.0308
4231 248.1616
1659 217.0579
489 272.1430
238 90.2371
46 127.0870
83 181.2865
254 43.7172
1066 170.2198
2112 249.2455
4047 183.8484
5402 245.8392
2544 263.6502
4670 305.2080
4426 109.2363
5656 173.5954
7040 277.8549
6282 211.9573
PLANTSmolcadARTstart hb
PLANTSmolcadARTstart HB
LINES
-21.5468 -38.4109 5.33205 -21.814 -36.8543 6.48634 0 255 0 5
PLANTSmolcadARTstart HBCH
LINES
PLANTSmolcadARTstart HB-CHO
LINES
PLANTSmolcadARTend
PLANTSmolcadARTstart HB_WATER
LINES
PLANTSmolcadARTend

PLANTSmolcadARTend

