@<TRIPOS>MOLECULE
ibuprofen_entry_00001_conf_02
32 32 1
SMALL
NO_CHARGES


@<TRIPOS>ATOM
      1 C         -14.6273  -66.6510   -2.6116 C.3       1 UNL1        0.0000
      2 C         -14.2972  -65.2608   -2.1550 C.3       1 UNL1        0.0000
      3 C         -15.1059  -64.2491   -2.9027 C.3       1 UNL1        0.0000
      4 C         -14.5512  -65.1531   -0.6773 C.3       1 UNL1        0.0000
      5 C         -14.1181  -63.8348   -0.1533 C.ar      1 UNL1        0.0000
      6 C         -14.5556  -63.4459    1.0915 C.ar      1 UNL1        0.0000
      7 C         -14.1825  -62.2407    1.6140 C.ar      1 UNL1        0.0000
      8 C         -13.3637  -61.3955    0.9056 C.ar      1 UNL1        0.0000
      9 C         -12.9203  -61.7733   -0.3375 C.ar      1 UNL1        0.0000
     10 C         -13.2987  -62.9903   -0.8629 C.ar      1 UNL1        0.0000
     11 C         -12.9462  -60.0906    1.4455 C.3       1 UNL1        0.0000
     12 C         -11.5366  -59.7717    0.9480 C.3       1 UNL1        0.0000
     13 C         -13.9129  -59.0730    0.9378 C.2       1 UNL1        0.0000
     14 O         -15.1216  -59.3328    0.8484 O.co2     1 UNL1       -0.5000
     15 O         -13.4402  -57.8452    0.5718 O.co2     1 UNL1       -0.5000
     16 H         -14.4480  -66.7322   -3.6641 H         1 UNL1        0.0000
     17 H         -15.6571  -66.8584   -2.4083 H         1 UNL1        0.0000
     18 H         -14.0116  -67.3528   -2.0896 H         1 UNL1        0.0000
     19 H         -13.2654  -65.0616   -2.3532 H         1 UNL1        0.0000
     20 H         -16.1467  -64.4225   -2.7240 H         1 UNL1        0.0000
     21 H         -14.9051  -64.3358   -3.9499 H         1 UNL1        0.0000
     22 H         -14.8458  -63.2664   -2.5693 H         1 UNL1        0.0000
     23 H         -14.0089  -65.9248   -0.1726 H         1 UNL1        0.0000
     24 H         -15.6022  -65.2570   -0.5061 H         1 UNL1        0.0000
     25 H         -15.1719  -64.0702    1.6352 H         1 UNL1        0.0000
     26 H         -14.5193  -61.9627    2.5495 H         1 UNL1        0.0000
     27 H         -12.3038  -61.1469   -0.8788 H         1 UNL1        0.0000
     28 H         -12.9638  -63.2706   -1.7979 H         1 UNL1        0.0000
     29 H         -12.9377  -60.0945    2.5156 H         1 UNL1        0.0000
     30 H         -11.5294  -59.7646   -0.1221 H         1 UNL1        0.0000
     31 H         -10.8566  -60.5176    1.3041 H         1 UNL1        0.0000
     32 H         -11.2379  -58.8122    1.3144 H         1 UNL1        0.0000
@<TRIPOS>BOND
     1    1   17 1
     2    1    2 1
     3    1   16 1
     4    1   18 1
     5    2   19 1
     6    2    3 1
     7    2    4 1
     8    3   21 1
     9    3   22 1
    10    3   20 1
    11    4    5 1
    12    4   24 1
    13    4   23 1
    14    5    6 ar
    15    5   10 ar
    16    6    7 ar
    17    6   25 1
    18    7   26 1
    19    7    8 ar
    20    8    9 ar
    21    8   11 1
    22    9   10 ar
    23    9   27 1
    24   10   28 1
    25   11   29 1
    26   11   12 1
    27   11   13 1
    28   12   30 1
    29   12   31 1
    30   12   32 1
    31   13   15 ar
    32   13   14 ar
@<TRIPOS>SUBSTRUCTURE
1 UNL1 1
@<TRIPOS>COMMENT
ibuprofen
PLANTSproteinTorsions
102
4661 97.4111
5386 228.6847
6210 54.7759
5890 156.8961
4461 219.8176
1390 8.4908
2824 132.1833
4339 6.6337
2732 93.5942
4792 110.0222
3407 10.6346
5134 4.7133
6916 355.5841
7370 162.9037
6038 298.3772
7225 235.1326
3592 183.5776
2064 64.5024
2488 131.8493
1253 184.5301
2069 177.8401
2569 73.7829
3058 227.7349
1748 14.1487
1162 130.8407
1509 79.3405
560 122.7407
1627 194.9606
1941 107.5862
3631 24.9355
2381 0.8137
4221 171.0779
4687 191.8398
6983 36.5579
6668 100.3459
7305 67.8668
8693 16.3148
8404 32.8224
9055 164.1334
7052 228.6165
4708 72.8103
2652 149.2436
4332 154.4247
3011 90.4257
2257 327.0286
2778 29.0584
2057 40.4213
192 135.5440
315 157.1453
1085 131.9721
1007 244.6689
1407 123.4648
4816 18.6031
3131 103.8270
4654 172.4057
5144 213.4701
117 44.0372
6 171.3801
259 5.0760
1979 152.1362
2609 106.2181
2623 59.9013
5910 284.7641
5937 232.0791
2062 157.1994
890 165.5375
5008 244.9171
8602 18.8117
8478 163.3052
8300 137.8433
7721 63.9600
8466 255.7828
7852 72.9219
5849 116.9499
6302 205.5857
7439 193.0254
6284 115.2511
6003 199.3560
7165 125.1694
7623 193.9191
8158 117.7923
8667 39.5475
9078 251.9810
8684 77.2611
7666 125.0476
4231 263.4014
1659 254.1320
489 232.8760
238 45.6559
46 200.1241
83 259.8391
254 226.3222
1066 254.9835
2112 149.9097
4047 91.1100
5402 197.5638
2544 189.3974
4670 191.8052
4426 251.3833
5656 202.5685
7040 267.8377
6282 314.6442
PLANTSmolcadARTstart hb
PLANTSmolcadARTstart HB
LINES
-15.1216 -59.3328 0.84843 -16.346 -59.843 1.833 0 255 0 5
PLANTSmolcadARTstart HBCH
LINES
PLANTSmolcadARTstart HB-CHO
LINES
PLANTSmolcadARTend
PLANTSmolcadARTstart HB_WATER
LINES
PLANTSmolcadARTend

PLANTSmolcadARTend

