@<TRIPOS>MOLECULE
ibuprofen_entry_00001_conf_40
32 32 1
SMALL
NO_CHARGES


@<TRIPOS>ATOM
      1 C         -15.2103  -49.5559    1.1927 C.3       1 UNL1        0.0000
      2 C         -15.0985  -48.1553    0.6674 C.3       1 UNL1        0.0000
      3 C         -16.4403  -47.6270    0.2713 C.3       1 UNL1        0.0000
      4 C         -14.4760  -47.2814    1.7202 C.3       1 UNL1        0.0000
      5 C         -14.3898  -45.8722    1.2652 C.ar      1 UNL1        0.0000
      6 C         -15.4719  -45.0479    1.4693 C.ar      1 UNL1        0.0000
      7 C         -15.4376  -43.7435    1.0667 C.ar      1 UNL1        0.0000
      8 C         -14.3216  -43.2316    0.4509 C.ar      1 UNL1        0.0000
      9 C         -13.2354  -44.0448    0.2425 C.ar      1 UNL1        0.0000
     10 C         -13.2728  -45.3613    0.6495 C.ar      1 UNL1        0.0000
     11 C         -14.2580  -41.8289    0.0070 C.3       1 UNL1        0.0000
     12 C         -13.2622  -41.0716    0.8851 C.3       1 UNL1        0.0000
     13 C         -13.7920  -41.8352   -1.4108 C.2       1 UNL1        0.0000
     14 O         -13.9956  -42.8144   -2.1431 O.co2     1 UNL1       -0.5000
     15 O         -13.1343  -40.7383   -1.8895 O.co2     1 UNL1       -0.5000
     16 H         -15.6536  -50.1822    0.4459 H         1 UNL1        0.0000
     17 H         -15.8220  -49.5601    2.0705 H         1 UNL1        0.0000
     18 H         -14.2357  -49.9243    1.4347 H         1 UNL1        0.0000
     19 H         -14.4798  -48.1556   -0.2049 H         1 UNL1        0.0000
     20 H         -17.0845  -47.6142    1.1258 H         1 UNL1        0.0000
     21 H         -16.8625  -48.2565   -0.4836 H         1 UNL1        0.0000
     22 H         -16.3347  -46.6332   -0.1105 H         1 UNL1        0.0000
     23 H         -13.4913  -47.6401    1.9344 H         1 UNL1        0.0000
     24 H         -15.0893  -47.3176    2.5962 H         1 UNL1        0.0000
     25 H         -16.3178  -45.4187    1.9301 H         1 UNL1        0.0000
     26 H         -16.2578  -43.1372    1.2266 H         1 UNL1        0.0000
     27 H         -12.3908  -43.6711   -0.2184 H         1 UNL1        0.0000
     28 H         -12.4544  -45.9697    0.4906 H         1 UNL1        0.0000
     29 H         -15.2124  -41.3509    0.0830 H         1 UNL1        0.0000
     30 H         -12.3017  -41.5390    0.8194 H         1 UNL1        0.0000
     31 H         -13.5986  -41.0893    1.9010 H         1 UNL1        0.0000
     32 H         -13.1908  -40.0581    0.5503 H         1 UNL1        0.0000
@<TRIPOS>BOND
     1    1   17 1
     2    1    2 1
     3    1   16 1
     4    1   18 1
     5    2   19 1
     6    2    3 1
     7    2    4 1
     8    3   21 1
     9    3   22 1
    10    3   20 1
    11    4    5 1
    12    4   24 1
    13    4   23 1
    14    5    6 ar
    15    5   10 ar
    16    6    7 ar
    17    6   25 1
    18    7   26 1
    19    7    8 ar
    20    8    9 ar
    21    8   11 1
    22    9   10 ar
    23    9   27 1
    24   10   28 1
    25   11   29 1
    26   11   12 1
    27   11   13 1
    28   12   30 1
    29   12   31 1
    30   12   32 1
    31   13   15 ar
    32   13   14 ar
@<TRIPOS>SUBSTRUCTURE
1 UNL1 1
@<TRIPOS>COMMENT
ibuprofen
PLANTSproteinTorsions
102
4661 71.6607
5386 141.9038
6210 181.8039
5890 62.3605
4461 214.2947
1390 128.3156
2824 18.6414
4339 142.5855
2732 261.5880
4792 43.2206
3407 311.3666
5134 195.1819
6916 100.5202
7370 194.5967
6038 266.2827
7225 276.1824
3592 103.6978
2064 3.0926
2488 209.9361
1253 131.4828
2069 243.9903
2569 182.5959
3058 231.9316
1748 79.6303
1162 220.7732
1509 216.2113
560 314.9084
1627 118.7858
1941 266.6119
3631 126.6379
2381 150.8173
4221 350.9053
4687 110.9416
6983 105.6053
6668 291.2857
7305 230.3966
8693 171.2650
8404 112.6184
9055 120.9832
7052 64.2825
4708 358.4993
2652 105.9954
4332 241.7661
3011 43.2416
2257 175.5188
2778 114.1422
2057 110.3837
192 355.4333
315 40.7223
1085 324.4432
1007 111.5004
1407 30.1335
4816 87.9589
3131 99.0413
4654 134.8817
5144 187.8872
117 126.9812
6 43.0905
259 182.6887
1979 86.1269
2609 66.1516
2623 129.2900
5910 108.1826
5937 149.7069
2062 273.7286
890 42.3044
5008 163.0486
8602 29.3088
8478 309.7640
8300 99.8068
7721 15.3496
8466 260.1143
7852 226.3423
5849 32.2160
6302 263.1552
7439 218.8036
6284 312.0087
6003 165.1035
7165 140.4831
7623 149.3897
8158 254.2343
8667 160.8418
9078 150.3173
8684 17.1793
7666 206.3924
4231 265.3195
1659 103.8751
489 198.0162
238 45.4212
46 149.1496
83 106.2167
254 172.4140
1066 225.5164
2112 246.5184
4047 143.3484
5402 191.3156
2544 180.1591
4670 159.1884
4426 217.0272
5656 252.7448
7040 273.2265
6282 91.6904
PLANTSmolcadARTstart hb
PLANTSmolcadARTstart HB
LINES
PLANTSmolcadARTstart HBCH
LINES
-13.1343 -40.7383 -1.88947 -13.084 -39.387 -3.151 255 0 0 5
PLANTSmolcadARTstart HB-CHO
LINES
PLANTSmolcadARTend
PLANTSmolcadARTstart HB_WATER
LINES
PLANTSmolcadARTend

PLANTSmolcadARTend

