@<TRIPOS>MOLECULE
ibuprofen_entry_00001_conf_73
32 32 1
SMALL
NO_CHARGES


@<TRIPOS>ATOM
      1 C         -43.4023  -31.2669    4.8357 C.3       1 UNL1        0.0000
      2 C         -44.5467  -31.2948    3.8663 C.3       1 UNL1        0.0000
      3 C         -44.5624  -30.0578    3.0260 C.3       1 UNL1        0.0000
      4 C         -44.4322  -32.5194    3.0023 C.3       1 UNL1        0.0000
      5 C         -44.4731  -33.7574    3.8183 C.ar      1 UNL1        0.0000
      6 C         -43.2910  -34.2597    4.3109 C.ar      1 UNL1        0.0000
      7 C         -43.2806  -35.3970    5.0667 C.ar      1 UNL1        0.0000
      8 C         -44.4504  -36.0593    5.3484 C.ar      1 UNL1        0.0000
      9 C         -45.6363  -35.5670    4.8627 C.ar      1 UNL1        0.0000
     10 C         -45.6440  -34.4189    4.0996 C.ar      1 UNL1        0.0000
     11 C         -44.4676  -37.2874    6.1609 C.3       1 UNL1        0.0000
     12 C         -43.1723  -37.3707    6.9681 C.3       1 UNL1        0.0000
     13 C         -45.6403  -37.1930    7.0791 C.2       1 UNL1        0.0000
     14 O         -45.7390  -36.2618    7.8913 O.co2     1 UNL1       -0.5000
     15 O         -46.6071  -38.1549    7.0087 O.co2     1 UNL1       -0.5000
     16 H         -43.4798  -30.3958    5.4533 H         1 UNL1        0.0000
     17 H         -42.4785  -31.2408    4.2966 H         1 UNL1        0.0000
     18 H         -43.4336  -32.1429    5.4488 H         1 UNL1        0.0000
     19 H         -45.4670  -31.3289    4.4100 H         1 UNL1        0.0000
     20 H         -43.6515  -29.9949    2.4677 H         1 UNL1        0.0000
     21 H         -44.6530  -29.1990    3.6575 H         1 UNL1        0.0000
     22 H         -45.3920  -30.0942    2.3515 H         1 UNL1        0.0000
     23 H         -43.5064  -32.4842    2.4674 H         1 UNL1        0.0000
     24 H         -45.2593  -32.5335    2.3237 H         1 UNL1        0.0000
     25 H         -42.4039  -33.7732    4.1068 H         1 UNL1        0.0000
     26 H         -42.3854  -35.7619    5.4292 H         1 UNL1        0.0000
     27 H         -46.5219  -36.0556    5.0686 H         1 UNL1        0.0000
     28 H         -46.5374  -34.0521    3.7357 H         1 UNL1        0.0000
     29 H         -44.5443  -38.1611    5.5477 H         1 UNL1        0.0000
     30 H         -43.0815  -36.5023    7.5869 H         1 UNL1        0.0000
     31 H         -42.3386  -37.4203    6.2988 H         1 UNL1        0.0000
     32 H         -43.1903  -38.2469    7.5814 H         1 UNL1        0.0000
@<TRIPOS>BOND
     1    1   17 1
     2    1    2 1
     3    1   16 1
     4    1   18 1
     5    2   19 1
     6    2    3 1
     7    2    4 1
     8    3   21 1
     9    3   22 1
    10    3   20 1
    11    4    5 1
    12    4   24 1
    13    4   23 1
    14    5    6 ar
    15    5   10 ar
    16    6    7 ar
    17    6   25 1
    18    7   26 1
    19    7    8 ar
    20    8    9 ar
    21    8   11 1
    22    9   10 ar
    23    9   27 1
    24   10   28 1
    25   11   29 1
    26   11   12 1
    27   11   13 1
    28   12   30 1
    29   12   31 1
    30   12   32 1
    31   13   15 ar
    32   13   14 ar
@<TRIPOS>SUBSTRUCTURE
1 UNL1 1
@<TRIPOS>COMMENT
ibuprofen
PLANTSproteinTorsions
102
4661 169.1580
5386 146.7648
6210 137.2825
5890 164.6739
4461 230.9355
1390 118.9226
2824 179.1439
4339 68.4409
2732 46.4516
4792 73.2600
3407 10.9014
5134 317.0219
6916 65.3027
7370 252.1275
6038 58.4597
7225 17.3945
3592 239.0772
2064 56.1387
2488 133.5155
1253 233.9700
2069 71.3750
2569 129.2657
3058 95.2012
1748 100.8277
1162 96.2503
1509 14.7019
560 82.5095
1627 197.1595
1941 345.0997
3631 117.9392
2381 252.1391
4221 296.9940
4687 268.5280
6983 49.8385
6668 248.5591
7305 155.5143
8693 149.0719
8404 149.2085
9055 35.0411
7052 40.1493
4708 101.4204
2652 63.6819
4332 84.4732
3011 325.6706
2257 30.3508
2778 221.8875
2057 81.6178
192 245.1754
315 272.6872
1085 212.0873
1007 241.6973
1407 210.7870
4816 162.0344
3131 180.5369
4654 179.1469
5144 248.6413
117 145.9702
6 276.7897
259 313.4634
1979 229.2710
2609 8.2094
2623 121.3317
5910 202.8237
5937 278.7636
2062 79.8285
890 265.5099
5008 240.6696
8602 117.1232
8478 238.4514
8300 223.6304
7721 120.0336
8466 271.6841
7852 150.8049
5849 155.3928
6302 200.8752
7439 83.6553
6284 227.2071
6003 245.8746
7165 219.9831
7623 203.2073
8158 76.1358
8667 65.0602
9078 112.4611
8684 83.8296
7666 303.6024
4231 77.9710
1659 207.3719
489 51.6388
238 29.6656
46 107.7926
83 70.5404
254 176.9949
1066 91.6946
2112 105.6624
4047 62.9151
5402 147.0924
2544 274.0237
4670 231.3935
4426 88.9861
5656 138.1983
7040 269.5507
6282 79.4230
PLANTSmolcadARTstart hb
PLANTSmolcadARTstart HB
LINES
-46.6071 -38.1549 7.00867 -47.597 -39.254 8.287 0 255 0 5
PLANTSmolcadARTstart HBCH
LINES
PLANTSmolcadARTstart HB-CHO
LINES
PLANTSmolcadARTend
PLANTSmolcadARTstart HB_WATER
LINES
PLANTSmolcadARTend

PLANTSmolcadARTend

