@<TRIPOS>MOLECULE
ibuprofen_entry_00001_conf_69
32 32 1
SMALL
NO_CHARGES


@<TRIPOS>ATOM
      1 C         -16.3390  -55.0005   -2.2536 C.3       1 UNL1        0.0000
      2 C         -15.9633  -56.3984   -1.8601 C.3       1 UNL1        0.0000
      3 C         -15.7192  -57.2440   -3.0691 C.3       1 UNL1        0.0000
      4 C         -14.7383  -56.3539   -0.9900 C.3       1 UNL1        0.0000
      5 C         -14.4578  -57.6814   -0.3905 C.ar      1 UNL1        0.0000
      6 C         -14.6742  -57.8534    0.9570 C.ar      1 UNL1        0.0000
      7 C         -14.4295  -59.0579    1.5520 C.ar      1 UNL1        0.0000
      8 C         -13.9631  -60.1190    0.8152 C.ar      1 UNL1        0.0000
      9 C         -13.7440  -59.9593   -0.5306 C.ar      1 UNL1        0.0000
     10 C         -13.9914  -58.7422   -1.1287 C.ar      1 UNL1        0.0000
     11 C         -13.6911  -61.4285    1.4315 C.3       1 UNL1        0.0000
     12 C         -14.8338  -62.3862    1.0951 C.3       1 UNL1        0.0000
     13 C         -12.4111  -61.9319    0.8521 C.2       1 UNL1        0.0000
     14 O         -12.3922  -62.9401    0.1312 O.co2     1 UNL1       -0.5000
     15 O         -11.2559  -61.2595    1.1315 O.co2     1 UNL1       -0.5000
     16 H         -17.2113  -55.0273   -2.8739 H         1 UNL1        0.0000
     17 H         -15.5313  -54.5523   -2.7935 H         1 UNL1        0.0000
     18 H         -16.5437  -54.4260   -1.3748 H         1 UNL1        0.0000
     19 H         -16.7705  -56.8387   -1.3142 H         1 UNL1        0.0000
     20 H         -14.9140  -56.8279   -3.6382 H         1 UNL1        0.0000
     21 H         -16.6038  -57.2702   -3.6703 H         1 UNL1        0.0000
     22 H         -15.4646  -58.2376   -2.7650 H         1 UNL1        0.0000
     23 H         -14.8921  -55.6423   -0.2064 H         1 UNL1        0.0000
     24 H         -13.9027  -56.0726   -1.5961 H         1 UNL1        0.0000
     25 H         -15.0239  -57.0648    1.5237 H         1 UNL1        0.0000
     26 H         -14.5966  -59.1714    2.5645 H         1 UNL1        0.0000
     27 H         -13.3944  -60.7499   -1.0948 H         1 UNL1        0.0000
     28 H         -13.8250  -58.6258   -2.1406 H         1 UNL1        0.0000
     29 H         -13.6129  -61.3512    2.4960 H         1 UNL1        0.0000
     30 H         -14.9245  -62.4735    0.0323 H         1 UNL1        0.0000
     31 H         -15.7481  -62.0055    1.5007 H         1 UNL1        0.0000
     32 H         -14.6291  -63.3476    1.5170 H         1 UNL1        0.0000
@<TRIPOS>BOND
     1    1   17 1
     2    1    2 1
     3    1   16 1
     4    1   18 1
     5    2   19 1
     6    2    3 1
     7    2    4 1
     8    3   21 1
     9    3   22 1
    10    3   20 1
    11    4    5 1
    12    4   24 1
    13    4   23 1
    14    5    6 ar
    15    5   10 ar
    16    6    7 ar
    17    6   25 1
    18    7   26 1
    19    7    8 ar
    20    8    9 ar
    21    8   11 1
    22    9   10 ar
    23    9   27 1
    24   10   28 1
    25   11   29 1
    26   11   12 1
    27   11   13 1
    28   12   30 1
    29   12   31 1
    30   12   32 1
    31   13   15 ar
    32   13   14 ar
@<TRIPOS>SUBSTRUCTURE
1 UNL1 1
@<TRIPOS>COMMENT
ibuprofen
PLANTSproteinTorsions
102
4661 113.2744
5386 34.1214
6210 150.2202
5890 33.9830
4461 158.2495
1390 185.2391
2824 354.3995
4339 41.8070
2732 17.5974
4792 26.1804
3407 354.2585
5134 179.7290
6916 63.4686
7370 207.8181
6038 140.8721
7225 156.2146
3592 106.3191
2064 17.6543
2488 223.0154
1253 51.7078
2069 187.6781
2569 221.7363
3058 227.0503
1748 160.1330
1162 216.2346
1509 344.2911
560 204.6516
1627 47.7401
1941 49.1631
3631 100.2155
2381 193.4144
4221 145.6357
4687 65.3660
6983 187.2994
6668 92.7061
7305 217.6080
8693 8.6384
8404 1.2432
9055 115.5085
7052 209.2010
4708 95.1963
2652 10.0609
4332 139.3874
3011 154.3749
2257 275.9313
2778 167.1728
2057 196.8413
192 209.2496
315 103.6368
1085 208.4060
1007 170.7842
1407 192.0669
4816 12.5606
3131 96.2683
4654 122.5747
5144 114.0913
117 64.4235
6 137.1836
259 140.0732
1979 144.4045
2609 312.2665
2623 179.6022
5910 202.1197
5937 330.2415
2062 203.6825
890 218.3558
5008 8.6980
8602 84.3115
8478 320.9722
8300 160.1049
7721 60.2286
8466 89.5927
7852 176.2044
5849 23.3631
6302 256.8274
7439 104.1945
6284 61.6211
6003 262.8697
7165 202.4146
7623 20.6591
8158 208.5454
8667 165.0077
9078 182.5825
8684 43.7835
7666 183.5874
4231 175.7912
1659 306.6552
489 206.1565
238 251.9308
46 307.2460
83 3.4683
254 204.0783
1066 263.4065
2112 245.1774
4047 108.3607
5402 245.6643
2544 293.2561
4670 306.7350
4426 222.3363
5656 208.3734
7040 246.4497
6282 84.7490
PLANTSmolcadARTstart hb
PLANTSmolcadARTstart HB
LINES
PLANTSmolcadARTstart HBCH
LINES
PLANTSmolcadARTstart HB-CHO
LINES
PLANTSmolcadARTend
PLANTSmolcadARTstart HB_WATER
LINES
PLANTSmolcadARTend

PLANTSmolcadARTend

