@<TRIPOS>MOLECULE
ibuprofen_entry_00001_conf_58
32 32 1
SMALL
NO_CHARGES


@<TRIPOS>ATOM
      1 C           1.6573  -66.9802    1.7674 C.3       1 UNL1        0.0000
      2 C           1.7170  -65.6099    1.1601 C.3       1 UNL1        0.0000
      3 C           2.5728  -65.6083   -0.0663 C.3       1 UNL1        0.0000
      4 C           0.3226  -65.1541    0.8322 C.3       1 UNL1        0.0000
      5 C           0.3004  -63.7168    0.4662 C.ar      1 UNL1        0.0000
      6 C          -0.2433  -63.3547   -0.7444 C.ar      1 UNL1        0.0000
      7 C          -0.2849  -62.0434   -1.1232 C.ar      1 UNL1        0.0000
      8 C           0.2154  -61.0628   -0.3018 C.ar      1 UNL1        0.0000
      9 C           0.7599  -61.4122    0.9090 C.ar      1 UNL1        0.0000
     10 C           0.8011  -62.7367    1.2889 C.ar      1 UNL1        0.0000
     11 C           0.1831  -59.6415   -0.6857 C.3       1 UNL1        0.0000
     12 C           1.4605  -58.9617   -0.1935 C.3       1 UNL1        0.0000
     13 C           0.1136  -59.5879   -2.1756 C.2       1 UNL1        0.0000
     14 O          -0.8569  -59.0724   -2.7491 O.co2     1 UNL1       -0.5000
     15 O           1.1426  -60.1193   -2.8993 O.co2     1 UNL1       -0.5000
     16 H           2.6488  -67.3092    2.0024 H         1 UNL1        0.0000
     17 H           1.2117  -67.6599    1.0715 H         1 UNL1        0.0000
     18 H           1.0707  -66.9483    2.6613 H         1 UNL1        0.0000
     19 H           2.1557  -64.9331    1.8623 H         1 UNL1        0.0000
     20 H           2.1585  -66.2784   -0.7907 H         1 UNL1        0.0000
     21 H           3.5618  -65.9268    0.1888 H         1 UNL1        0.0000
     22 H           2.6101  -64.6203   -0.4750 H         1 UNL1        0.0000
     23 H          -0.3045  -65.3070    1.6852 H         1 UNL1        0.0000
     24 H          -0.0315  -65.7217   -0.0027 H         1 UNL1        0.0000
     25 H          -0.6225  -64.0807   -1.3724 H         1 UNL1        0.0000
     26 H          -0.6959  -61.7874   -2.0350 H         1 UNL1        0.0000
     27 H           1.1382  -60.6839    1.5351 H         1 UNL1        0.0000
     28 H           1.2116  -62.9956    2.1997 H         1 UNL1        0.0000
     29 H          -0.6583  -59.1391   -0.2555 H         1 UNL1        0.0000
     30 H           2.3117  -59.4541   -0.6157 H         1 UNL1        0.0000
     31 H           1.5069  -59.0222    0.8740 H         1 UNL1        0.0000
     32 H           1.4560  -57.9349   -0.4930 H         1 UNL1        0.0000
@<TRIPOS>BOND
     1    1   17 1
     2    1    2 1
     3    1   16 1
     4    1   18 1
     5    2   19 1
     6    2    3 1
     7    2    4 1
     8    3   21 1
     9    3   22 1
    10    3   20 1
    11    4    5 1
    12    4   24 1
    13    4   23 1
    14    5    6 ar
    15    5   10 ar
    16    6    7 ar
    17    6   25 1
    18    7   26 1
    19    7    8 ar
    20    8    9 ar
    21    8   11 1
    22    9   10 ar
    23    9   27 1
    24   10   28 1
    25   11   29 1
    26   11   12 1
    27   11   13 1
    28   12   30 1
    29   12   31 1
    30   12   32 1
    31   13   15 ar
    32   13   14 ar
@<TRIPOS>SUBSTRUCTURE
1 UNL1 1
@<TRIPOS>COMMENT
ibuprofen
PLANTSproteinTorsions
102
4661 322.1382
5386 176.8046
6210 25.0128
5890 251.8816
4461 316.5889
1390 216.6017
2824 8.1826
4339 98.3383
2732 106.1000
4792 7.6121
3407 70.6503
5134 344.1089
6916 7.0337
7370 72.0264
6038 223.1207
7225 292.7868
3592 229.5353
2064 318.1697
2488 92.1751
1253 235.9599
2069 162.2959
2569 137.9981
3058 130.4200
1748 98.4523
1162 57.5824
1509 40.0221
560 97.5701
1627 357.0599
1941 65.4892
3631 21.1252
2381 54.4335
4221 95.1605
4687 181.5367
6983 8.2367
6668 287.7133
7305 130.2987
8693 35.9655
8404 341.2433
9055 204.2569
7052 251.1911
4708 68.8394
2652 142.1568
4332 228.8540
3011 91.2075
2257 27.7884
2778 338.6551
2057 95.6678
192 175.6793
315 157.3835
1085 3.9864
1007 108.2093
1407 318.8270
4816 54.1289
3131 279.6521
4654 194.6033
5144 78.5902
117 71.7123
6 125.2135
259 42.2270
1979 141.1590
2609 145.5352
2623 117.5398
5910 66.2024
5937 206.3772
2062 193.3590
890 50.6857
5008 88.9348
8602 300.9781
8478 251.0919
8300 204.7023
7721 264.3600
8466 161.8199
7852 75.1254
5849 198.9303
6302 269.4090
7439 81.4306
6284 113.7597
6003 71.6262
7165 136.6936
7623 162.6509
8158 45.3332
8667 142.7313
9078 167.4161
8684 138.6943
7666 145.9370
4231 200.1237
1659 69.4563
489 63.8565
238 354.5585
46 70.7338
83 251.2687
254 138.3700
1066 145.6312
2112 143.8501
4047 13.9246
5402 293.0899
2544 119.7326
4670 191.0962
4426 96.1822
5656 154.4265
7040 184.6721
6282 134.4731
PLANTSmolcadARTstart hb
PLANTSmolcadARTstart HB
LINES
PLANTSmolcadARTstart HBCH
LINES
PLANTSmolcadARTstart HB-CHO
LINES
PLANTSmolcadARTend
PLANTSmolcadARTstart HB_WATER
LINES
PLANTSmolcadARTend

PLANTSmolcadARTend

