@<TRIPOS>MOLECULE
ibuprofen_entry_00001_conf_71
32 32 1
SMALL
NO_CHARGES


@<TRIPOS>ATOM
      1 C         -40.9165  -55.3840    6.5040 C.3       1 UNL1        0.0000
      2 C         -40.5082  -56.4914    5.5783 C.3       1 UNL1        0.0000
      3 C         -39.0722  -56.3532    5.1842 C.3       1 UNL1        0.0000
      4 C         -40.7460  -57.8129    6.2542 C.3       1 UNL1        0.0000
      5 C         -40.4036  -58.9434    5.3571 C.ar      1 UNL1        0.0000
      6 C         -40.8692  -58.9204    4.0629 C.ar      1 UNL1        0.0000
      7 C         -40.5791  -59.9397    3.2017 C.ar      1 UNL1        0.0000
      8 C         -39.8172  -61.0060    3.6128 C.ar      1 UNL1        0.0000
      9 C         -39.3466  -61.0396    4.9020 C.ar      1 UNL1        0.0000
     10 C         -39.6412  -60.0095    5.7695 C.ar      1 UNL1        0.0000
     11 C         -39.4895  -62.1182    2.7049 C.3       1 UNL1        0.0000
     12 C         -38.1493  -62.7243    3.1204 C.3       1 UNL1        0.0000
     13 C         -40.5761  -63.1325    2.8390 C.2       1 UNL1        0.0000
     14 O         -41.3178  -63.1426    3.8321 O.co2     1 UNL1       -0.5000
     15 O         -40.7396  -64.0535    1.8441 O.co2     1 UNL1       -0.5000
     16 H         -40.7486  -54.4405    6.0267 H         1 UNL1        0.0000
     17 H         -40.3370  -55.4375    7.4019 H         1 UNL1        0.0000
     18 H         -41.9545  -55.4836    6.7423 H         1 UNL1        0.0000
     19 H         -41.0957  -56.4383    4.6863 H         1 UNL1        0.0000
     20 H         -38.4566  -56.4027    6.0582 H         1 UNL1        0.0000
     21 H         -38.9251  -55.4117    4.6979 H         1 UNL1        0.0000
     22 H         -38.8070  -57.1455    4.5161 H         1 UNL1        0.0000
     23 H         -41.7776  -57.8844    6.5280 H         1 UNL1        0.0000
     24 H         -40.1212  -57.8670    7.1210 H         1 UNL1        0.0000
     25 H         -41.4435  -58.1259    3.7399 H         1 UNL1        0.0000
     26 H         -40.9359  -59.9082    2.2334 H         1 UNL1        0.0000
     27 H         -38.7723  -61.8353    5.2221 H         1 UNL1        0.0000
     28 H         -39.2861  -60.0385    6.7381 H         1 UNL1        0.0000
     29 H         -39.4138  -61.7857    1.6905 H         1 UNL1        0.0000
     30 H         -38.2097  -63.0615    4.1343 H         1 UNL1        0.0000
     31 H         -37.3822  -61.9827    3.0365 H         1 UNL1        0.0000
     32 H         -37.9185  -63.5506    2.4816 H         1 UNL1        0.0000
@<TRIPOS>BOND
     1    1   17 1
     2    1    2 1
     3    1   16 1
     4    1   18 1
     5    2   19 1
     6    2    3 1
     7    2    4 1
     8    3   21 1
     9    3   22 1
    10    3   20 1
    11    4    5 1
    12    4   24 1
    13    4   23 1
    14    5    6 ar
    15    5   10 ar
    16    6    7 ar
    17    6   25 1
    18    7   26 1
    19    7    8 ar
    20    8    9 ar
    21    8   11 1
    22    9   10 ar
    23    9   27 1
    24   10   28 1
    25   11   29 1
    26   11   12 1
    27   11   13 1
    28   12   30 1
    29   12   31 1
    30   12   32 1
    31   13   15 ar
    32   13   14 ar
@<TRIPOS>SUBSTRUCTURE
1 UNL1 1
@<TRIPOS>COMMENT
ibuprofen
PLANTSproteinTorsions
102
4661 168.6724
5386 56.4776
6210 30.5285
5890 108.2393
4461 357.7174
1390 350.4252
2824 12.1685
4339 124.1642
2732 160.3997
4792 261.3292
3407 247.3406
5134 332.3078
6916 82.7473
7370 178.7011
6038 178.4076
7225 192.6606
3592 176.0922
2064 60.1179
2488 325.3554
1253 141.3173
2069 258.5316
2569 208.5751
3058 205.4369
1748 252.0483
1162 219.2931
1509 152.2771
560 99.3286
1627 70.6006
1941 261.5436
3631 63.4664
2381 194.5058
4221 95.9411
4687 29.7596
6983 127.4545
6668 266.9402
7305 223.0694
8693 272.3004
8404 71.4714
9055 131.4991
7052 27.6033
4708 157.0264
2652 148.6742
4332 261.9563
3011 308.2352
2257 136.6757
2778 178.4882
2057 53.0889
192 38.0600
315 54.4869
1085 334.9852
1007 9.8832
1407 30.1575
4816 314.4630
3131 231.2821
4654 37.1536
5144 156.9726
117 190.6380
6 306.7116
259 199.1572
1979 19.3051
2609 87.1574
2623 153.7933
5910 265.5189
5937 144.3216
2062 259.7944
890 92.4772
5008 158.3371
8602 106.4691
8478 300.1537
8300 175.8708
7721 47.7776
8466 257.6385
7852 59.5816
5849 36.9392
6302 260.9188
7439 227.5836
6284 132.3587
6003 187.3800
7165 179.8732
7623 353.5095
8158 160.3149
8667 162.6845
9078 144.6863
8684 216.5749
7666 145.5170
4231 93.9200
1659 277.2062
489 191.1298
238 270.3860
46 117.9358
83 86.5027
254 191.2225
1066 42.2501
2112 218.6495
4047 71.3229
5402 139.1285
2544 54.7413
4670 232.1786
4426 214.5783
5656 259.6781
7040 138.9534
6282 238.7702
PLANTSmolcadARTstart hb
PLANTSmolcadARTstart HB
LINES
-40.7396 -64.0535 1.84408 -39.753 -64.09 0.005 0 255 0 5
PLANTSmolcadARTstart HBCH
LINES
PLANTSmolcadARTstart HB-CHO
LINES
PLANTSmolcadARTend
PLANTSmolcadARTstart HB_WATER
LINES
PLANTSmolcadARTend

PLANTSmolcadARTend

