@<TRIPOS>MOLECULE
ibuprofen_entry_00001_conf_34
32 32 1
SMALL
NO_CHARGES


@<TRIPOS>ATOM
      1 C         -14.1663  -63.1205   -4.5489 C.3       1 UNL1        0.0000
      2 C         -13.9062  -62.0250   -3.5579 C.3       1 UNL1        0.0000
      3 C         -14.9647  -60.9717   -3.6391 C.3       1 UNL1        0.0000
      4 C         -13.8503  -62.6127   -2.1755 C.3       1 UNL1        0.0000
      5 C         -13.5961  -61.5648   -1.1570 C.ar      1 UNL1        0.0000
      6 C         -14.0120  -61.7887    0.1349 C.ar      1 UNL1        0.0000
      7 C         -13.7995  -60.8520    1.1056 C.ar      1 UNL1        0.0000
      8 C         -13.1666  -59.6696    0.8088 C.ar      1 UNL1        0.0000
      9 C         -12.7466  -59.4354   -0.4770 C.ar      1 UNL1        0.0000
     10 C         -12.9626  -60.3825   -1.4551 C.ar      1 UNL1        0.0000
     11 C         -12.9248  -58.6427    1.8363 C.3       1 UNL1        0.0000
     12 C         -11.5959  -57.9465    1.5439 C.3       1 UNL1        0.0000
     13 C         -14.0475  -57.6628    1.7540 C.2       1 UNL1        0.0000
     14 O         -15.2268  -58.0446    1.7587 O.co2     1 UNL1       -0.5000
     15 O         -13.7515  -56.3321    1.6730 O.co2     1 UNL1       -0.5000
     16 H         -14.2071  -62.7062   -5.5354 H         1 UNL1        0.0000
     17 H         -15.0989  -63.5932   -4.3218 H         1 UNL1        0.0000
     18 H         -13.3781  -63.8419   -4.4973 H         1 UNL1        0.0000
     19 H         -12.9695  -61.5613   -3.7845 H         1 UNL1        0.0000
     20 H         -15.9172  -61.4060   -3.4166 H         1 UNL1        0.0000
     21 H         -14.9830  -60.5602   -4.6265 H         1 UNL1        0.0000
     22 H         -14.7527  -60.1965   -2.9330 H         1 UNL1        0.0000
     23 H         -13.0639  -63.3368   -2.1354 H         1 UNL1        0.0000
     24 H         -14.7944  -63.0693   -1.9634 H         1 UNL1        0.0000
     25 H         -14.4896  -62.6722    0.3727 H         1 UNL1        0.0000
     26 H         -14.1177  -61.0344    2.0707 H         1 UNL1        0.0000
     27 H         -12.2690  -58.5510   -0.7117 H         1 UNL1        0.0000
     28 H         -12.6459  -60.2026   -2.4207 H         1 UNL1        0.0000
     29 H         -12.8768  -59.0724    2.8152 H         1 UNL1        0.0000
     30 H         -11.6288  -57.5115    0.5667 H         1 UNL1        0.0000
     31 H         -10.8018  -58.6625    1.5888 H         1 UNL1        0.0000
     32 H         -11.4273  -57.1804    2.2712 H         1 UNL1        0.0000
@<TRIPOS>BOND
     1    1   17 1
     2    1    2 1
     3    1   16 1
     4    1   18 1
     5    2   19 1
     6    2    3 1
     7    2    4 1
     8    3   21 1
     9    3   22 1
    10    3   20 1
    11    4    5 1
    12    4   24 1
    13    4   23 1
    14    5    6 ar
    15    5   10 ar
    16    6    7 ar
    17    6   25 1
    18    7   26 1
    19    7    8 ar
    20    8    9 ar
    21    8   11 1
    22    9   10 ar
    23    9   27 1
    24   10   28 1
    25   11   29 1
    26   11   12 1
    27   11   13 1
    28   12   30 1
    29   12   31 1
    30   12   32 1
    31   13   15 ar
    32   13   14 ar
@<TRIPOS>SUBSTRUCTURE
1 UNL1 1
@<TRIPOS>COMMENT
ibuprofen
PLANTSproteinTorsions
102
4661 102.7839
5386 186.6398
6210 66.6112
5890 218.2262
4461 239.7957
1390 77.8196
2824 203.3123
4339 72.8442
2732 63.1079
4792 85.0240
3407 103.2355
5134 333.1836
6916 153.8917
7370 240.3233
6038 250.4245
7225 247.4932
3592 131.2889
2064 144.5222
2488 13.0285
1253 165.2146
2069 306.3128
2569 152.8072
3058 32.2903
1748 29.6184
1162 133.2204
1509 234.8070
560 127.3919
1627 160.0944
1941 120.8550
3631 114.9471
2381 39.1071
4221 268.1011
4687 238.2684
6983 48.7072
6668 95.4660
7305 68.9274
8693 63.3439
8404 37.4685
9055 172.2815
7052 236.8368
4708 335.0778
2652 72.4064
4332 97.7183
3011 54.2077
2257 110.3062
2778 30.2609
2057 100.9086
192 145.7353
315 168.2357
1085 71.1474
1007 242.2557
1407 195.2242
4816 125.7610
3131 85.5408
4654 7.3724
5144 206.7285
117 262.6038
6 18.6844
259 162.3305
1979 157.3130
2609 107.2960
2623 124.6142
5910 3.4383
5937 221.3665
2062 289.6764
890 181.2558
5008 227.1418
8602 87.7820
8478 245.8358
8300 228.8987
7721 314.3667
8466 240.3145
7852 79.6161
5849 298.3272
6302 202.0928
7439 249.7952
6284 20.8227
6003 109.6356
7165 239.1313
7623 124.6439
8158 237.5786
8667 76.8631
9078 262.5164
8684 156.2364
7666 61.8442
4231 252.5218
1659 292.2350
489 231.8601
238 180.2631
46 36.6875
83 144.3919
254 219.0072
1066 254.9217
2112 124.0331
4047 268.5935
5402 271.1033
2544 189.6550
4670 192.1825
4426 262.2060
5656 254.2835
7040 248.7450
6282 183.1330
PLANTSmolcadARTstart hb
PLANTSmolcadARTstart HB
LINES
-15.2268 -58.0446 1.75872 -16.346 -59.843 1.833 0 255 0 5
PLANTSmolcadARTstart HBCH
LINES
PLANTSmolcadARTstart HB-CHO
LINES
PLANTSmolcadARTend
PLANTSmolcadARTstart HB_WATER
LINES
PLANTSmolcadARTend

PLANTSmolcadARTend

