@<TRIPOS>MOLECULE
ibuprofen_entry_00001_conf_12
32 32 1
SMALL
NO_CHARGES


@<TRIPOS>ATOM
      1 C         -13.9570  -58.2771    1.6243 C.3       1 UNL1        0.0000
      2 C         -13.9801  -59.4552    0.6962 C.3       1 UNL1        0.0000
      3 C         -13.0905  -59.2211   -0.4829 C.3       1 UNL1        0.0000
      4 C         -13.5497  -60.6841    1.4473 C.3       1 UNL1        0.0000
      5 C         -13.7095  -61.9032    0.6177 C.ar      1 UNL1        0.0000
      6 C         -14.7534  -62.7551    0.8948 C.ar      1 UNL1        0.0000
      7 C         -14.9392  -63.8894    0.1576 C.ar      1 UNL1        0.0000
      8 C         -14.0869  -64.1996   -0.8739 C.ar      1 UNL1        0.0000
      9 C         -13.0419  -63.3566   -1.1601 C.ar      1 UNL1        0.0000
     10 C         -12.8563  -62.2123   -0.4140 C.ar      1 UNL1        0.0000
     11 C         -14.2644  -65.4161   -1.6847 C.3       1 UNL1        0.0000
     12 C         -15.6979  -65.9207   -1.5214 C.3       1 UNL1        0.0000
     13 C         -14.0108  -65.0399   -3.1065 C.2       1 UNL1        0.0000
     14 O         -13.3686  -65.7882   -3.8576 O.co2     1 UNL1       -0.5000
     15 O         -14.5007  -63.8516   -3.5676 O.co2     1 UNL1       -0.5000
     16 H         -14.2628  -57.3991    1.0933 H         1 UNL1        0.0000
     17 H         -12.9651  -58.1387    2.0008 H         1 UNL1        0.0000
     18 H         -14.6272  -58.4527    2.4393 H         1 UNL1        0.0000
     19 H         -14.9749  -59.5939    0.3291 H         1 UNL1        0.0000
     20 H         -12.0844  -59.0783   -0.1473 H         1 UNL1        0.0000
     21 H         -13.4177  -58.3486   -1.0086 H         1 UNL1        0.0000
     22 H         -13.1318  -60.0677   -1.1357 H         1 UNL1        0.0000
     23 H         -14.1468  -60.7812    2.3295 H         1 UNL1        0.0000
     24 H         -12.5155  -60.5805    1.7015 H         1 UNL1        0.0000
     25 H         -15.4016  -62.5355    1.6674 H         1 UNL1        0.0000
     26 H         -15.7272  -64.5191    0.3778 H         1 UNL1        0.0000
     27 H         -12.3954  -63.5788   -1.9334 H         1 UNL1        0.0000
     28 H         -12.0693  -61.5813   -0.6318 H         1 UNL1        0.0000
     29 H         -13.5929  -66.1913   -1.3792 H         1 UNL1        0.0000
     30 H         -16.3819  -65.1550   -1.8232 H         1 UNL1        0.0000
     31 H         -15.8724  -66.1704   -0.4954 H         1 UNL1        0.0000
     32 H         -15.8416  -66.7889   -2.1294 H         1 UNL1        0.0000
@<TRIPOS>BOND
     1    1   17 1
     2    1    2 1
     3    1   16 1
     4    1   18 1
     5    2   19 1
     6    2    3 1
     7    2    4 1
     8    3   21 1
     9    3   22 1
    10    3   20 1
    11    4    5 1
    12    4   24 1
    13    4   23 1
    14    5    6 ar
    15    5   10 ar
    16    6    7 ar
    17    6   25 1
    18    7   26 1
    19    7    8 ar
    20    8    9 ar
    21    8   11 1
    22    9   10 ar
    23    9   27 1
    24   10   28 1
    25   11   29 1
    26   11   12 1
    27   11   13 1
    28   12   30 1
    29   12   31 1
    30   12   32 1
    31   13   15 ar
    32   13   14 ar
@<TRIPOS>SUBSTRUCTURE
1 UNL1 1
@<TRIPOS>COMMENT
ibuprofen
PLANTSproteinTorsions
102
4661 358.4200
5386 123.2425
6210 146.6653
5890 84.7700
4461 105.0459
1390 57.2053
2824 98.3825
4339 130.8243
2732 64.6199
4792 333.5660
3407 9.8011
5134 222.5999
6916 77.3171
7370 118.8751
6038 345.3664
7225 148.2480
3592 250.7130
2064 163.4247
2488 131.1296
1253 138.5929
2069 213.2888
2569 346.2663
3058 321.0004
1748 132.3360
1162 3.2643
1509 173.2298
560 30.9652
1627 247.5472
1941 255.8452
3631 78.3151
2381 154.1294
4221 41.3773
4687 106.0115
6983 14.8032
6668 27.4341
7305 348.1672
8693 307.7315
8404 294.6177
9055 230.0640
7052 70.3481
4708 117.2703
2652 250.5595
4332 208.1295
3011 232.2502
2257 217.8451
2778 31.5525
2057 251.5658
192 98.9228
315 276.3568
1085 203.3446
1007 23.4366
1407 169.5044
4816 227.6814
3131 89.1974
4654 254.6781
5144 221.9109
117 299.4369
6 220.8991
259 246.4307
1979 141.8867
2609 135.8361
2623 171.0633
5910 71.3225
5937 40.8594
2062 165.0596
890 66.2361
5008 28.8147
8602 34.4822
8478 36.9291
8300 71.1367
7721 61.6574
8466 164.7495
7852 104.6768
5849 69.9380
6302 282.1143
7439 293.4442
6284 233.4383
6003 178.4708
7165 209.8472
7623 270.0410
8158 222.5333
8667 238.3201
9078 128.5393
8684 144.3146
7666 278.5738
4231 227.2275
1659 210.2506
489 180.6877
238 216.9863
46 235.3631
83 14.8521
254 266.7643
1066 324.7706
2112 152.8307
4047 139.6099
5402 10.3134
2544 320.6647
4670 97.0659
4426 116.9682
5656 298.0832
7040 73.6626
6282 129.3847
PLANTSmolcadARTstart hb
PLANTSmolcadARTstart HB
LINES
PLANTSmolcadARTstart HBCH
LINES
PLANTSmolcadARTstart HB-CHO
LINES
PLANTSmolcadARTend
PLANTSmolcadARTstart HB_WATER
LINES
PLANTSmolcadARTend

PLANTSmolcadARTend

