@<TRIPOS>MOLECULE
ibuprofen_entry_00001_conf_87
32 32 1
SMALL
NO_CHARGES


@<TRIPOS>ATOM
      1 C         -20.1226  -32.1372    2.5673 C.3       1 UNL1        0.0000
      2 C         -19.4750  -33.3347    1.9373 C.3       1 UNL1        0.0000
      3 C         -19.5466  -33.2551    0.4457 C.3       1 UNL1        0.0000
      4 C         -18.0455  -33.4205    2.3941 C.3       1 UNL1        0.0000
      5 C         -17.3949  -34.6549    1.8912 C.ar      1 UNL1        0.0000
      6 C         -16.0665  -34.6012    1.5382 C.ar      1 UNL1        0.0000
      7 C         -15.4263  -35.7128    1.0700 C.ar      1 UNL1        0.0000
      8 C         -16.0977  -36.9043    0.9434 C.ar      1 UNL1        0.0000
      9 C         -17.4236  -36.9701    1.2933 C.ar      1 UNL1        0.0000
     10 C         -18.0677  -35.8463    1.7653 C.ar      1 UNL1        0.0000
     11 C         -15.4316  -38.1179    0.4414 C.3       1 UNL1        0.0000
     12 C         -15.9158  -39.3233    1.2470 C.3       1 UNL1        0.0000
     13 C         -15.8148  -38.2708   -0.9929 C.2       1 UNL1        0.0000
     14 O         -15.4323  -39.2478   -1.6529 O.co2     1 UNL1       -0.5000
     15 O         -16.5977  -37.3111   -1.5681 O.co2     1 UNL1       -0.5000
     16 H         -21.1413  -32.0720    2.2443 H         1 UNL1        0.0000
     17 H         -19.5981  -31.2520    2.2736 H         1 UNL1        0.0000
     18 H         -20.0913  -32.2344    3.6320 H         1 UNL1        0.0000
     19 H         -19.9980  -34.2170    2.2402 H         1 UNL1        0.0000
     20 H         -19.0304  -32.3796    0.1105 H         1 UNL1        0.0000
     21 H         -20.5706  -33.2035    0.1402 H         1 UNL1        0.0000
     22 H         -19.0899  -34.1234    0.0190 H         1 UNL1        0.0000
     23 H         -18.0202  -33.4232    3.4635 H         1 UNL1        0.0000
     24 H         -17.5151  -32.5760    2.0065 H         1 UNL1        0.0000
     25 H         -15.5491  -33.7125    1.6272 H         1 UNL1        0.0000
     26 H         -14.4290  -35.6566    0.8088 H         1 UNL1        0.0000
     27 H         -17.9384  -37.8602    1.2034 H         1 UNL1        0.0000
     28 H         -19.0646  -35.8995    2.0268 H         1 UNL1        0.0000
     29 H         -14.3680  -38.0484    0.5372 H         1 UNL1        0.0000
     30 H         -16.9793  -39.4056    1.1609 H         1 UNL1        0.0000
     31 H         -15.6504  -39.1934    2.2756 H         1 UNL1        0.0000
     32 H         -15.4563  -40.2123    0.8692 H         1 UNL1        0.0000
@<TRIPOS>BOND
     1    1   17 1
     2    1    2 1
     3    1   16 1
     4    1   18 1
     5    2   19 1
     6    2    3 1
     7    2    4 1
     8    3   21 1
     9    3   22 1
    10    3   20 1
    11    4    5 1
    12    4   24 1
    13    4   23 1
    14    5    6 ar
    15    5   10 ar
    16    6    7 ar
    17    6   25 1
    18    7   26 1
    19    7    8 ar
    20    8    9 ar
    21    8   11 1
    22    9   10 ar
    23    9   27 1
    24   10   28 1
    25   11   29 1
    26   11   12 1
    27   11   13 1
    28   12   30 1
    29   12   31 1
    30   12   32 1
    31   13   15 ar
    32   13   14 ar
@<TRIPOS>SUBSTRUCTURE
1 UNL1 1
@<TRIPOS>COMMENT
ibuprofen
PLANTSproteinTorsions
102
4661 31.4364
5386 173.7191
6210 155.7504
5890 32.1041
4461 194.5933
1390 135.6715
2824 250.7760
4339 281.4662
2732 145.5960
4792 65.6403
3407 14.1157
5134 342.4803
6916 28.0202
7370 120.9673
6038 224.5341
7225 204.1575
3592 22.3911
2064 282.3894
2488 13.4738
1253 187.0717
2069 329.8089
2569 220.9035
3058 154.5474
1748 244.7914
1162 122.5449
1509 287.0842
560 225.4140
1627 151.9294
1941 44.2890
3631 170.2456
2381 358.3966
4221 121.1549
4687 204.4147
6983 248.1484
6668 90.8363
7305 88.3134
8693 290.0070
8404 102.8256
9055 356.9240
7052 174.8797
4708 335.4367
2652 263.0327
4332 74.4755
3011 330.4777
2257 0.4091
2778 112.8360
2057 68.0433
192 111.3443
315 12.9543
1085 102.7208
1007 343.5608
1407 186.4809
4816 74.8045
3131 276.3455
4654 211.0525
5144 101.3126
117 181.0207
6 181.4238
259 118.8211
1979 261.4491
2609 200.9055
2623 224.2509
5910 192.8081
5937 312.1788
2062 55.2802
890 309.8872
5008 278.0257
8602 122.0513
8478 213.9925
8300 265.2601
7721 337.9479
8466 34.6668
7852 102.5504
5849 95.3036
6302 100.6059
7439 174.5567
6284 279.6117
6003 249.5803
7165 254.7969
7623 209.1171
8158 235.8533
8667 299.7493
9078 159.4406
8684 274.2109
7666 208.7355
4231 116.3558
1659 18.6747
489 77.6176
238 152.9659
46 194.7112
83 270.6101
254 237.7051
1066 176.9183
2112 119.7883
4047 274.3575
5402 56.0560
2544 112.1227
4670 266.2122
4426 145.2109
5656 180.4652
7040 56.6925
6282 165.8042
PLANTSmolcadARTstart hb
PLANTSmolcadARTstart HB
LINES
PLANTSmolcadARTstart HBCH
LINES
PLANTSmolcadARTstart HB-CHO
LINES
PLANTSmolcadARTend
PLANTSmolcadARTstart HB_WATER
LINES
PLANTSmolcadARTend

PLANTSmolcadARTend

