@<TRIPOS>MOLECULE
ibuprofen_entry_00001_conf_61
32 32 1
SMALL
NO_CHARGES


@<TRIPOS>ATOM
      1 C         -40.3074  -31.4817  -12.6942 C.3       1 UNL1        0.0000
      2 C         -40.7567  -30.9826  -11.3529 C.3       1 UNL1        0.0000
      3 C         -41.9732  -30.1230  -11.4853 C.3       1 UNL1        0.0000
      4 C         -41.0344  -32.1571  -10.4568 C.3       1 UNL1        0.0000
      5 C         -41.5024  -31.7137   -9.1210 C.ar      1 UNL1        0.0000
      6 C         -40.8466  -30.6722   -8.5066 C.ar      1 UNL1        0.0000
      7 C         -41.2425  -30.2306   -7.2765 C.ar      1 UNL1        0.0000
      8 C         -42.3028  -30.8187   -6.6312 C.ar      1 UNL1        0.0000
      9 C         -42.9653  -31.8585   -7.2349 C.ar      1 UNL1        0.0000
     10 C         -42.5634  -32.3027   -8.4765 C.ar      1 UNL1        0.0000
     11 C         -42.7504  -30.3622   -5.3046 C.3       1 UNL1        0.0000
     12 C         -43.3580  -31.5433   -4.5484 C.3       1 UNL1        0.0000
     13 C         -41.5468  -29.8543   -4.5830 C.2       1 UNL1        0.0000
     14 O         -41.4397  -28.6545   -4.2904 O.co2     1 UNL1       -0.5000
     15 O         -40.5609  -30.7384   -4.2494 O.co2     1 UNL1       -0.5000
     16 H         -40.1086  -30.6482  -13.3362 H         1 UNL1        0.0000
     17 H         -41.0762  -32.0883  -13.1253 H         1 UNL1        0.0000
     18 H         -39.4169  -32.0628  -12.5779 H         1 UNL1        0.0000
     19 H         -39.9818  -30.3838  -10.9232 H         1 UNL1        0.0000
     20 H         -42.7692  -30.6957  -11.9138 H         1 UNL1        0.0000
     21 H         -41.7533  -29.2893  -12.1187 H         1 UNL1        0.0000
     22 H         -42.2681  -29.7696  -10.5195 H         1 UNL1        0.0000
     23 H         -40.1370  -32.7277  -10.3407 H         1 UNL1        0.0000
     24 H         -41.8033  -32.7508  -10.9053 H         1 UNL1        0.0000
     25 H         -40.0476  -30.2210   -8.9791 H         1 UNL1        0.0000
     26 H         -40.7401  -29.4481   -6.8281 H         1 UNL1        0.0000
     27 H         -43.7642  -32.3077   -6.7600 H         1 UNL1        0.0000
     28 H         -43.0636  -33.0850   -8.9269 H         1 UNL1        0.0000
     29 H         -43.4890  -29.5919   -5.3847 H         1 UNL1        0.0000
     30 H         -42.6301  -32.3229   -4.4606 H         1 UNL1        0.0000
     31 H         -44.2091  -31.9091   -5.0845 H         1 UNL1        0.0000
     32 H         -43.6605  -31.2246   -3.5731 H         1 UNL1        0.0000
@<TRIPOS>BOND
     1    1   17 1
     2    1    2 1
     3    1   16 1
     4    1   18 1
     5    2   19 1
     6    2    3 1
     7    2    4 1
     8    3   21 1
     9    3   22 1
    10    3   20 1
    11    4    5 1
    12    4   24 1
    13    4   23 1
    14    5    6 ar
    15    5   10 ar
    16    6    7 ar
    17    6   25 1
    18    7   26 1
    19    7    8 ar
    20    8    9 ar
    21    8   11 1
    22    9   10 ar
    23    9   27 1
    24   10   28 1
    25   11   29 1
    26   11   12 1
    27   11   13 1
    28   12   30 1
    29   12   31 1
    30   12   32 1
    31   13   15 ar
    32   13   14 ar
@<TRIPOS>SUBSTRUCTURE
1 UNL1 1
@<TRIPOS>COMMENT
ibuprofen
PLANTSproteinTorsions
102
4661 23.6260
5386 40.6189
6210 263.6996
5890 141.5267
4461 307.4915
1390 264.7169
2824 109.2994
4339 44.6750
2732 296.6672
4792 320.4280
3407 357.5384
5134 19.1200
6916 161.7129
7370 316.5248
6038 87.4505
7225 135.9209
3592 12.0955
2064 223.9314
2488 209.0004
1253 15.9506
2069 176.1587
2569 131.5140
3058 83.6882
1748 106.7554
1162 105.4309
1509 9.0021
560 100.9101
1627 239.3949
1941 287.1291
3631 165.6026
2381 207.7723
4221 349.3008
4687 287.5073
6983 147.4985
6668 273.9020
7305 117.1136
8693 0.9050
8404 331.0860
9055 134.0843
7052 200.7286
4708 344.1145
2652 264.6877
4332 53.8900
3011 294.4509
2257 1.2540
2778 201.3871
2057 23.7402
192 308.4373
315 7.3145
1085 136.6594
1007 306.5311
1407 324.1908
4816 239.3669
3131 153.6860
4654 218.3185
5144 196.0602
117 246.9591
6 43.1669
259 104.6136
1979 285.0135
2609 66.2458
2623 66.3298
5910 217.9360
5937 209.6324
2062 257.1452
890 70.3391
5008 124.2793
8602 248.6525
8478 200.0512
8300 86.7991
7721 196.4736
8466 207.3302
7852 322.1660
5849 51.3279
6302 139.4932
7439 52.3888
6284 182.8617
6003 132.2583
7165 124.5169
7623 246.2507
8158 235.9944
8667 148.8127
9078 149.0901
8684 64.0407
7666 217.4383
4231 141.0227
1659 82.3427
489 139.5791
238 44.2820
46 85.5686
83 269.9880
254 222.8123
1066 271.9817
2112 254.1170
4047 117.7085
5402 113.9270
2544 300.8179
4670 262.2928
4426 257.0531
5656 13.2581
7040 37.2376
6282 331.6406
PLANTSmolcadARTstart hb
PLANTSmolcadARTstart HB
LINES
PLANTSmolcadARTstart HBCH
LINES
-40.5609 -30.7384 -4.24937 -38.838 -29.617 -3.855 255 0 0 5
-40.5609 -30.7384 -4.24937 -39.496 -31.389 -2.563 255 0 0 5
PLANTSmolcadARTstart HB-CHO
LINES
PLANTSmolcadARTend
PLANTSmolcadARTstart HB_WATER
LINES
PLANTSmolcadARTend

PLANTSmolcadARTend

