@<TRIPOS>MOLECULE
ibuprofen_entry_00001_conf_88
32 32 1
SMALL
NO_CHARGES


@<TRIPOS>ATOM
      1 C          -0.9655  -71.4462    5.9849 C.3       1 UNL1        0.0000
      2 C          -0.6318  -70.2730    5.1117 C.3       1 UNL1        0.0000
      3 C           0.4306  -70.6314    4.1221 C.3       1 UNL1        0.0000
      4 C          -1.8770  -69.8123    4.4069 C.3       1 UNL1        0.0000
      5 C          -1.7814  -68.3809    4.0299 C.ar      1 UNL1        0.0000
      6 C          -0.6730  -67.9565    3.3345 C.ar      1 UNL1        0.0000
      7 C          -0.5422  -66.6479    2.9667 C.ar      1 UNL1        0.0000
      8 C          -1.5154  -65.7324    3.2848 C.ar      1 UNL1        0.0000
      9 C          -2.6263  -66.1444    3.9781 C.ar      1 UNL1        0.0000
     10 C          -2.7557  -67.4659    4.3486 C.ar      1 UNL1        0.0000
     11 C          -1.3995  -64.3155    2.9005 C.3       1 UNL1        0.0000
     12 C          -2.1598  -63.4593    3.9129 C.3       1 UNL1        0.0000
     13 C           0.0521  -63.9694    2.9219 C.2       1 UNL1        0.0000
     14 O           0.6829  -63.8066    1.8673 O.co2     1 UNL1       -0.5000
     15 O           0.6761  -63.8346    4.1291 O.co2     1 UNL1       -0.5000
     16 H          -0.0810  -71.7781    6.4889 H         1 UNL1        0.0000
     17 H          -1.3519  -72.2413    5.3821 H         1 UNL1        0.0000
     18 H          -1.6996  -71.1557    6.7065 H         1 UNL1        0.0000
     19 H          -0.2537  -69.4788    5.7198 H         1 UNL1        0.0000
     20 H           0.0812  -71.4264    3.4966 H         1 UNL1        0.0000
     21 H           1.3101  -70.9481    4.6424 H         1 UNL1        0.0000
     22 H           0.6601  -69.7780    3.5192 H         1 UNL1        0.0000
     23 H          -2.7162  -69.9470    5.0564 H         1 UNL1        0.0000
     24 H          -1.9944  -70.3905    3.5144 H         1 UNL1        0.0000
     25 H           0.0668  -68.6330    3.0890 H         1 UNL1        0.0000
     26 H           0.2956  -66.3446    2.4453 H         1 UNL1        0.0000
     27 H          -3.3646  -65.4656    4.2220 H         1 UNL1        0.0000
     28 H          -3.5920  -67.7718    4.8702 H         1 UNL1        0.0000
     29 H          -1.8099  -64.1391    1.9280 H         1 UNL1        0.0000
     30 H          -1.7602  -63.6254    4.8916 H         1 UNL1        0.0000
     31 H          -3.1955  -63.7289    3.9002 H         1 UNL1        0.0000
     32 H          -2.0568  -62.4263    3.6548 H         1 UNL1        0.0000
@<TRIPOS>BOND
     1    1   17 1
     2    1    2 1
     3    1   16 1
     4    1   18 1
     5    2   19 1
     6    2    3 1
     7    2    4 1
     8    3   21 1
     9    3   22 1
    10    3   20 1
    11    4    5 1
    12    4   24 1
    13    4   23 1
    14    5    6 ar
    15    5   10 ar
    16    6    7 ar
    17    6   25 1
    18    7   26 1
    19    7    8 ar
    20    8    9 ar
    21    8   11 1
    22    9   10 ar
    23    9   27 1
    24   10   28 1
    25   11   29 1
    26   11   12 1
    27   11   13 1
    28   12   30 1
    29   12   31 1
    30   12   32 1
    31   13   15 ar
    32   13   14 ar
@<TRIPOS>SUBSTRUCTURE
1 UNL1 1
@<TRIPOS>COMMENT
ibuprofen
PLANTSproteinTorsions
102
4661 232.1278
5386 152.0906
6210 296.1604
5890 0.2608
4461 15.1286
1390 166.6630
2824 323.5185
4339 39.1791
2732 199.6018
4792 6.6873
3407 227.1831
5134 172.2839
6916 92.3293
7370 81.2558
6038 56.9279
7225 212.8370
3592 6.4886
2064 103.4009
2488 207.0564
1253 312.2719
2069 131.1214
2569 95.1576
3058 145.0171
1748 242.6659
1162 68.4944
1509 6.5673
560 34.9230
1627 2.8578
1941 301.1154
3631 165.7628
2381 192.0381
4221 83.0973
4687 89.7929
6983 129.1517
6668 164.3691
7305 231.2704
8693 122.4538
8404 283.7315
9055 215.7281
7052 297.6684
4708 102.5997
2652 198.6730
4332 45.7685
3011 96.0678
2257 151.1639
2778 120.2455
2057 284.0547
192 41.3895
315 70.2245
1085 50.7167
1007 300.7624
1407 296.5936
4816 188.8525
3131 3.9527
4654 42.1220
5144 0.5189
117 103.5682
6 42.9307
259 229.3124
1979 309.0336
2609 232.3766
2623 69.1012
5910 89.7720
5937 349.0180
2062 7.7018
890 7.6920
5008 243.5931
8602 1.3677
8478 206.8140
8300 111.5605
7721 318.0172
8466 263.2555
7852 223.8763
5849 244.5340
6302 33.8031
7439 166.9028
6284 81.4986
6003 33.6225
7165 28.7910
7623 168.2310
8158 193.4052
8667 208.8835
9078 257.1712
8684 98.2132
7666 120.3759
4231 89.9241
1659 267.6281
489 145.3800
238 156.5405
46 153.3982
83 113.8294
254 181.1335
1066 195.7518
2112 152.0421
4047 221.9062
5402 265.9330
2544 264.6940
4670 328.9631
4426 118.3018
5656 145.4713
7040 262.6526
6282 245.0509
PLANTSmolcadARTstart hb
PLANTSmolcadARTstart HB
LINES
PLANTSmolcadARTstart HBCH
LINES
PLANTSmolcadARTstart HB-CHO
LINES
PLANTSmolcadARTend
PLANTSmolcadARTstart HB_WATER
LINES
PLANTSmolcadARTend

PLANTSmolcadARTend

