@<TRIPOS>MOLECULE
ibuprofen_entry_00001_conf_25
32 32 1
SMALL
NO_CHARGES


@<TRIPOS>ATOM
      1 C         -13.7061  -59.1106    1.4780 C.3       1 UNL1        0.0000
      2 C         -13.3845  -60.3791    0.7448 C.3       1 UNL1        0.0000
      3 C         -11.9311  -60.7099    0.8662 C.3       1 UNL1        0.0000
      4 C         -14.2283  -61.4948    1.2948 C.3       1 UNL1        0.0000
      5 C         -14.1806  -62.6876    0.4143 C.ar      1 UNL1        0.0000
      6 C         -14.4165  -62.5219   -0.9308 C.ar      1 UNL1        0.0000
      7 C         -14.3833  -63.5915   -1.7791 C.ar      1 UNL1        0.0000
      8 C         -14.1135  -64.8517   -1.3040 C.ar      1 UNL1        0.0000
      9 C         -13.8759  -65.0291    0.0364 C.ar      1 UNL1        0.0000
     10 C         -13.9105  -63.9477    0.8907 C.ar      1 UNL1        0.0000
     11 C         -14.0714  -66.0221   -2.1968 C.3       1 UNL1        0.0000
     12 C         -14.5381  -65.6043   -3.5910 C.3       1 UNL1        0.0000
     13 C         -12.6545  -66.4882   -2.2472 C.2       1 UNL1        0.0000
     14 O         -12.1201  -67.0078   -1.2568 O.co2     1 UNL1       -0.5000
     15 O         -11.9539  -66.3316   -3.4089 O.co2     1 UNL1       -0.5000
     16 H         -13.1070  -58.3128    1.0895 H         1 UNL1        0.0000
     17 H         -13.4981  -59.2380    2.5198 H         1 UNL1        0.0000
     18 H         -14.7414  -58.8760    1.3465 H         1 UNL1        0.0000
     19 H         -13.6016  -60.2490   -0.2943 H         1 UNL1        0.0000
     20 H         -11.6819  -60.8466    1.8979 H         1 UNL1        0.0000
     21 H         -11.3483  -59.9088    0.4622 H         1 UNL1        0.0000
     22 H         -11.7231  -61.6101    0.3269 H         1 UNL1        0.0000
     23 H         -15.2411  -61.1601    1.3747 H         1 UNL1        0.0000
     24 H         -13.8444  -61.7675    2.2556 H         1 UNL1        0.0000
     25 H         -14.6213  -61.5809   -1.3021 H         1 UNL1        0.0000
     26 H         -14.5626  -63.4512   -2.7861 H         1 UNL1        0.0000
     27 H         -13.6712  -65.9713    0.4048 H         1 UNL1        0.0000
     28 H         -13.7319  -64.0851    1.8978 H         1 UNL1        0.0000
     29 H         -14.7089  -66.8061   -1.8442 H         1 UNL1        0.0000
     30 H         -13.9093  -64.8195   -3.9570 H         1 UNL1        0.0000
     31 H         -15.5488  -65.2560   -3.5383 H         1 UNL1        0.0000
     32 H         -14.4839  -66.4439   -4.2515 H         1 UNL1        0.0000
@<TRIPOS>BOND
     1    1   17 1
     2    1    2 1
     3    1   16 1
     4    1   18 1
     5    2   19 1
     6    2    3 1
     7    2    4 1
     8    3   21 1
     9    3   22 1
    10    3   20 1
    11    4    5 1
    12    4   24 1
    13    4   23 1
    14    5    6 ar
    15    5   10 ar
    16    6    7 ar
    17    6   25 1
    18    7   26 1
    19    7    8 ar
    20    8    9 ar
    21    8   11 1
    22    9   10 ar
    23    9   27 1
    24   10   28 1
    25   11   29 1
    26   11   12 1
    27   11   13 1
    28   12   30 1
    29   12   31 1
    30   12   32 1
    31   13   15 ar
    32   13   14 ar
@<TRIPOS>SUBSTRUCTURE
1 UNL1 1
@<TRIPOS>COMMENT
ibuprofen
PLANTSproteinTorsions
102
4661 22.6002
5386 74.3090
6210 17.2794
5890 335.5015
4461 145.6505
1390 222.3019
2824 12.7183
4339 93.4267
2732 235.2780
4792 3.3223
3407 11.7596
5134 70.0777
6916 238.4076
7370 40.7176
6038 0.1280
7225 245.7406
3592 20.4274
2064 89.6834
2488 116.6566
1253 305.0327
2069 197.3814
2569 36.4047
3058 147.8481
1748 99.8620
1162 28.0687
1509 22.2987
560 133.7484
1627 306.0476
1941 106.5931
3631 169.7940
2381 268.7627
4221 71.3989
4687 84.7746
6983 181.8093
6668 235.4896
7305 187.4602
8693 25.8034
8404 129.3921
9055 146.1402
7052 318.4117
4708 223.8199
2652 88.7914
4332 214.8499
3011 31.9917
2257 21.4607
2778 26.2609
2057 45.0605
192 45.3737
315 209.4799
1085 55.1764
1007 252.2012
1407 160.4632
4816 185.2482
3131 210.0516
4654 236.7261
5144 102.2100
117 247.5236
6 193.8847
259 260.3987
1979 236.5638
2609 12.7621
2623 151.4546
5910 219.2693
5937 303.1270
2062 50.7125
890 244.4640
5008 211.1202
8602 119.7910
8478 202.8386
8300 250.5883
7721 186.5402
8466 4.8299
7852 94.8755
5849 191.6544
6302 45.0298
7439 159.6933
6284 77.2958
6003 134.7505
7165 244.6006
7623 260.4518
8158 204.7786
8667 211.4303
9078 87.3191
8684 341.7966
7666 305.5868
4231 123.6129
1659 52.6229
489 200.1591
238 249.6898
46 266.3820
83 206.1576
254 262.8835
1066 99.0969
2112 206.2820
4047 176.5437
5402 175.4289
2544 253.7859
4670 288.7043
4426 301.5424
5656 248.0020
7040 79.9349
6282 230.3344
PLANTSmolcadARTstart hb
PLANTSmolcadARTstart HB
LINES
-12.1201 -67.0078 -1.2568 -11.136 -68.38 -0.16 0 255 0 5
PLANTSmolcadARTstart HBCH
LINES
PLANTSmolcadARTstart HB-CHO
LINES
PLANTSmolcadARTend
PLANTSmolcadARTstart HB_WATER
LINES
PLANTSmolcadARTend

PLANTSmolcadARTend

