@<TRIPOS>MOLECULE
ibuprofen_entry_00001_conf_36
32 32 1
SMALL
NO_CHARGES


@<TRIPOS>ATOM
      1 C         -13.8031  -64.2596    0.1609 C.3       1 UNL1        0.0000
      2 C         -14.0701  -62.8638    0.6411 C.3       1 UNL1        0.0000
      3 C         -14.5811  -62.8733    2.0465 C.3       1 UNL1        0.0000
      4 C         -12.8049  -62.0580    0.5441 C.3       1 UNL1        0.0000
      5 C         -13.0889  -60.6036    0.6104 C.ar      1 UNL1        0.0000
      6 C         -14.3866  -60.1787    0.4441 C.ar      1 UNL1        0.0000
      7 C         -14.6948  -58.8494    0.4970 C.ar      1 UNL1        0.0000
      8 C         -13.7142  -57.9132    0.7173 C.ar      1 UNL1        0.0000
      9 C         -12.4156  -58.3256    0.8853 C.ar      1 UNL1        0.0000
     10 C         -12.1070  -59.6681    0.8311 C.ar      1 UNL1        0.0000
     11 C         -14.0190  -56.4738    0.7791 C.3       1 UNL1        0.0000
     12 C         -12.7095  -55.6879    0.8406 C.3       1 UNL1        0.0000
     13 C         -14.7684  -56.1274   -0.4642 C.2       1 UNL1        0.0000
     14 O         -14.7771  -56.8959   -1.4367 O.co2     1 UNL1       -0.5000
     15 O         -15.4475  -54.9436   -0.5119 O.co2     1 UNL1       -0.5000
     16 H         -14.7019  -64.8376    0.2284 H         1 UNL1        0.0000
     17 H         -13.0449  -64.7073    0.7687 H         1 UNL1        0.0000
     18 H         -13.4740  -64.2294   -0.8564 H         1 UNL1        0.0000
     19 H         -14.8226  -62.4184    0.0255 H         1 UNL1        0.0000
     20 H         -13.8480  -63.3146    2.6892 H         1 UNL1        0.0000
     21 H         -15.4851  -63.4436    2.0932 H         1 UNL1        0.0000
     22 H         -14.7752  -61.8700    2.3631 H         1 UNL1        0.0000
     23 H         -12.3213  -62.2773   -0.3845 H         1 UNL1        0.0000
     24 H         -12.1740  -62.3178    1.3683 H         1 UNL1        0.0000
     25 H         -15.1340  -60.8706    0.2771 H         1 UNL1        0.0000
     26 H         -15.6734  -58.5460    0.3701 H         1 UNL1        0.0000
     27 H         -11.6703  -57.6313    1.0524 H         1 UNL1        0.0000
     28 H         -11.1296  -59.9742    0.9574 H         1 UNL1        0.0000
     29 H         -14.6018  -56.2341    1.6441 H         1 UNL1        0.0000
     30 H         -12.1151  -55.9179   -0.0190 H         1 UNL1        0.0000
     31 H         -12.1739  -55.9579    1.7270 H         1 UNL1        0.0000
     32 H         -12.9233  -54.6400    0.8580 H         1 UNL1        0.0000
@<TRIPOS>BOND
     1    1   17 1
     2    1    2 1
     3    1   16 1
     4    1   18 1
     5    2   19 1
     6    2    3 1
     7    2    4 1
     8    3   21 1
     9    3   22 1
    10    3   20 1
    11    4    5 1
    12    4   24 1
    13    4   23 1
    14    5    6 ar
    15    5   10 ar
    16    6    7 ar
    17    6   25 1
    18    7   26 1
    19    7    8 ar
    20    8    9 ar
    21    8   11 1
    22    9   10 ar
    23    9   27 1
    24   10   28 1
    25   11   29 1
    26   11   12 1
    27   11   13 1
    28   12   30 1
    29   12   31 1
    30   12   32 1
    31   13   15 ar
    32   13   14 ar
@<TRIPOS>SUBSTRUCTURE
1 UNL1 1
@<TRIPOS>COMMENT
ibuprofen
PLANTSproteinTorsions
102
4661 65.1712
5386 248.5388
6210 98.2366
5890 212.2253
4461 10.0837
1390 235.6349
2824 98.6510
4339 59.0440
2732 233.1735
4792 356.8076
3407 204.9042
5134 15.1108
6916 115.9439
7370 240.9662
6038 198.3217
7225 139.0440
3592 95.8436
2064 1.5508
2488 329.8598
1253 41.3062
2069 190.1339
2569 68.2075
3058 207.2237
1748 189.3371
1162 171.3073
1509 176.8443
560 172.0462
1627 178.4717
1941 119.7966
3631 127.9696
2381 153.4759
4221 313.5316
4687 90.6148
6983 15.4932
6668 23.1698
7305 4.0090
8693 304.1212
8404 10.9525
9055 232.3157
7052 11.7396
4708 169.3282
2652 218.9177
4332 241.8702
3011 231.9382
2257 35.4657
2778 29.4687
2057 242.7178
192 170.8018
315 263.0589
1085 189.9790
1007 24.5244
1407 211.3985
4816 242.5175
3131 66.2515
4654 46.5944
5144 119.4663
117 251.8530
6 134.5412
259 232.0622
1979 71.5103
2609 270.0075
2623 54.7197
5910 43.2023
5937 252.0852
2062 114.9533
890 111.4112
5008 263.6590
8602 50.2292
8478 145.7056
8300 97.1503
7721 63.2528
8466 171.3958
7852 108.2830
5849 101.7367
6302 100.3780
7439 267.7502
6284 149.3070
6003 201.0709
7165 264.9168
7623 115.6647
8158 184.3835
8667 80.7448
9078 196.2056
8684 156.1743
7666 226.8908
4231 23.4100
1659 222.6761
489 173.9157
238 221.8703
46 266.6470
83 261.5896
254 255.3064
1066 272.0075
2112 295.5533
4047 254.7963
5402 120.7785
2544 258.3156
4670 48.5871
4426 132.5177
5656 291.7814
7040 19.2617
6282 313.3136
PLANTSmolcadARTstart hb
PLANTSmolcadARTstart HB
LINES
PLANTSmolcadARTstart HBCH
LINES
PLANTSmolcadARTstart HB-CHO
LINES
PLANTSmolcadARTend
PLANTSmolcadARTstart HB_WATER
LINES
PLANTSmolcadARTend

PLANTSmolcadARTend

