@<TRIPOS>MOLECULE
ibuprofen_entry_00001_conf_23
32 32 1
SMALL
NO_CHARGES


@<TRIPOS>ATOM
      1 C         -16.3637  -48.0044  -11.6035 C.3       1 UNL1        0.0000
      2 C         -17.6395  -47.5374  -10.9675 C.3       1 UNL1        0.0000
      3 C         -17.5226  -46.1143  -10.5231 C.3       1 UNL1        0.0000
      4 C         -18.7667  -47.6937  -11.9495 C.3       1 UNL1        0.0000
      5 C         -20.0468  -47.2086  -11.3783 C.ar      1 UNL1        0.0000
      6 C         -20.3770  -47.5795  -10.0954 C.ar      1 UNL1        0.0000
      7 C         -21.5454  -47.1569   -9.5288 C.ar      1 UNL1        0.0000
      8 C         -22.4114  -46.3539  -10.2299 C.ar      1 UNL1        0.0000
      9 C         -22.0921  -45.9768  -11.5107 C.ar      1 UNL1        0.0000
     10 C         -20.9123  -46.4051  -12.0806 C.ar      1 UNL1        0.0000
     11 C         -23.6776  -45.8840   -9.6428 C.3       1 UNL1        0.0000
     12 C         -23.7449  -44.3610   -9.7534 C.3       1 UNL1        0.0000
     13 C         -24.7852  -46.5057  -10.4265 C.2       1 UNL1        0.0000
     14 O         -25.2264  -45.9593  -11.4479 O.co2     1 UNL1       -0.5000
     15 O         -25.3066  -47.6923   -9.9966 O.co2     1 UNL1       -0.5000
     16 H         -15.5576  -47.8946  -10.9074 H         1 UNL1        0.0000
     17 H         -16.1640  -47.4176  -12.4756 H         1 UNL1        0.0000
     18 H         -16.4593  -49.0334  -11.8794 H         1 UNL1        0.0000
     19 H         -17.8384  -48.1321  -10.1012 H         1 UNL1        0.0000
     20 H         -17.3229  -45.4918  -11.3704 H         1 UNL1        0.0000
     21 H         -16.7218  -46.0253   -9.8193 H         1 UNL1        0.0000
     22 H         -18.4383  -45.8071  -10.0630 H         1 UNL1        0.0000
     23 H         -18.8675  -48.7278  -12.2039 H         1 UNL1        0.0000
     24 H         -18.5416  -47.1118  -12.8187 H         1 UNL1        0.0000
     25 H         -19.7364  -48.1833   -9.5566 H         1 UNL1        0.0000
     26 H         -21.7794  -47.4439   -8.5651 H         1 UNL1        0.0000
     27 H         -22.7347  -45.3727  -12.0471 H         1 UNL1        0.0000
     28 H         -20.6759  -46.1200  -13.0439 H         1 UNL1        0.0000
     29 H         -23.7544  -46.1549   -8.6104 H         1 UNL1        0.0000
     30 H         -23.6689  -44.0746  -10.7817 H         1 UNL1        0.0000
     31 H         -22.9360  -43.9283   -9.2022 H         1 UNL1        0.0000
     32 H         -24.6747  -44.0153   -9.3534 H         1 UNL1        0.0000
@<TRIPOS>BOND
     1    1   17 1
     2    1    2 1
     3    1   16 1
     4    1   18 1
     5    2   19 1
     6    2    3 1
     7    2    4 1
     8    3   21 1
     9    3   22 1
    10    3   20 1
    11    4    5 1
    12    4   24 1
    13    4   23 1
    14    5    6 ar
    15    5   10 ar
    16    6    7 ar
    17    6   25 1
    18    7   26 1
    19    7    8 ar
    20    8    9 ar
    21    8   11 1
    22    9   10 ar
    23    9   27 1
    24   10   28 1
    25   11   29 1
    26   11   12 1
    27   11   13 1
    28   12   30 1
    29   12   31 1
    30   12   32 1
    31   13   15 ar
    32   13   14 ar
@<TRIPOS>SUBSTRUCTURE
1 UNL1 1
@<TRIPOS>COMMENT
ibuprofen
PLANTSproteinTorsions
102
4661 184.4453
5386 61.7153
6210 35.5216
5890 47.8465
4461 135.7654
1390 56.6330
2824 22.4095
4339 350.0784
2732 83.6984
4792 332.3490
3407 155.4450
5134 204.3454
6916 5.7068
7370 110.8667
6038 78.5998
7225 124.1265
3592 191.9276
2064 17.6978
2488 53.3114
1253 203.7753
2069 352.7044
2569 212.1547
3058 126.4940
1748 353.7363
1162 2.4286
1509 185.7771
560 72.4280
1627 72.2988
1941 352.6228
3631 179.7700
2381 80.3220
4221 204.1288
4687 50.5488
6983 108.1114
6668 339.6254
7305 123.0870
8693 264.9197
8404 113.9761
9055 123.9888
7052 111.9741
4708 148.0651
2652 100.0555
4332 152.9627
3011 255.4764
2257 217.0500
2778 174.7350
2057 273.0700
192 255.5647
315 18.9908
1085 250.5546
1007 44.7478
1407 133.5254
4816 201.9232
3131 8.4096
4654 357.3949
5144 277.5177
117 60.3378
6 100.1362
259 157.4345
1979 104.7908
2609 64.0892
2623 106.0655
5910 5.0230
5937 108.8494
2062 254.6971
890 129.4512
5008 235.4309
8602 88.2980
8478 222.1346
8300 242.1327
7721 291.9608
8466 329.9134
7852 106.4159
5849 270.4138
6302 294.2418
7439 136.4292
6284 86.6066
6003 208.1991
7165 237.4740
7623 287.4974
8158 194.0486
8667 265.7420
9078 152.4666
8684 199.7837
7666 272.8400
4231 86.0663
1659 72.6138
489 198.2531
238 255.3591
46 275.1130
83 222.5804
254 191.4764
1066 275.1829
2112 167.7290
4047 285.8122
5402 234.7381
2544 190.2831
4670 79.6889
4426 110.5537
5656 70.2527
7040 231.4411
6282 189.8845
PLANTSmolcadARTstart hb
PLANTSmolcadARTstart HB
LINES
-25.2264 -45.9593 -11.4479 -26.527 -46.112 -13.089 0 255 0 5
PLANTSmolcadARTstart HBCH
LINES
-25.3066 -47.6923 -9.99656 -26.6716 -48.179 -10.0886 255 0 0 5
PLANTSmolcadARTstart HB-CHO
LINES
PLANTSmolcadARTend
PLANTSmolcadARTstart HB_WATER
LINES
PLANTSmolcadARTend

PLANTSmolcadARTend

