@<TRIPOS>MOLECULE
ibuprofen_entry_00001_conf_45
32 32 1
SMALL
NO_CHARGES


@<TRIPOS>ATOM
      1 C          -4.6320  -59.0901    6.4924 C.3       1 UNL1        0.0000
      2 C          -3.7333  -60.2586    6.2148 C.3       1 UNL1        0.0000
      3 C          -3.7988  -61.2561    7.3271 C.3       1 UNL1        0.0000
      4 C          -4.1352  -60.8921    4.9123 C.3       1 UNL1        0.0000
      5 C          -3.3992  -62.1593    4.6826 C.ar      1 UNL1        0.0000
      6 C          -2.0554  -62.0966    4.3954 C.ar      1 UNL1        0.0000
      7 C          -1.3375  -63.2374    4.1764 C.ar      1 UNL1        0.0000
      8 C          -1.9449  -64.4677    4.2390 C.ar      1 UNL1        0.0000
      9 C          -3.2854  -64.5427    4.5254 C.ar      1 UNL1        0.0000
     10 C          -4.0079  -63.3895    4.7457 C.ar      1 UNL1        0.0000
     11 C          -1.1944  -65.7134    4.0071 C.3       1 UNL1        0.0000
     12 C          -2.1634  -66.8023    3.5470 C.3       1 UNL1        0.0000
     13 C          -0.1917  -65.4323    2.9380 C.2       1 UNL1        0.0000
     14 O          -0.5502  -65.0559    1.8127 O.co2     1 UNL1       -0.5000
     15 O           1.1336  -65.5979    3.2225 O.co2     1 UNL1       -0.5000
     16 H          -4.3495  -58.6357    7.4197 H         1 UNL1        0.0000
     17 H          -5.6459  -59.4264    6.5544 H         1 UNL1        0.0000
     18 H          -4.5406  -58.3750    5.7022 H         1 UNL1        0.0000
     19 H          -2.7226  -59.9159    6.1459 H         1 UNL1        0.0000
     20 H          -4.8011  -61.6190    7.4216 H         1 UNL1        0.0000
     21 H          -3.5014  -60.7892    8.2426 H         1 UNL1        0.0000
     22 H          -3.1424  -62.0734    7.1134 H         1 UNL1        0.0000
     23 H          -3.9209  -60.2140    4.1132 H         1 UNL1        0.0000
     24 H          -5.1819  -61.1106    4.9509 H         1 UNL1        0.0000
     25 H          -1.5855  -61.1790    4.3443 H         1 UNL1        0.0000
     26 H          -0.3297  -63.1741    3.9616 H         1 UNL1        0.0000
     27 H          -3.7525  -65.4618    4.5761 H         1 UNL1        0.0000
     28 H          -5.0156  -63.4499    4.9603 H         1 UNL1        0.0000
     29 H          -0.7048  -66.0468    4.8984 H         1 UNL1        0.0000
     30 H          -2.6615  -66.4825    2.6554 H         1 UNL1        0.0000
     31 H          -2.8871  -66.9820    4.3147 H         1 UNL1        0.0000
     32 H          -1.6204  -67.7027    3.3504 H         1 UNL1        0.0000
@<TRIPOS>BOND
     1    1   17 1
     2    1    2 1
     3    1   16 1
     4    1   18 1
     5    2   19 1
     6    2    3 1
     7    2    4 1
     8    3   21 1
     9    3   22 1
    10    3   20 1
    11    4    5 1
    12    4   24 1
    13    4   23 1
    14    5    6 ar
    15    5   10 ar
    16    6    7 ar
    17    6   25 1
    18    7   26 1
    19    7    8 ar
    20    8    9 ar
    21    8   11 1
    22    9   10 ar
    23    9   27 1
    24   10   28 1
    25   11   29 1
    26   11   12 1
    27   11   13 1
    28   12   30 1
    29   12   31 1
    30   12   32 1
    31   13   15 ar
    32   13   14 ar
@<TRIPOS>SUBSTRUCTURE
1 UNL1 1
@<TRIPOS>COMMENT
ibuprofen
PLANTSproteinTorsions
102
4661 22.1651
5386 115.5271
6210 22.2315
5890 15.7065
4461 207.3130
1390 201.5039
2824 15.5639
4339 8.3057
2732 246.0515
4792 9.0045
3407 54.5061
5134 77.2612
6916 162.3603
7370 81.0026
6038 195.9432
7225 141.9983
3592 6.2744
2064 230.5798
2488 99.6857
1253 136.2221
2069 176.7830
2569 29.6866
3058 91.0790
1748 172.5467
1162 17.4226
1509 40.0795
560 0.7869
1627 211.1783
1941 178.4218
3631 216.7570
2381 192.4510
4221 22.8283
4687 190.6806
6983 125.0419
6668 169.6038
7305 2.4789
8693 234.4393
8404 295.7964
9055 216.7681
7052 205.4042
4708 100.3164
2652 138.4790
4332 259.9236
3011 30.7152
2257 127.0385
2778 219.8486
2057 271.5417
192 14.6871
315 64.7063
1085 65.3904
1007 208.0092
1407 186.9494
4816 194.4705
3131 266.0008
4654 290.2235
5144 10.5892
117 65.2575
6 102.5962
259 215.1801
1979 136.1772
2609 133.1726
2623 98.1710
5910 45.5161
5937 133.9906
2062 282.6748
890 76.1455
5008 114.6055
8602 293.8363
8478 202.7127
8300 208.5841
7721 189.6889
8466 264.4169
7852 225.3459
5849 243.6289
6302 230.9960
7439 169.8111
6284 255.3646
6003 168.4435
7165 27.0722
7623 138.6497
8158 38.6012
8667 131.6546
9078 141.5714
8684 199.8408
7666 116.3723
4231 265.8813
1659 126.5003
489 129.4229
238 222.2896
46 71.6527
83 24.4389
254 268.8275
1066 111.2424
2112 270.0745
4047 83.5533
5402 172.8965
2544 125.7068
4670 183.5865
4426 226.0228
5656 106.8554
7040 164.3503
6282 207.2205
PLANTSmolcadARTstart hb
PLANTSmolcadARTstart HB
LINES
PLANTSmolcadARTstart HBCH
LINES
PLANTSmolcadARTstart HB-CHO
LINES
PLANTSmolcadARTend
PLANTSmolcadARTstart HB_WATER
LINES
PLANTSmolcadARTend

PLANTSmolcadARTend

