@<TRIPOS>MOLECULE
ibuprofen_entry_00001_conf_66
32 32 1
SMALL
NO_CHARGES


@<TRIPOS>ATOM
      1 C          -4.8694  -34.9708  -12.6804 C.3       1 UNL1        0.0000
      2 C          -5.1906  -36.1649  -11.8313 C.3       1 UNL1        0.0000
      3 C          -5.7944  -37.2569  -12.6555 C.3       1 UNL1        0.0000
      4 C          -3.9350  -36.6438  -11.1576 C.3       1 UNL1        0.0000
      5 C          -4.1941  -37.8514  -10.3363 C.ar      1 UNL1        0.0000
      6 C          -3.3871  -38.9516  -10.5115 C.ar      1 UNL1        0.0000
      7 C          -3.5888  -40.0854   -9.7776 C.ar      1 UNL1        0.0000
      8 C          -4.6011  -40.1471   -8.8515 C.ar      1 UNL1        0.0000
      9 C          -5.4125  -39.0551   -8.6675 C.ar      1 UNL1        0.0000
     10 C          -5.2071  -37.9119   -9.4099 C.ar      1 UNL1        0.0000
     11 C          -4.8405  -41.3570   -8.0468 C.3       1 UNL1        0.0000
     12 C          -6.3164  -41.4116   -7.6532 C.3       1 UNL1        0.0000
     13 C          -4.4924  -42.5309   -8.9003 C.2       1 UNL1        0.0000
     14 O          -3.8386  -43.4790   -8.4419 O.co2     1 UNL1       -0.5000
     15 O          -4.9087  -42.5422  -10.2008 O.co2     1 UNL1       -0.5000
     16 H          -5.7612  -34.6263  -13.1626 H         1 UNL1        0.0000
     17 H          -4.1463  -35.2432  -13.4205 H         1 UNL1        0.0000
     18 H          -4.4734  -34.1916  -12.0638 H         1 UNL1        0.0000
     19 H          -5.9073  -35.8854  -11.0885 H         1 UNL1        0.0000
     20 H          -5.0988  -37.5596  -13.4104 H         1 UNL1        0.0000
     21 H          -6.6900  -36.8999  -13.1191 H         1 UNL1        0.0000
     22 H          -6.0255  -38.0922  -12.0283 H         1 UNL1        0.0000
     23 H          -3.5589  -35.8663  -10.5265 H         1 UNL1        0.0000
     24 H          -3.2202  -36.8949  -11.9131 H         1 UNL1        0.0000
     25 H          -2.6228  -38.9201  -11.2044 H         1 UNL1        0.0000
     26 H          -2.9749  -40.9030   -9.9207 H         1 UNL1        0.0000
     27 H          -6.1760  -39.0895   -7.9737 H         1 UNL1        0.0000
     28 H          -5.8194  -37.0932   -9.2692 H         1 UNL1        0.0000
     29 H          -4.2492  -41.3570   -7.1548 H         1 UNL1        0.0000
     30 H          -6.9210  -41.4119   -8.5362 H         1 UNL1        0.0000
     31 H          -6.5572  -40.5562   -7.0566 H         1 UNL1        0.0000
     32 H          -6.5028  -42.3025   -7.0914 H         1 UNL1        0.0000
@<TRIPOS>BOND
     1    1   17 1
     2    1    2 1
     3    1   16 1
     4    1   18 1
     5    2   19 1
     6    2    3 1
     7    2    4 1
     8    3   21 1
     9    3   22 1
    10    3   20 1
    11    4    5 1
    12    4   24 1
    13    4   23 1
    14    5    6 ar
    15    5   10 ar
    16    6    7 ar
    17    6   25 1
    18    7   26 1
    19    7    8 ar
    20    8    9 ar
    21    8   11 1
    22    9   10 ar
    23    9   27 1
    24   10   28 1
    25   11   29 1
    26   11   12 1
    27   11   13 1
    28   12   30 1
    29   12   31 1
    30   12   32 1
    31   13   15 ar
    32   13   14 ar
@<TRIPOS>SUBSTRUCTURE
1 UNL1 1
@<TRIPOS>COMMENT
ibuprofen
PLANTSproteinTorsions
102
4661 307.9693
5386 315.6482
6210 127.7883
5890 75.2836
4461 13.3202
1390 25.9296
2824 12.4515
4339 250.1683
2732 198.0004
4792 349.9469
3407 217.1073
5134 194.0132
6916 147.6018
7370 116.1964
6038 243.7481
7225 214.8004
3592 89.0481
2064 239.9528
2488 356.8915
1253 305.6319
2069 201.9350
2569 98.9718
3058 143.7728
1748 306.8322
1162 100.4042
1509 117.2580
560 213.0344
1627 57.1336
1941 298.5845
3631 299.5085
2381 292.1167
4221 27.2458
4687 244.0385
6983 40.2430
6668 266.7828
7305 216.8385
8693 257.5174
8404 235.8907
9055 33.7186
7052 252.2240
4708 45.9187
2652 6.6458
4332 7.6789
3011 13.5553
2257 14.9216
2778 127.9740
2057 5.7675
192 13.2118
315 339.4879
1085 70.3926
1007 136.1886
1407 264.3535
4816 275.2185
3131 34.7826
4654 245.3612
5144 166.0615
117 139.9467
6 145.9203
259 10.3668
1979 159.5400
2609 63.3291
2623 162.1432
5910 289.2407
5937 189.5360
2062 233.8666
890 98.7873
5008 248.8924
8602 111.6603
8478 213.0736
8300 142.3140
7721 22.9986
8466 280.4354
7852 259.5991
5849 180.7550
6302 295.0810
7439 235.5622
6284 265.6609
6003 53.0469
7165 108.6162
7623 209.2100
8158 333.6844
8667 203.0961
9078 271.7245
8684 278.1465
7666 144.0074
4231 220.3989
1659 10.3843
489 30.0219
238 48.2869
46 170.7400
83 134.2342
254 225.4058
1066 262.8558
2112 115.8778
4047 210.6600
5402 263.7112
2544 265.5262
4670 24.2277
4426 225.5482
5656 133.6093
7040 182.6009
6282 197.2082
PLANTSmolcadARTstart hb
PLANTSmolcadARTstart HB
LINES
PLANTSmolcadARTstart HBCH
LINES
PLANTSmolcadARTstart HB-CHO
LINES
PLANTSmolcadARTend
PLANTSmolcadARTstart HB_WATER
LINES
PLANTSmolcadARTend

PLANTSmolcadARTend

