@<TRIPOS>MOLECULE
ibuprofen_entry_00001_conf_79
32 32 1
SMALL
NO_CHARGES


@<TRIPOS>ATOM
      1 C         -13.8651  -44.2058    0.4005 C.3       1 UNL1        0.0000
      2 C         -15.1054  -43.4644    0.8026 C.3       1 UNL1        0.0000
      3 C         -15.0120  -42.0225    0.4169 C.3       1 UNL1        0.0000
      4 C         -16.2983  -44.1089    0.1536 C.3       1 UNL1        0.0000
      5 C         -17.5486  -43.7765    0.8791 C.ar      1 UNL1        0.0000
      6 C         -18.4386  -44.7888    1.1537 C.ar      1 UNL1        0.0000
      7 C         -19.6025  -44.5293    1.8191 C.ar      1 UNL1        0.0000
      8 C         -19.9049  -43.2527    2.2258 C.ar      1 UNL1        0.0000
      9 C         -19.0240  -42.2345    1.9578 C.ar      1 UNL1        0.0000
     10 C         -17.8499  -42.4991    1.2856 C.ar      1 UNL1        0.0000
     11 C         -21.1528  -42.9453    2.9449 C.3       1 UNL1        0.0000
     12 C         -20.8971  -41.7976    3.9214 C.3       1 UNL1        0.0000
     13 C         -22.1616  -42.5364    1.9238 C.2       1 UNL1        0.0000
     14 O         -21.9256  -42.6562    0.7129 O.co2     1 UNL1       -0.5000
     15 O         -23.3545  -42.0255    2.3489 O.co2     1 UNL1       -0.5000
     16 H         -13.0125  -43.7498    0.8605 H         1 UNL1        0.0000
     17 H         -13.7575  -44.1709   -0.6635 H         1 UNL1        0.0000
     18 H         -13.9401  -45.2243    0.7187 H         1 UNL1        0.0000
     19 H         -15.2125  -43.5092    1.8657 H         1 UNL1        0.0000
     20 H         -14.9039  -41.9441   -0.6449 H         1 UNL1        0.0000
     21 H         -14.1633  -41.5800    0.8948 H         1 UNL1        0.0000
     22 H         -15.9009  -41.5121    0.7234 H         1 UNL1        0.0000
     23 H         -16.1655  -45.1704    0.1548 H         1 UNL1        0.0000
     24 H         -16.3793  -43.7403   -0.8476 H         1 UNL1        0.0000
     25 H         -18.2252  -45.7529    0.8536 H         1 UNL1        0.0000
     26 H         -20.2606  -45.2995    2.0177 H         1 UNL1        0.0000
     27 H         -19.2401  -41.2713    2.2594 H         1 UNL1        0.0000
     28 H         -17.1903  -41.7309    1.0855 H         1 UNL1        0.0000
     29 H         -21.5045  -43.7916    3.4975 H         1 UNL1        0.0000
     30 H         -20.5441  -40.9431    3.3825 H         1 UNL1        0.0000
     31 H         -20.1600  -42.0971    4.6372 H         1 UNL1        0.0000
     32 H         -21.8066  -41.5509    4.4275 H         1 UNL1        0.0000
@<TRIPOS>BOND
     1    1   17 1
     2    1    2 1
     3    1   16 1
     4    1   18 1
     5    2   19 1
     6    2    3 1
     7    2    4 1
     8    3   21 1
     9    3   22 1
    10    3   20 1
    11    4    5 1
    12    4   24 1
    13    4   23 1
    14    5    6 ar
    15    5   10 ar
    16    6    7 ar
    17    6   25 1
    18    7   26 1
    19    7    8 ar
    20    8    9 ar
    21    8   11 1
    22    9   10 ar
    23    9   27 1
    24   10   28 1
    25   11   29 1
    26   11   12 1
    27   11   13 1
    28   12   30 1
    29   12   31 1
    30   12   32 1
    31   13   15 ar
    32   13   14 ar
@<TRIPOS>SUBSTRUCTURE
1 UNL1 1
@<TRIPOS>COMMENT
ibuprofen
PLANTSproteinTorsions
102
4661 212.7954
5386 158.9064
6210 257.0840
5890 327.9827
4461 57.9299
1390 24.8745
2824 13.1043
4339 18.1272
2732 237.1881
4792 108.8338
3407 298.9029
5134 145.1061
6916 125.7870
7370 202.6664
6038 182.6420
7225 44.9192
3592 136.1335
2064 241.3828
2488 271.8068
1253 263.1748
2069 78.7211
2569 266.8892
3058 232.6911
1748 73.0938
1162 258.4853
1509 331.3818
560 126.4785
1627 119.7286
1941 27.9249
3631 58.1098
2381 127.4731
4221 125.0567
4687 27.2278
6983 170.6257
6668 63.6901
7305 170.0748
8693 226.6961
8404 83.4946
9055 224.0730
7052 56.6452
4708 105.4011
2652 74.8979
4332 198.2775
3011 353.3565
2257 136.9614
2778 42.3305
2057 31.0878
192 32.1161
315 41.6760
1085 195.7806
1007 348.1886
1407 28.1335
4816 2.8590
3131 231.6359
4654 95.8237
5144 123.6376
117 164.5093
6 294.3619
259 121.7191
1979 102.3565
2609 322.7945
2623 140.5339
5910 282.6577
5937 67.2041
2062 168.3111
890 98.2232
5008 260.9763
8602 297.3172
8478 201.2432
8300 129.8459
7721 1.0034
8466 39.0653
7852 220.2874
5849 125.3031
6302 297.5680
7439 279.9791
6284 19.0006
6003 187.5787
7165 267.1720
7623 126.7130
8158 196.7710
8667 148.8042
9078 170.3708
8684 57.5082
7666 93.8631
4231 91.0341
1659 292.6129
489 70.1185
238 154.3307
46 12.8415
83 223.1698
254 165.4147
1066 134.7150
2112 323.6078
4047 127.5168
5402 270.1681
2544 316.0239
4670 167.4329
4426 209.6501
5656 144.9271
7040 21.1231
6282 74.8830
PLANTSmolcadARTstart hb
PLANTSmolcadARTstart HB
LINES
PLANTSmolcadARTstart HBCH
LINES
-23.3545 -42.0255 2.34889 -25.409 -41.688 2.624 255 0 0 5
PLANTSmolcadARTstart HB-CHO
LINES
PLANTSmolcadARTend
PLANTSmolcadARTstart HB_WATER
LINES
PLANTSmolcadARTend

PLANTSmolcadARTend

