@<TRIPOS>MOLECULE
ibuprofen_entry_00001_conf_27
32 32 1
SMALL
NO_CHARGES


@<TRIPOS>ATOM
      1 C         -14.3416  -47.5072    4.5401 C.3       1 UNL1        0.0000
      2 C         -14.1068  -46.2234    3.8006 C.3       1 UNL1        0.0000
      3 C         -12.7272  -45.7063    4.0569 C.3       1 UNL1        0.0000
      4 C         -14.3201  -46.4543    2.3306 C.3       1 UNL1        0.0000
      5 C         -14.0922  -45.2114    1.5538 C.ar      1 UNL1        0.0000
      6 C         -15.1660  -44.3917    1.2945 C.ar      1 UNL1        0.0000
      7 C         -15.0034  -43.2376    0.5829 C.ar      1 UNL1        0.0000
      8 C         -13.7645  -42.8749    0.1137 C.ar      1 UNL1        0.0000
      9 C         -12.6854  -43.6849    0.3669 C.ar      1 UNL1        0.0000
     10 C         -12.8523  -44.8497    1.0851 C.ar      1 UNL1        0.0000
     11 C         -13.5612  -41.6360   -0.6559 C.3       1 UNL1        0.0000
     12 C         -12.1645  -41.0889   -0.3626 C.3       1 UNL1        0.0000
     13 C         -13.6818  -41.9891   -2.1010 C.2       1 UNL1        0.0000
     14 O         -14.5557  -42.7760   -2.4928 O.co2     1 UNL1       -0.5000
     15 O         -12.8086  -41.4275   -2.9881 O.co2     1 UNL1       -0.5000
     16 H         -14.1904  -47.3474    5.5880 H         1 UNL1        0.0000
     17 H         -13.6565  -48.2510    4.1904 H         1 UNL1        0.0000
     18 H         -15.3447  -47.8375    4.3706 H         1 UNL1        0.0000
     19 H         -14.7991  -45.4861    4.1481 H         1 UNL1        0.0000
     20 H         -12.0092  -46.4242    3.7187 H         1 UNL1        0.0000
     21 H         -12.5980  -45.5404    5.1059 H         1 UNL1        0.0000
     22 H         -12.5866  -44.7860    3.5298 H         1 UNL1        0.0000
     23 H         -15.3244  -46.7864    2.1714 H         1 UNL1        0.0000
     24 H         -13.6215  -47.1938    1.9993 H         1 UNL1        0.0000
     25 H         -16.1032  -44.6516    1.6401 H         1 UNL1        0.0000
     26 H         -15.8190  -42.6328    0.3962 H         1 UNL1        0.0000
     27 H         -11.7493  -43.4222    0.0202 H         1 UNL1        0.0000
     28 H         -12.0388  -45.4563    1.2730 H         1 UNL1        0.0000
     29 H         -14.2820  -40.8898   -0.3936 H         1 UNL1        0.0000
     30 H         -11.4319  -41.8253   -0.6200 H         1 UNL1        0.0000
     31 H         -12.0852  -40.8561    0.6791 H         1 UNL1        0.0000
     32 H         -12.0001  -40.2034   -0.9397 H         1 UNL1        0.0000
@<TRIPOS>BOND
     1    1   17 1
     2    1    2 1
     3    1   16 1
     4    1   18 1
     5    2   19 1
     6    2    3 1
     7    2    4 1
     8    3   21 1
     9    3   22 1
    10    3   20 1
    11    4    5 1
    12    4   24 1
    13    4   23 1
    14    5    6 ar
    15    5   10 ar
    16    6    7 ar
    17    6   25 1
    18    7   26 1
    19    7    8 ar
    20    8    9 ar
    21    8   11 1
    22    9   10 ar
    23    9   27 1
    24   10   28 1
    25   11   29 1
    26   11   12 1
    27   11   13 1
    28   12   30 1
    29   12   31 1
    30   12   32 1
    31   13   15 ar
    32   13   14 ar
@<TRIPOS>SUBSTRUCTURE
1 UNL1 1
@<TRIPOS>COMMENT
ibuprofen
PLANTSproteinTorsions
102
4661 31.5052
5386 156.6501
6210 204.7203
5890 40.8541
4461 109.9788
1390 162.0353
2824 342.3464
4339 16.2526
2732 214.3552
4792 5.4476
3407 330.5181
5134 22.5725
6916 26.6066
7370 134.6423
6038 105.6778
7225 179.7176
3592 317.7108
2064 45.7941
2488 141.8368
1253 32.9212
2069 296.0969
2569 199.0035
3058 198.0460
1748 312.7105
1162 196.1361
1509 143.1816
560 286.2954
1627 58.2776
1941 358.9955
3631 114.3806
2381 127.4341
4221 333.5182
4687 113.5439
6983 131.6011
6668 41.6589
7305 221.7191
8693 104.7788
8404 59.8404
9055 85.9034
7052 146.9682
4708 339.8923
2652 1.6934
4332 86.6763
3011 344.2096
2257 8.1499
2778 137.0370
2057 267.2264
192 13.8355
315 44.7466
1085 202.6669
1007 46.5925
1407 2.5265
4816 290.6147
3131 70.4155
4654 195.3705
5144 143.3303
117 185.2987
6 262.2715
259 167.2497
1979 95.2325
2609 20.2212
2623 141.2161
5910 269.3674
5937 58.2198
2062 269.3268
890 166.2438
5008 229.2619
8602 241.2839
8478 200.3102
8300 238.3404
7721 176.3739
8466 235.4113
7852 160.4519
5849 36.4117
6302 127.4642
7439 154.5189
6284 89.5754
6003 110.6355
7165 273.9250
7623 309.7292
8158 269.8322
8667 266.9015
9078 153.9735
8684 206.0490
7666 164.0418
4231 53.1226
1659 130.2068
489 193.2932
238 262.3808
46 149.4693
83 74.5578
254 174.6500
1066 45.7406
2112 242.8358
4047 132.8550
5402 260.8846
2544 264.8528
4670 292.3376
4426 214.8909
5656 126.8362
7040 282.2963
6282 57.9401
PLANTSmolcadARTstart hb
PLANTSmolcadARTstart HB
LINES
PLANTSmolcadARTstart HBCH
LINES
-12.8086 -41.4275 -2.98812 -13.084 -39.387 -3.151 255 0 0 5
-12.8086 -41.4275 -2.98812 -12.228 -40.893 -4.598 255 0 0 5
PLANTSmolcadARTstart HB-CHO
LINES
PLANTSmolcadARTend
PLANTSmolcadARTstart HB_WATER
LINES
PLANTSmolcadARTend

PLANTSmolcadARTend

