@<TRIPOS>MOLECULE
ibuprofen_entry_00001_conf_15
32 32 1
SMALL
NO_CHARGES


@<TRIPOS>ATOM
      1 C         -15.3068  -54.1266    0.8684 C.3       1 UNL1        0.0000
      2 C         -15.0733  -55.5875    0.6206 C.3       1 UNL1        0.0000
      3 C         -14.9197  -55.8612   -0.8416 C.3       1 UNL1        0.0000
      4 C         -13.8474  -56.0259    1.3721 C.3       1 UNL1        0.0000
      5 C         -13.6190  -57.4838    1.2217 C.ar      1 UNL1        0.0000
      6 C         -14.7089  -58.3068    1.0574 C.ar      1 UNL1        0.0000
      7 C         -14.5465  -59.6552    0.9155 C.ar      1 UNL1        0.0000
      8 C         -13.2917  -60.2134    0.9342 C.ar      1 UNL1        0.0000
      9 C         -12.1964  -59.4018    1.0970 C.ar      1 UNL1        0.0000
     10 C         -12.3632  -58.0410    1.2405 C.ar      1 UNL1        0.0000
     11 C         -13.0882  -61.6641    0.7833 C.3       1 UNL1        0.0000
     12 C         -14.2547  -62.4031    1.4384 C.3       1 UNL1        0.0000
     13 C         -13.0522  -61.9550   -0.6801 C.2       1 UNL1        0.0000
     14 O         -13.0462  -63.1225   -1.0966 O.co2     1 UNL1       -0.5000
     15 O         -13.0257  -60.9078   -1.5562 O.co2     1 UNL1       -0.5000
     16 H         -16.1792  -53.8097    0.3346 H         1 UNL1        0.0000
     17 H         -14.4595  -53.5673    0.5307 H         1 UNL1        0.0000
     18 H         -15.4496  -53.9614    1.9155 H         1 UNL1        0.0000
     19 H         -15.9193  -56.1423    0.9671 H         1 UNL1        0.0000
     20 H         -14.0782  -55.3183   -1.2191 H         1 UNL1        0.0000
     21 H         -15.8042  -55.5507   -1.3571 H         1 UNL1        0.0000
     22 H         -14.7660  -56.9088   -0.9950 H         1 UNL1        0.0000
     23 H         -13.9733  -55.7973    2.4094 H         1 UNL1        0.0000
     24 H         -13.0015  -55.5074    0.9717 H         1 UNL1        0.0000
     25 H         -15.6581  -57.9016    1.0420 H         1 UNL1        0.0000
     26 H         -15.3743  -60.2599    0.7932 H         1 UNL1        0.0000
     27 H         -11.2484  -59.8098    1.1117 H         1 UNL1        0.0000
     28 H         -11.5375  -57.4341    1.3631 H         1 UNL1        0.0000
     29 H         -12.1784  -61.9820    1.2485 H         1 UNL1        0.0000
     30 H         -15.1728  -62.0948    0.9830 H         1 UNL1        0.0000
     31 H         -14.2800  -62.1727    2.4832 H         1 UNL1        0.0000
     32 H         -14.1269  -63.4572    1.3084 H         1 UNL1        0.0000
@<TRIPOS>BOND
     1    1   17 1
     2    1    2 1
     3    1   16 1
     4    1   18 1
     5    2   19 1
     6    2    3 1
     7    2    4 1
     8    3   21 1
     9    3   22 1
    10    3   20 1
    11    4    5 1
    12    4   24 1
    13    4   23 1
    14    5    6 ar
    15    5   10 ar
    16    6    7 ar
    17    6   25 1
    18    7   26 1
    19    7    8 ar
    20    8    9 ar
    21    8   11 1
    22    9   10 ar
    23    9   27 1
    24   10   28 1
    25   11   29 1
    26   11   12 1
    27   11   13 1
    28   12   30 1
    29   12   31 1
    30   12   32 1
    31   13   15 ar
    32   13   14 ar
@<TRIPOS>SUBSTRUCTURE
1 UNL1 1
@<TRIPOS>COMMENT
ibuprofen
PLANTSproteinTorsions
102
4661 32.6742
5386 133.5809
6210 206.0531
5890 237.6880
4461 108.7622
1390 143.6852
2824 340.3520
4339 22.5911
2732 161.6748
4792 286.4073
3407 107.4531
5134 8.3769
6916 73.1582
7370 84.8692
6038 103.2154
7225 177.8056
3592 109.4682
2064 14.5888
2488 77.5901
1253 56.0130
2069 233.3472
2569 201.5319
3058 176.0987
1748 318.6564
1162 307.2480
1509 339.3380
560 114.3225
1627 62.1829
1941 253.9497
3631 86.7527
2381 164.2641
4221 102.5295
4687 129.7971
6983 141.5575
6668 47.1545
7305 225.0071
8693 71.7747
8404 68.0484
9055 126.3658
7052 51.9725
4708 114.0604
2652 26.8699
4332 152.9208
3011 109.8782
2257 242.8229
2778 134.0966
2057 113.0425
192 18.4718
315 49.1165
1085 162.2215
1007 129.9165
1407 63.2180
4816 292.3760
3131 67.1136
4654 193.9661
5144 194.9156
117 246.2588
6 164.7460
259 206.8010
1979 100.7298
2609 24.8634
2623 244.7455
5910 150.9373
5937 118.2115
2062 138.9242
890 51.7570
5008 226.9950
8602 101.7905
8478 277.4237
8300 131.5785
7721 64.8005
8466 268.8743
7852 116.3901
5849 35.8722
6302 339.3819
7439 198.7912
6284 122.7903
6003 109.4464
7165 266.9063
7623 14.2835
8158 231.9154
8667 164.7964
9078 179.7215
8684 32.2955
7666 165.6507
4231 224.0057
1659 262.7771
489 283.0969
238 313.6708
46 33.0033
83 222.6201
254 164.7666
1066 117.8262
2112 322.3943
4047 245.6878
5402 236.4395
2544 165.7494
4670 216.9240
4426 197.1290
5656 213.6936
7040 15.9144
6282 206.0903
PLANTSmolcadARTstart hb
PLANTSmolcadARTstart HB
LINES
PLANTSmolcadARTstart HBCH
LINES
PLANTSmolcadARTstart HB-CHO
LINES
PLANTSmolcadARTend
PLANTSmolcadARTstart HB_WATER
LINES
PLANTSmolcadARTend

PLANTSmolcadARTend

