@<TRIPOS>MOLECULE
ibuprofen_entry_00001_conf_50
32 32 1
SMALL
NO_CHARGES


@<TRIPOS>ATOM
      1 C         -33.5428  -62.4715  -18.2063 C.3       1 UNL1        0.0000
      2 C         -32.6459  -61.2885  -17.9915 C.3       1 UNL1        0.0000
      3 C         -32.3086  -60.6335  -19.2929 C.3       1 UNL1        0.0000
      4 C         -33.3254  -60.3146  -17.0700 C.3       1 UNL1        0.0000
      5 C         -32.4412  -59.1653  -16.7578 C.ar      1 UNL1        0.0000
      6 C         -33.0103  -58.0101  -16.2740 C.ar      1 UNL1        0.0000
      7 C         -32.2353  -56.9268  -15.9732 C.ar      1 UNL1        0.0000
      8 C         -30.8738  -56.9716  -16.1484 C.ar      1 UNL1        0.0000
      9 C         -30.2946  -58.1193  -16.6300 C.ar      1 UNL1        0.0000
     10 C         -31.0792  -59.2114  -16.9333 C.ar      1 UNL1        0.0000
     11 C         -30.0149  -55.8180  -15.8319 C.3       1 UNL1        0.0000
     12 C         -30.5097  -54.5984  -16.6091 C.3       1 UNL1        0.0000
     13 C         -30.1280  -55.5727  -14.3641 C.2       1 UNL1        0.0000
     14 O         -29.5027  -54.6491  -13.8234 O.co2     1 UNL1       -0.5000
     15 O         -30.9362  -56.3874  -13.6238 O.co2     1 UNL1       -0.5000
     16 H         -33.0627  -63.1681  -18.8625 H         1 UNL1        0.0000
     17 H         -34.4638  -62.1466  -18.6432 H         1 UNL1        0.0000
     18 H         -33.7400  -62.9440  -17.2670 H         1 UNL1        0.0000
     19 H         -31.7304  -61.6177  -17.5475 H         1 UNL1        0.0000
     20 H         -33.2072  -60.2920  -19.7633 H         1 UNL1        0.0000
     21 H         -31.8188  -61.3391  -19.9307 H         1 UNL1        0.0000
     22 H         -31.6600  -59.8011  -19.1167 H         1 UNL1        0.0000
     23 H         -33.5817  -60.8153  -16.1601 H         1 UNL1        0.0000
     24 H         -34.2033  -59.9442  -17.5567 H         1 UNL1        0.0000
     25 H         -34.0322  -57.9614  -16.1379 H         1 UNL1        0.0000
     26 H         -32.6771  -56.0667  -15.6112 H         1 UNL1        0.0000
     27 H         -29.2723  -58.1651  -16.7649 H         1 UNL1        0.0000
     28 H         -30.6403  -60.0723  -17.2956 H         1 UNL1        0.0000
     29 H         -28.9958  -56.0036  -16.1008 H         1 UNL1        0.0000
     30 H         -31.5291  -54.4005  -16.3504 H         1 UNL1        0.0000
     31 H         -30.4398  -54.7934  -17.6591 H         1 UNL1        0.0000
     32 H         -29.9066  -53.7500  -16.3626 H         1 UNL1        0.0000
@<TRIPOS>BOND
     1    1   17 1
     2    1    2 1
     3    1   16 1
     4    1   18 1
     5    2   19 1
     6    2    3 1
     7    2    4 1
     8    3   21 1
     9    3   22 1
    10    3   20 1
    11    4    5 1
    12    4   24 1
    13    4   23 1
    14    5    6 ar
    15    5   10 ar
    16    6    7 ar
    17    6   25 1
    18    7   26 1
    19    7    8 ar
    20    8    9 ar
    21    8   11 1
    22    9   10 ar
    23    9   27 1
    24   10   28 1
    25   11   29 1
    26   11   12 1
    27   11   13 1
    28   12   30 1
    29   12   31 1
    30   12   32 1
    31   13   15 ar
    32   13   14 ar
@<TRIPOS>SUBSTRUCTURE
1 UNL1 1
@<TRIPOS>COMMENT
ibuprofen
PLANTSproteinTorsions
102
4661 247.2127
5386 182.8135
6210 174.6859
5890 4.1221
4461 222.7896
1390 17.8984
2824 12.8612
4339 201.9798
2732 226.4734
4792 162.9650
3407 310.9457
5134 62.4331
6916 6.8422
7370 267.1529
6038 217.5802
7225 153.5838
3592 202.4561
2064 78.1637
2488 256.0004
1253 242.4274
2069 104.3067
2569 303.1343
3058 81.3169
1748 251.6058
1162 21.6071
1509 147.1422
560 74.9581
1627 223.4621
1941 257.5163
3631 205.5540
2381 186.5733
4221 167.3263
4687 100.4142
6983 352.5411
6668 85.9577
7305 0.0787
8693 90.3891
8404 325.9991
9055 85.5939
7052 139.0517
4708 357.6852
2652 205.6168
4332 223.1087
3011 97.7796
2257 264.1032
2778 193.2991
2057 180.2147
192 33.3847
315 68.6032
1085 230.5403
1007 281.1839
1407 127.9527
4816 97.6321
3131 223.5953
4654 29.3068
5144 74.6206
117 137.3897
6 266.1135
259 79.4810
1979 184.2160
2609 257.5591
2623 11.7298
5910 209.4999
5937 136.6298
2062 147.4916
890 238.3244
5008 224.9083
8602 332.1147
8478 54.9716
8300 42.9342
7721 162.1247
8466 89.5060
7852 348.9464
5849 80.9960
6302 277.1591
7439 296.4222
6284 308.3239
6003 341.3080
7165 121.9602
7623 318.6717
8158 113.2181
8667 248.1839
9078 193.3945
8684 122.7412
7666 219.9735
4231 205.2319
1659 85.7106
489 190.0617
238 172.5201
46 290.5392
83 112.5879
254 265.8573
1066 220.9884
2112 109.1014
4047 206.0586
5402 89.2596
2544 122.1550
4670 105.3792
4426 57.9579
5656 51.1883
7040 30.2185
6282 288.0443
PLANTSmolcadARTstart hb
PLANTSmolcadARTstart HB
LINES
PLANTSmolcadARTstart HBCH
LINES
-30.9362 -56.3874 -13.6238 -31.094 -57.487 -11.84 255 0 0 5
-30.9362 -56.3874 -13.6238 -30.003 -57.953 -13.761 255 0 0 5
PLANTSmolcadARTstart HB-CHO
LINES
PLANTSmolcadARTend
PLANTSmolcadARTstart HB_WATER
LINES
PLANTSmolcadARTend

PLANTSmolcadARTend

