@<TRIPOS>MOLECULE
ibuprofen_entry_00001_conf_48
32 32 1
SMALL
NO_CHARGES


@<TRIPOS>ATOM
      1 C         -13.5354  -61.5173    1.4034 C.3       1 UNL1        0.0000
      2 C         -13.5545  -62.9218    0.8770 C.3       1 UNL1        0.0000
      3 C         -14.3096  -63.8253    1.7990 C.3       1 UNL1        0.0000
      4 C         -14.1735  -62.9273   -0.4928 C.3       1 UNL1        0.0000
      5 C         -14.1443  -64.2851   -1.0891 C.ar      1 UNL1        0.0000
      6 C         -15.2731  -64.7491   -1.7238 C.ar      1 UNL1        0.0000
      7 C         -15.2920  -65.9930   -2.2870 C.ar      1 UNL1        0.0000
      8 C         -14.1840  -66.8026   -2.2297 C.ar      1 UNL1        0.0000
      9 C         -13.0515  -66.3500   -1.5995 C.ar      1 UNL1        0.0000
     10 C         -13.0352  -65.0941   -1.0313 C.ar      1 UNL1        0.0000
     11 C         -14.1774  -68.1479   -2.8288 C.3       1 UNL1        0.0000
     12 C         -12.7324  -68.5705   -3.0924 C.3       1 UNL1        0.0000
     13 C         -14.8119  -69.0728   -1.8442 C.2       1 UNL1        0.0000
     14 O         -16.0086  -68.9571   -1.5424 O.co2     1 UNL1       -0.5000
     15 O         -14.0476  -70.0532   -1.2790 O.co2     1 UNL1       -0.5000
     16 H         -13.0953  -61.5086    2.3794 H         1 UNL1        0.0000
     17 H         -14.5364  -61.1438    1.4603 H         1 UNL1        0.0000
     18 H         -12.9600  -60.8989    0.7471 H         1 UNL1        0.0000
     19 H         -12.5514  -63.2873    0.8146 H         1 UNL1        0.0000
     20 H         -15.3207  -63.4847    1.8825 H         1 UNL1        0.0000
     21 H         -13.8493  -63.8144    2.7647 H         1 UNL1        0.0000
     22 H         -14.3001  -64.8219    1.4100 H         1 UNL1        0.0000
     23 H         -13.6299  -62.2567   -1.1244 H         1 UNL1        0.0000
     24 H         -15.1940  -62.6181   -0.4043 H         1 UNL1        0.0000
     25 H         -16.1135  -64.1522   -1.7741 H         1 UNL1        0.0000
     26 H         -16.1468  -66.3273   -2.7597 H         1 UNL1        0.0000
     27 H         -12.2125  -66.9492   -1.5509 H         1 UNL1        0.0000
     28 H         -12.1822  -64.7574   -0.5579 H         1 UNL1        0.0000
     29 H         -14.7127  -68.1663   -3.7552 H         1 UNL1        0.0000
     30 H         -12.1837  -68.5566   -2.1737 H         1 UNL1        0.0000
     31 H         -12.2836  -67.8899   -3.7858 H         1 UNL1        0.0000
     32 H         -12.7190  -69.5584   -3.5024 H         1 UNL1        0.0000
@<TRIPOS>BOND
     1    1   17 1
     2    1    2 1
     3    1   16 1
     4    1   18 1
     5    2   19 1
     6    2    3 1
     7    2    4 1
     8    3   21 1
     9    3   22 1
    10    3   20 1
    11    4    5 1
    12    4   24 1
    13    4   23 1
    14    5    6 ar
    15    5   10 ar
    16    6    7 ar
    17    6   25 1
    18    7   26 1
    19    7    8 ar
    20    8    9 ar
    21    8   11 1
    22    9   10 ar
    23    9   27 1
    24   10   28 1
    25   11   29 1
    26   11   12 1
    27   11   13 1
    28   12   30 1
    29   12   31 1
    30   12   32 1
    31   13   15 ar
    32   13   14 ar
@<TRIPOS>SUBSTRUCTURE
1 UNL1 1
@<TRIPOS>COMMENT
ibuprofen
PLANTSproteinTorsions
102
4661 178.1836
5386 123.7728
6210 81.3621
5890 30.1477
4461 1.0316
1390 40.0383
2824 186.0394
4339 43.0309
2732 30.6541
4792 284.3871
3407 42.7381
5134 9.7602
6916 21.0490
7370 225.2812
6038 239.9709
7225 246.6318
3592 73.9167
2064 350.2912
2488 46.4768
1253 286.8810
2069 53.5562
2569 254.8529
3058 259.5914
1748 132.8950
1162 80.4866
1509 103.1836
560 148.8640
1627 171.6686
1941 285.5821
3631 38.0244
2381 36.0173
4221 206.5967
4687 242.7919
6983 110.9422
6668 153.1156
7305 117.4524
8693 310.5354
8404 119.1947
9055 231.7864
7052 263.5125
4708 181.5243
2652 106.6025
4332 115.5496
3011 44.3136
2257 223.4510
2778 47.1797
2057 100.4169
192 79.7324
315 19.3790
1085 165.2724
1007 259.7258
1407 108.7982
4816 12.0030
3131 70.0272
4654 168.9113
5144 264.6733
117 67.1911
6 341.3367
259 235.3328
1979 41.0832
2609 219.8445
2623 16.3058
5910 163.3295
5937 239.3630
2062 273.6711
890 174.5659
5008 226.1673
8602 11.8259
8478 81.4192
8300 131.9399
7721 123.1328
8466 72.5179
7852 77.1963
5849 98.7126
6302 181.9987
7439 259.2536
6284 20.4588
6003 227.1057
7165 61.0464
7623 122.8295
8158 267.4784
8667 51.0220
9078 237.7333
8684 252.6161
7666 57.0859
4231 244.1644
1659 223.9760
489 39.9425
238 261.6976
46 163.5573
83 125.0425
254 294.2805
1066 279.8350
2112 217.7955
4047 170.9573
5402 208.0430
2544 91.2568
4670 66.7847
4426 224.8103
5656 247.5952
7040 168.0606
6282 215.8213
PLANTSmolcadARTstart hb
PLANTSmolcadARTstart HB
LINES
PLANTSmolcadARTstart HBCH
LINES
PLANTSmolcadARTstart HB-CHO
LINES
PLANTSmolcadARTend
PLANTSmolcadARTstart HB_WATER
LINES
PLANTSmolcadARTend

PLANTSmolcadARTend

