@<TRIPOS>MOLECULE
ibuprofen_entry_00001_conf_52
32 32 1
SMALL
NO_CHARGES


@<TRIPOS>ATOM
      1 C         -43.9957  -64.3909    4.2949 C.3       1 UNL1        0.0000
      2 C         -43.3544  -63.0690    4.5973 C.3       1 UNL1        0.0000
      3 C         -43.9712  -62.4427    5.8071 C.3       1 UNL1        0.0000
      4 C         -41.8788  -63.2713    4.8008 C.3       1 UNL1        0.0000
      5 C         -41.1829  -61.9770    5.0027 C.ar      1 UNL1        0.0000
      6 C         -40.7338  -61.2923    3.8974 C.ar      1 UNL1        0.0000
      7 C         -40.0876  -60.0973    4.0353 C.ar      1 UNL1        0.0000
      8 C         -39.8748  -59.5578    5.2804 C.ar      1 UNL1        0.0000
      9 C         -40.3191  -60.2319    6.3908 C.ar      1 UNL1        0.0000
     10 C         -40.9708  -61.4383    6.2488 C.ar      1 UNL1        0.0000
     11 C         -39.1810  -58.2710    5.4575 C.3       1 UNL1        0.0000
     12 C         -38.0443  -58.1720    4.4405 C.3       1 UNL1        0.0000
     13 C         -40.1832  -57.1920    5.2149 C.2       1 UNL1        0.0000
     14 O         -39.8374  -56.0946    4.7538 O.co2     1 UNL1       -0.5000
     15 O         -41.4938  -57.4359    5.5112 O.co2     1 UNL1       -0.5000
     16 H         -45.0473  -64.2516    4.1494 H         1 UNL1        0.0000
     17 H         -43.8348  -65.0612    5.1132 H         1 UNL1        0.0000
     18 H         -43.5638  -64.8013    3.4066 H         1 UNL1        0.0000
     19 H         -43.5113  -62.4057    3.7733 H         1 UNL1        0.0000
     20 H         -43.8303  -63.0848    6.6517 H         1 UNL1        0.0000
     21 H         -45.0180  -62.2992    5.6397 H         1 UNL1        0.0000
     22 H         -43.5070  -61.4976    5.9965 H         1 UNL1        0.0000
     23 H         -41.4707  -63.7566    3.9394 H         1 UNL1        0.0000
     24 H         -41.7369  -63.8721    5.6747 H         1 UNL1        0.0000
     25 H         -40.8859  -61.6857    2.9554 H         1 UNL1        0.0000
     26 H         -39.7562  -59.5953    3.1962 H         1 UNL1        0.0000
     27 H         -40.1657  -59.8359    7.3316 H         1 UNL1        0.0000
     28 H         -41.3029  -61.9424    7.0859 H         1 UNL1        0.0000
     29 H         -38.7681  -58.1813    6.4407 H         1 UNL1        0.0000
     30 H         -38.4426  -58.2605    3.4511 H         1 UNL1        0.0000
     31 H         -37.3421  -58.9608    4.6139 H         1 UNL1        0.0000
     32 H         -37.5533  -57.2275    4.5455 H         1 UNL1        0.0000
@<TRIPOS>BOND
     1    1   17 1
     2    1    2 1
     3    1   16 1
     4    1   18 1
     5    2   19 1
     6    2    3 1
     7    2    4 1
     8    3   21 1
     9    3   22 1
    10    3   20 1
    11    4    5 1
    12    4   24 1
    13    4   23 1
    14    5    6 ar
    15    5   10 ar
    16    6    7 ar
    17    6   25 1
    18    7   26 1
    19    7    8 ar
    20    8    9 ar
    21    8   11 1
    22    9   10 ar
    23    9   27 1
    24   10   28 1
    25   11   29 1
    26   11   12 1
    27   11   13 1
    28   12   30 1
    29   12   31 1
    30   12   32 1
    31   13   15 ar
    32   13   14 ar
@<TRIPOS>SUBSTRUCTURE
1 UNL1 1
@<TRIPOS>COMMENT
ibuprofen
PLANTSproteinTorsions
102
4661 62.7167
5386 179.5474
6210 89.0478
5890 236.0784
4461 281.7998
1390 278.8354
2824 2.5434
4339 57.0927
2732 229.6527
4792 229.2284
3407 246.8302
5134 54.9298
6916 198.0665
7370 237.5029
6038 346.9253
7225 158.4673
3592 139.8733
2064 213.2157
2488 129.9579
1253 177.0623
2069 291.5458
2569 84.2738
3058 212.4011
1748 68.4767
1162 177.1960
1509 178.9428
560 174.5276
1627 182.4169
1941 121.9154
3631 243.2946
2381 210.4232
4221 55.7963
4687 130.2836
6983 8.2089
6668 100.7974
7305 345.4990
8693 9.8026
8404 30.4782
9055 95.3703
7052 5.1639
4708 46.8354
2652 241.6509
4332 107.6255
3011 90.5604
2257 73.8046
2778 20.9719
2057 237.1664
192 265.6598
315 207.6030
1085 237.0383
1007 45.3493
1407 166.8175
4816 226.1423
3131 54.3959
4654 263.0393
5144 219.7675
117 247.7701
6 163.3327
259 148.5616
1979 235.0944
2609 131.5392
2623 167.8934
5910 64.9304
5937 52.3579
2062 315.0393
890 100.4598
5008 44.1241
8602 214.9653
8478 133.7547
8300 61.2278
7721 181.5233
8466 161.3479
7852 97.2946
5849 105.9922
6302 173.3373
7439 315.7772
6284 194.1235
6003 186.9550
7165 250.2172
7623 330.7111
8158 256.1300
8667 231.2586
9078 71.7783
8684 159.3718
7666 231.0550
4231 282.7330
1659 238.1412
489 181.5419
238 46.8045
46 322.7553
83 246.3344
254 78.4898
1066 279.8924
2112 314.7657
4047 248.6964
5402 35.9995
2544 256.8454
4670 350.0674
4426 120.3932
5656 294.3952
7040 112.7676
6282 201.7406
PLANTSmolcadARTstart hb
PLANTSmolcadARTstart HB
LINES
PLANTSmolcadARTstart HBCH
LINES
PLANTSmolcadARTstart HB-CHO
LINES
-41.4938 -57.4359 5.51117 -43.2 -58.952 4.492 0 255 255 5
PLANTSmolcadARTend
PLANTSmolcadARTstart HB_WATER
LINES
PLANTSmolcadARTend

PLANTSmolcadARTend

