@<TRIPOS>MOLECULE
ibuprofen_entry_00001_conf_62
32 32 1
SMALL
NO_CHARGES


@<TRIPOS>ATOM
      1 C           0.8606  -67.0769    2.5462 C.3       1 UNL1        0.0000
      2 C           1.1360  -65.8063    1.7980 C.3       1 UNL1        0.0000
      3 C           1.9717  -66.0726    0.5868 C.3       1 UNL1        0.0000
      4 C          -0.1690  -65.1690    1.4101 C.3       1 UNL1        0.0000
      5 C           0.0515  -63.8990    0.6762 C.ar      1 UNL1        0.0000
      6 C           0.2916  -62.7543    1.4002 C.ar      1 UNL1        0.0000
      7 C           0.4999  -61.5624    0.7670 C.ar      1 UNL1        0.0000
      8 C           0.4733  -61.4859   -0.6041 C.ar      1 UNL1        0.0000
      9 C           0.2352  -62.6219   -1.3371 C.ar      1 UNL1        0.0000
     10 C           0.0248  -63.8237   -0.6955 C.ar      1 UNL1        0.0000
     11 C           0.6948  -60.2137   -1.3121 C.3       1 UNL1        0.0000
     12 C          -0.5850  -59.3800   -1.2539 C.3       1 UNL1        0.0000
     13 C           1.8031  -59.5038   -0.6084 C.2       1 UNL1        0.0000
     14 O           2.9246  -60.0213   -0.5036 O.co2     1 UNL1       -0.5000
     15 O           1.5589  -58.2687   -0.0795 O.co2     1 UNL1       -0.5000
     16 H           1.7877  -67.5345    2.8244 H         1 UNL1        0.0000
     17 H           0.3060  -67.7458    1.9219 H         1 UNL1        0.0000
     18 H           0.2935  -66.8563    3.4260 H         1 UNL1        0.0000
     19 H           1.6833  -65.1385    2.4290 H         1 UNL1        0.0000
     20 H           1.4494  -66.7401   -0.0667 H         1 UNL1        0.0000
     21 H           2.8982  -66.5174    0.8838 H         1 UNL1        0.0000
     22 H           2.1648  -65.1524    0.0763 H         1 UNL1        0.0000
     23 H          -0.7358  -64.9674    2.2947 H         1 UNL1        0.0000
     24 H          -0.6976  -65.8433    0.7692 H         1 UNL1        0.0000
     25 H           0.3139  -62.7963    2.4312 H         1 UNL1        0.0000
     26 H           0.6787  -60.7118    1.3241 H         1 UNL1        0.0000
     27 H           0.2137  -62.5768   -2.3681 H         1 UNL1        0.0000
     28 H          -0.1544  -64.6756   -1.2498 H         1 UNL1        0.0000
     29 H           0.9496  -60.3765   -2.3386 H         1 UNL1        0.0000
     30 H          -0.8528  -59.2091   -0.2320 H         1 UNL1        0.0000
     31 H          -1.3756  -59.9072   -1.7462 H         1 UNL1        0.0000
     32 H          -0.4223  -58.4427   -1.7429 H         1 UNL1        0.0000
@<TRIPOS>BOND
     1    1   17 1
     2    1    2 1
     3    1   16 1
     4    1   18 1
     5    2   19 1
     6    2    3 1
     7    2    4 1
     8    3   21 1
     9    3   22 1
    10    3   20 1
    11    4    5 1
    12    4   24 1
    13    4   23 1
    14    5    6 ar
    15    5   10 ar
    16    6    7 ar
    17    6   25 1
    18    7   26 1
    19    7    8 ar
    20    8    9 ar
    21    8   11 1
    22    9   10 ar
    23    9   27 1
    24   10   28 1
    25   11   29 1
    26   11   12 1
    27   11   13 1
    28   12   30 1
    29   12   31 1
    30   12   32 1
    31   13   15 ar
    32   13   14 ar
@<TRIPOS>SUBSTRUCTURE
1 UNL1 1
@<TRIPOS>COMMENT
ibuprofen
PLANTSproteinTorsions
102
4661 31.2743
5386 346.6433
6210 54.9207
5890 95.7244
4461 336.0475
1390 79.9330
2824 31.3373
4339 331.7656
2732 241.3087
4792 218.4531
3407 120.0825
5134 326.2310
6916 107.6036
7370 13.0262
6038 32.8543
7225 85.6387
3592 358.4726
2064 352.7760
2488 101.6617
1253 136.8723
2069 172.9283
2569 146.6813
3058 128.5380
1748 148.1354
1162 137.9920
1509 27.2580
560 109.7952
1627 5.2181
1941 310.6427
3631 346.0019
2381 178.3254
4221 121.8754
4687 73.6773
6983 32.6983
6668 269.4032
7305 154.7585
8693 284.9820
8404 126.1599
9055 226.9983
7052 349.7130
4708 330.6804
2652 44.7655
4332 255.0472
3011 19.7541
2257 48.2706
2778 109.0072
2057 251.3084
192 72.9057
315 16.4721
1085 243.9988
1007 117.8892
1407 57.4058
4816 203.9987
3131 67.3434
4654 204.5619
5144 146.2014
117 70.4113
6 61.7084
259 268.1720
1979 174.9274
2609 46.5530
2623 175.3442
5910 317.0553
5937 184.5786
2062 30.4981
890 102.9988
5008 54.6476
8602 31.9374
8478 46.3355
8300 73.3164
7721 119.3758
8466 125.9830
7852 328.7858
5849 315.9781
6302 65.6004
7439 270.8049
6284 118.4860
6003 34.5078
7165 161.9358
7623 76.9579
8158 233.5210
8667 312.2597
9078 204.0613
8684 240.7817
7666 303.4691
4231 263.2142
1659 202.2006
489 172.9459
238 46.7966
46 77.8581
83 195.2249
254 239.6183
1066 4.5878
2112 175.2452
4047 140.5008
5402 214.3761
2544 153.8513
4670 168.9907
4426 95.6389
5656 118.0512
7040 192.9615
6282 211.4546
PLANTSmolcadARTstart hb
PLANTSmolcadARTstart HB
LINES
PLANTSmolcadARTstart HBCH
LINES
PLANTSmolcadARTstart HB-CHO
LINES
PLANTSmolcadARTend
PLANTSmolcadARTstart HB_WATER
LINES
PLANTSmolcadARTend

PLANTSmolcadARTend

