@<TRIPOS>MOLECULE
ibuprofen_entry_00001_conf_29
32 32 1
SMALL
NO_CHARGES


@<TRIPOS>ATOM
      1 C         -11.8321  -40.7528   -1.7012 C.3       1 UNL1        0.0000
      2 C         -12.2887  -41.7791   -0.7070 C.3       1 UNL1        0.0000
      3 C         -12.7349  -41.1278    0.5631 C.3       1 UNL1        0.0000
      4 C         -13.4055  -42.5860   -1.3080 C.3       1 UNL1        0.0000
      5 C         -13.7679  -43.7314   -0.4380 C.ar      1 UNL1        0.0000
      6 C         -14.9603  -43.6860    0.2463 C.ar      1 UNL1        0.0000
      7 C         -15.3350  -44.7176    1.0589 C.ar      1 UNL1        0.0000
      8 C         -14.5275  -45.8188    1.2071 C.ar      1 UNL1        0.0000
      9 C         -13.3355  -45.8755    0.5286 C.ar      1 UNL1        0.0000
     10 C         -12.9594  -44.8326   -0.2907 C.ar      1 UNL1        0.0000
     11 C         -14.9074  -46.9449    2.0767 C.3       1 UNL1        0.0000
     12 C         -14.4263  -48.2500    1.4431 C.3       1 UNL1        0.0000
     13 C         -14.2346  -46.7336    3.3921 C.2       1 UNL1        0.0000
     14 O         -14.2117  -45.6133    3.9221 O.co2     1 UNL1       -0.5000
     15 O         -13.6420  -47.8007    4.0042 O.co2     1 UNL1       -0.5000
     16 H         -11.0365  -40.1753   -1.2771 H         1 UNL1        0.0000
     17 H         -12.6488  -40.1072   -1.9483 H         1 UNL1        0.0000
     18 H         -11.4845  -41.2438   -2.5856 H         1 UNL1        0.0000
     19 H         -11.4712  -42.4263   -0.4696 H         1 UNL1        0.0000
     20 H         -13.5550  -40.4716    0.3580 H         1 UNL1        0.0000
     21 H         -11.9250  -40.5662    0.9793 H         1 UNL1        0.0000
     22 H         -13.0444  -41.8782    1.2601 H         1 UNL1        0.0000
     23 H         -13.0944  -42.9568   -2.2619 H         1 UNL1        0.0000
     24 H         -14.2627  -41.9539   -1.4104 H         1 UNL1        0.0000
     25 H         -15.5771  -42.8647    0.1454 H         1 UNL1        0.0000
     26 H         -16.2328  -44.6688    1.5662 H         1 UNL1        0.0000
     27 H         -12.7208  -46.6983    0.6314 H         1 UNL1        0.0000
     28 H         -12.0623  -44.8786   -0.7988 H         1 UNL1        0.0000
     29 H         -15.9684  -46.9990    2.2057 H         1 UNL1        0.0000
     30 H         -13.3654  -48.2105    1.3075 H         1 UNL1        0.0000
     31 H         -14.9024  -48.3811    0.4936 H         1 UNL1        0.0000
     32 H         -14.6750  -49.0700    2.0834 H         1 UNL1        0.0000
@<TRIPOS>BOND
     1    1   17 1
     2    1    2 1
     3    1   16 1
     4    1   18 1
     5    2   19 1
     6    2    3 1
     7    2    4 1
     8    3   21 1
     9    3   22 1
    10    3   20 1
    11    4    5 1
    12    4   24 1
    13    4   23 1
    14    5    6 ar
    15    5   10 ar
    16    6    7 ar
    17    6   25 1
    18    7   26 1
    19    7    8 ar
    20    8    9 ar
    21    8   11 1
    22    9   10 ar
    23    9   27 1
    24   10   28 1
    25   11   29 1
    26   11   12 1
    27   11   13 1
    28   12   30 1
    29   12   31 1
    30   12   32 1
    31   13   15 ar
    32   13   14 ar
@<TRIPOS>SUBSTRUCTURE
1 UNL1 1
@<TRIPOS>COMMENT
ibuprofen
PLANTSproteinTorsions
102
4661 155.1829
5386 49.8686
6210 145.8304
5890 20.0183
4461 201.4399
1390 155.0815
2824 217.6310
4339 19.1638
2732 132.1060
4792 32.0554
3407 40.1876
5134 78.6877
6916 97.4716
7370 86.9823
6038 52.9668
7225 215.9615
3592 294.3107
2064 34.8327
2488 125.3327
1253 134.2740
2069 227.9790
2569 189.9189
3058 134.8425
1748 150.7153
1162 274.4136
1509 277.5626
560 258.3792
1627 52.1786
1941 254.7091
3631 113.6588
2381 205.7054
4221 259.5215
4687 51.2987
6983 146.0937
6668 82.3672
7305 210.0824
8693 100.3352
8404 0.2496
9055 91.1023
7052 35.5526
4708 81.5047
2652 95.4217
4332 324.5685
3011 21.5030
2257 241.4589
2778 358.7574
2057 61.2505
192 315.0727
315 77.3967
1085 166.4462
1007 158.4177
1407 184.6056
4816 54.0955
3131 45.0642
4654 84.8561
5144 123.9388
117 325.8741
6 157.9001
259 89.1536
1979 26.5220
2609 8.5373
2623 156.6720
5910 123.4661
5937 155.9893
2062 118.0705
890 208.4047
5008 8.8212
8602 34.6640
8478 258.1802
8300 86.3865
7721 52.2745
8466 25.9826
7852 165.2478
5849 51.9518
6302 313.7586
7439 82.8417
6284 131.8425
6003 104.4033
7165 231.6985
7623 329.5917
8158 189.9808
8667 172.5647
9078 155.5516
8684 18.3550
7666 155.8605
4231 219.9844
1659 269.0136
489 185.8624
238 262.9076
46 168.6766
83 188.3468
254 196.7625
1066 273.4108
2112 122.5641
4047 308.1168
5402 164.8411
2544 299.7786
4670 288.7597
4426 197.6025
5656 260.0909
7040 136.4948
6282 140.1724
PLANTSmolcadARTstart hb
PLANTSmolcadARTstart HB
LINES
PLANTSmolcadARTstart HBCH
LINES
-14.2117 -45.6133 3.92212 -14.807 -43.973 3.961 255 0 0 5
PLANTSmolcadARTstart HB-CHO
LINES
-13.642 -47.8007 4.00423 -11.918 -47.691 2.198 0 255 255 5
PLANTSmolcadARTend
PLANTSmolcadARTstart HB_WATER
LINES
PLANTSmolcadARTend

PLANTSmolcadARTend

