@<TRIPOS>MOLECULE
ibuprofen_entry_00001_conf_81
32 32 1
SMALL
NO_CHARGES


@<TRIPOS>ATOM
      1 C         -10.3865  -59.4489    8.5734 C.3       1 UNL1        0.0000
      2 C         -10.6544  -60.2967    9.7815 C.3       1 UNL1        0.0000
      3 C          -9.4092  -60.4809   10.5890 C.3       1 UNL1        0.0000
      4 C         -11.7303  -59.6509   10.6091 C.3       1 UNL1        0.0000
      5 C         -11.4952  -58.1933   10.7516 C.ar      1 UNL1        0.0000
      6 C         -12.5135  -57.3279   10.4255 C.ar      1 UNL1        0.0000
      7 C         -12.3420  -55.9780   10.5407 C.ar      1 UNL1        0.0000
      8 C         -11.1495  -55.4607   10.9845 C.ar      1 UNL1        0.0000
      9 C         -10.1263  -56.3148   11.3135 C.ar      1 UNL1        0.0000
     10 C         -10.3018  -57.6770   11.1958 C.ar      1 UNL1        0.0000
     11 C         -10.9379  -54.0095   11.1181 C.3       1 UNL1        0.0000
     12 C         -10.7617  -53.6642   12.5966 C.3       1 UNL1        0.0000
     13 C          -9.6972  -53.6725   10.3602 C.2       1 UNL1        0.0000
     14 O          -9.7326  -53.4767    9.1367 O.co2     1 UNL1       -0.5000
     15 O          -8.5169  -53.5833   11.0412 O.co2     1 UNL1       -0.5000
     16 H          -9.6203  -59.9052    7.9809 H         1 UNL1        0.0000
     17 H         -10.0658  -58.4765    8.8837 H         1 UNL1        0.0000
     18 H         -11.2814  -59.3619    7.9939 H         1 UNL1        0.0000
     19 H         -10.9822  -61.2645    9.4660 H         1 UNL1        0.0000
     20 H          -9.0553  -59.5268   10.9205 H         1 UNL1        0.0000
     21 H          -8.6595  -60.9489    9.9861 H         1 UNL1        0.0000
     22 H          -9.6211  -61.0970   11.4375 H         1 UNL1        0.0000
     23 H         -11.7407  -60.0995   11.5801 H         1 UNL1        0.0000
     24 H         -12.6691  -59.7960   10.1167 H         1 UNL1        0.0000
     25 H         -13.4150  -57.7020   10.0899 H         1 UNL1        0.0000
     26 H         -13.1155  -55.3412   10.2919 H         1 UNL1        0.0000
     27 H          -9.2259  -55.9377   11.6490 H         1 UNL1        0.0000
     28 H          -9.5302  -58.3160   11.4436 H         1 UNL1        0.0000
     29 H         -11.7699  -53.4560   10.7352 H         1 UNL1        0.0000
     30 H          -9.9322  -54.2113   12.9940 H         1 UNL1        0.0000
     31 H         -11.6508  -53.9265   13.1315 H         1 UNL1        0.0000
     32 H         -10.5802  -52.6150   12.6984 H         1 UNL1        0.0000
@<TRIPOS>BOND
     1    1   17 1
     2    1    2 1
     3    1   16 1
     4    1   18 1
     5    2   19 1
     6    2    3 1
     7    2    4 1
     8    3   21 1
     9    3   22 1
    10    3   20 1
    11    4    5 1
    12    4   24 1
    13    4   23 1
    14    5    6 ar
    15    5   10 ar
    16    6    7 ar
    17    6   25 1
    18    7   26 1
    19    7    8 ar
    20    8    9 ar
    21    8   11 1
    22    9   10 ar
    23    9   27 1
    24   10   28 1
    25   11   29 1
    26   11   12 1
    27   11   13 1
    28   12   30 1
    29   12   31 1
    30   12   32 1
    31   13   15 ar
    32   13   14 ar
@<TRIPOS>SUBSTRUCTURE
1 UNL1 1
@<TRIPOS>COMMENT
ibuprofen
PLANTSproteinTorsions
102
4661 60.8136
5386 30.4618
6210 115.2654
5890 38.3224
4461 189.4596
1390 83.7834
2824 201.0418
4339 72.2185
2732 122.2442
4792 112.0636
3407 24.6408
5134 107.1969
6916 104.4385
7370 351.4515
6038 314.7151
7225 201.0536
3592 330.5670
2064 320.2938
2488 169.9913
1253 306.4981
2069 7.1625
2569 354.8660
3058 347.1188
1748 272.3555
1162 339.3561
1509 328.7894
560 265.7076
1627 22.2029
1941 338.7881
3631 195.2188
2381 50.1827
4221 3.6559
4687 165.1232
6983 70.1283
6668 148.4502
7305 65.8073
8693 292.3892
8404 301.1378
9055 166.1310
7052 161.3971
4708 347.8199
2652 303.6070
4332 159.4456
3011 178.9706
2257 197.6772
2778 88.0601
2057 338.3008
192 70.1300
315 278.7477
1085 184.3316
1007 103.5530
1407 196.0181
4816 253.4589
3131 2.2893
4654 138.9646
5144 254.2717
117 50.3845
6 77.2622
259 246.9796
1979 18.0285
2609 218.5806
2623 81.7025
5910 29.4842
5937 276.4173
2062 80.2985
890 161.9868
5008 179.3454
8602 356.2022
8478 168.6316
8300 168.3270
7721 35.2922
8466 215.9826
7852 186.7417
5849 108.6387
6302 96.2978
7439 220.5819
6284 157.8499
6003 18.5297
7165 145.9978
7623 37.5840
8158 145.0506
8667 172.1721
9078 315.3964
8684 180.0297
7666 342.6515
4231 194.0674
1659 282.9232
489 337.3842
238 93.1922
46 291.7936
83 185.9699
254 217.9684
1066 287.4562
2112 66.0562
4047 132.5567
5402 267.0710
2544 91.2280
4670 143.6134
4426 192.7372
5656 187.0502
7040 18.4979
6282 270.2042
PLANTSmolcadARTstart hb
PLANTSmolcadARTstart HB
LINES
PLANTSmolcadARTstart HBCH
LINES
-9.73258 -53.4767 9.13669 -11.0383 -54.2213 8.23657 255 0 0 5
PLANTSmolcadARTstart HB-CHO
LINES
PLANTSmolcadARTend
PLANTSmolcadARTstart HB_WATER
LINES
PLANTSmolcadARTend

PLANTSmolcadARTend

