@<TRIPOS>MOLECULE
ibuprofen_entry_00001_conf_10
32 32 1
SMALL
NO_CHARGES


@<TRIPOS>ATOM
      1 C         -13.2699  -62.1666    1.1357 C.3       1 UNL1        0.0000
      2 C         -13.0424  -60.6945    1.3131 C.3       1 UNL1        0.0000
      3 C         -11.7016  -60.2958    0.7842 C.3       1 UNL1        0.0000
      4 C         -14.1345  -59.9380    0.6099 C.3       1 UNL1        0.0000
      5 C         -14.0557  -58.4861    0.9031 C.ar      1 UNL1        0.0000
      6 C         -14.8204  -57.6215    0.1548 C.ar      1 UNL1        0.0000
      7 C         -14.7798  -56.2768    0.3892 C.ar      1 UNL1        0.0000
      8 C         -13.9744  -55.7640    1.3766 C.ar      1 UNL1        0.0000
      9 C         -13.2072  -56.6172    2.1302 C.ar      1 UNL1        0.0000
     10 C         -13.2498  -57.9742    1.8913 C.ar      1 UNL1        0.0000
     11 C         -13.9117  -54.3184    1.6504 C.3       1 UNL1        0.0000
     12 C         -15.1489  -53.6435    1.0588 C.3       1 UNL1        0.0000
     13 C         -13.8940  -54.1502    3.1332 C.2       1 UNL1        0.0000
     14 O         -14.9435  -54.1964    3.7912 O.co2     1 UNL1       -0.5000
     15 O         -12.6960  -53.9434    3.7553 O.co2     1 UNL1       -0.5000
     16 H         -12.4939  -62.7097    1.6350 H         1 UNL1        0.0000
     17 H         -13.2587  -62.4064    0.0930 H         1 UNL1        0.0000
     18 H         -14.2178  -62.4333    1.5536 H         1 UNL1        0.0000
     19 H         -13.0625  -60.4591    2.3561 H         1 UNL1        0.0000
     20 H         -11.6502  -60.5195   -0.2611 H         1 UNL1        0.0000
     21 H         -10.9385  -60.8378    1.3022 H         1 UNL1        0.0000
     22 H         -11.5568  -59.2461    0.9316 H         1 UNL1        0.0000
     23 H         -15.0829  -60.3092    0.9366 H         1 UNL1        0.0000
     24 H         -14.0179  -60.0774   -0.4446 H         1 UNL1        0.0000
     25 H         -15.4299  -57.9923   -0.5911 H         1 UNL1        0.0000
     26 H         -15.3594  -55.6406   -0.1810 H         1 UNL1        0.0000
     27 H         -12.5988  -56.2435    2.8756 H         1 UNL1        0.0000
     28 H         -12.6712  -58.6125    2.4595 H         1 UNL1        0.0000
     29 H         -13.0402  -53.8752    1.2151 H         1 UNL1        0.0000
     30 H         -16.0296  -54.0771    1.4850 H         1 UNL1        0.0000
     31 H         -15.1589  -53.7861   -0.0019 H         1 UNL1        0.0000
     32 H         -15.1231  -52.5969    1.2780 H         1 UNL1        0.0000
@<TRIPOS>BOND
     1    1   17 1
     2    1    2 1
     3    1   16 1
     4    1   18 1
     5    2   19 1
     6    2    3 1
     7    2    4 1
     8    3   21 1
     9    3   22 1
    10    3   20 1
    11    4    5 1
    12    4   24 1
    13    4   23 1
    14    5    6 ar
    15    5   10 ar
    16    6    7 ar
    17    6   25 1
    18    7   26 1
    19    7    8 ar
    20    8    9 ar
    21    8   11 1
    22    9   10 ar
    23    9   27 1
    24   10   28 1
    25   11   29 1
    26   11   12 1
    27   11   13 1
    28   12   30 1
    29   12   31 1
    30   12   32 1
    31   13   15 ar
    32   13   14 ar
@<TRIPOS>SUBSTRUCTURE
1 UNL1 1
@<TRIPOS>COMMENT
ibuprofen
PLANTSproteinTorsions
102
4661 222.6250
5386 163.8439
6210 97.7655
5890 168.0672
4461 250.5396
1390 32.1515
2824 189.2540
4339 9.4563
2732 335.0333
4792 83.7695
3407 27.6997
5134 131.6168
6916 24.6737
7370 190.7135
6038 223.2080
7225 336.9908
3592 1.2437
2064 76.7237
2488 99.0115
1253 317.8513
2069 29.0402
2569 78.7906
3058 137.2576
1748 27.7540
1162 75.1604
1509 22.0382
560 64.4848
1627 39.3909
1941 114.3228
3631 90.2176
2381 128.3233
4221 54.9082
4687 202.4908
6983 129.9509
6668 92.4706
7305 125.1622
8693 342.3815
8404 15.3525
9055 65.9756
7052 161.3535
4708 209.0097
2652 80.1172
4332 179.7297
3011 69.0292
2257 114.4114
2778 100.4892
2057 97.1270
192 111.0044
315 166.0695
1085 138.4683
1007 136.5975
1407 88.6791
4816 65.8349
3131 333.2989
4654 5.1708
5144 224.8354
117 41.2130
6 61.1241
259 329.8125
1979 165.3015
2609 15.0184
2623 20.5282
5910 283.6000
5937 344.0231
2062 35.1246
890 77.7898
5008 259.4451
8602 40.7521
8478 236.1884
8300 225.9123
7721 54.6172
8466 187.7893
7852 251.5833
5849 82.9465
6302 141.0320
7439 136.0261
6284 305.4405
6003 26.1699
7165 226.7398
7623 194.2053
8158 215.2147
8667 58.0789
9078 323.6107
8684 94.0377
7666 18.8543
4231 212.1063
1659 164.0583
489 225.5913
238 264.2616
46 215.1930
83 126.6558
254 171.1531
1066 76.0709
2112 117.4274
4047 267.1961
5402 270.3181
2544 318.1412
4670 275.8932
4426 274.0781
5656 268.7719
7040 62.0216
6282 124.0181
PLANTSmolcadARTstart hb
PLANTSmolcadARTstart HB
LINES
PLANTSmolcadARTstart HBCH
LINES
PLANTSmolcadARTstart HB-CHO
LINES
PLANTSmolcadARTend
PLANTSmolcadARTstart HB_WATER
LINES
PLANTSmolcadARTend

PLANTSmolcadARTend

