@<TRIPOS>MOLECULE
ibuprofen_entry_00001_conf_08
32 32 1
SMALL
NO_CHARGES


@<TRIPOS>ATOM
      1 C          -2.7065  -67.3154    4.1342 C.3       1 UNL1        0.0000
      2 C          -2.8799  -65.9320    4.6877 C.3       1 UNL1        0.0000
      3 C          -2.2076  -65.8028    6.0173 C.3       1 UNL1        0.0000
      4 C          -2.3180  -64.9359    3.7122 C.3       1 UNL1        0.0000
      5 C          -2.7077  -63.5514    4.0750 C.ar      1 UNL1        0.0000
      6 C          -1.7204  -62.6018    4.2005 C.ar      1 UNL1        0.0000
      7 C          -2.0324  -61.3147    4.5331 C.ar      1 UNL1        0.0000
      8 C          -3.3378  -60.9456    4.7483 C.ar      1 UNL1        0.0000
      9 C          -4.3317  -61.8847    4.6254 C.ar      1 UNL1        0.0000
     10 C          -4.0140  -63.1834    4.2898 C.ar      1 UNL1        0.0000
     11 C          -3.7019  -59.5648    5.1080 C.3       1 UNL1        0.0000
     12 C          -4.8799  -59.5960    6.0814 C.3       1 UNL1        0.0000
     13 C          -2.5100  -58.9502    5.7629 C.2       1 UNL1        0.0000
     14 O          -2.0171  -57.8988    5.3290 O.co2     1 UNL1       -0.5000
     15 O          -1.9693  -59.5691    6.8535 O.co2     1 UNL1       -0.5000
     16 H          -3.1053  -68.0285    4.8262 H         1 UNL1        0.0000
     17 H          -1.6657  -67.5107    3.9810 H         1 UNL1        0.0000
     18 H          -3.2257  -67.3936    3.2023 H         1 UNL1        0.0000
     19 H          -3.9219  -65.7391    4.8314 H         1 UNL1        0.0000
     20 H          -1.1598  -65.9907    5.9064 H         1 UNL1        0.0000
     21 H          -2.6265  -66.5130    6.6990 H         1 UNL1        0.0000
     22 H          -2.3540  -64.8136    6.3974 H         1 UNL1        0.0000
     23 H          -2.6888  -65.1580    2.7337 H         1 UNL1        0.0000
     24 H          -1.2505  -65.0045    3.7355 H         1 UNL1        0.0000
     25 H          -0.7349  -62.8646    4.0425 H         1 UNL1        0.0000
     26 H          -1.2803  -60.6133    4.6238 H         1 UNL1        0.0000
     27 H          -5.3164  -61.6188    4.7837 H         1 UNL1        0.0000
     28 H          -4.7638  -63.8867    4.1988 H         1 UNL1        0.0000
     29 H          -3.9865  -58.9981    4.2459 H         1 UNL1        0.0000
     30 H          -4.6099  -60.1604    6.9497 H         1 UNL1        0.0000
     31 H          -5.7221  -60.0543    5.6061 H         1 UNL1        0.0000
     32 H          -5.1319  -58.5968    6.3682 H         1 UNL1        0.0000
@<TRIPOS>BOND
     1    1   17 1
     2    1    2 1
     3    1   16 1
     4    1   18 1
     5    2   19 1
     6    2    3 1
     7    2    4 1
     8    3   21 1
     9    3   22 1
    10    3   20 1
    11    4    5 1
    12    4   24 1
    13    4   23 1
    14    5    6 ar
    15    5   10 ar
    16    6    7 ar
    17    6   25 1
    18    7   26 1
    19    7    8 ar
    20    8    9 ar
    21    8   11 1
    22    9   10 ar
    23    9   27 1
    24   10   28 1
    25   11   29 1
    26   11   12 1
    27   11   13 1
    28   12   30 1
    29   12   31 1
    30   12   32 1
    31   13   15 ar
    32   13   14 ar
@<TRIPOS>SUBSTRUCTURE
1 UNL1 1
@<TRIPOS>COMMENT
ibuprofen
PLANTSproteinTorsions
102
4661 319.4572
5386 157.9595
6210 68.4077
5890 112.6078
4461 36.0725
1390 173.1692
2824 299.4980
4339 67.1346
2732 104.8251
4792 65.2295
3407 159.4126
5134 305.9667
6916 316.6754
7370 60.7885
6038 136.9017
7225 285.5296
3592 98.2948
2064 283.6183
2488 70.5433
1253 165.5949
2069 226.2008
2569 73.8063
3058 121.1448
1748 210.9848
1162 283.3522
1509 52.3219
560 147.7984
1627 75.8960
1941 71.2655
3631 15.9081
2381 205.2906
4221 29.5717
4687 159.1886
6983 54.7575
6668 292.9969
7305 243.7747
8693 218.5592
8404 356.8321
9055 222.3437
7052 107.8168
4708 57.3534
2652 165.6409
4332 190.7734
3011 113.7692
2257 35.4767
2778 290.7049
2057 314.6856
192 194.5951
315 330.6518
1085 95.6886
1007 350.2600
1407 314.6671
4816 128.5790
3131 27.4866
4654 191.5953
5144 74.2446
117 147.2790
6 14.5613
259 292.8875
1979 133.2402
2609 21.1795
2623 133.7104
5910 100.4836
5937 283.0892
2062 73.1862
890 59.7873
5008 189.1390
8602 178.5648
8478 121.2032
8300 213.1587
7721 209.5262
8466 163.4054
7852 269.7947
5849 39.1829
6302 281.8838
7439 60.6202
6284 94.7721
6003 306.2021
7165 205.2001
7623 52.3357
8158 46.4007
8667 107.4161
9078 186.7492
8684 156.2488
7666 116.5487
4231 148.8374
1659 79.4483
489 25.5271
238 208.7237
46 103.3745
83 194.7547
254 184.5280
1066 154.7572
2112 69.1236
4047 300.5821
5402 250.0586
2544 146.3081
4670 196.2401
4426 275.8584
5656 138.5497
7040 72.0767
6282 298.7207
PLANTSmolcadARTstart hb
PLANTSmolcadARTstart HB
LINES
-2.01713 -57.8988 5.32899 -2.63 -56.738 3.648 0 255 0 5
PLANTSmolcadARTstart HBCH
LINES
PLANTSmolcadARTstart HB-CHO
LINES
PLANTSmolcadARTend
PLANTSmolcadARTstart HB_WATER
LINES
PLANTSmolcadARTend

PLANTSmolcadARTend

