@<TRIPOS>MOLECULE
ibuprofen_entry_00001_conf_60
32 32 1
SMALL
NO_CHARGES


@<TRIPOS>ATOM
      1 C           0.7619  -56.2175   -5.0758 C.3       1 UNL1        0.0000
      2 C           0.8209  -56.2630   -6.5739 C.3       1 UNL1        0.0000
      3 C           2.1223  -56.8353   -7.0380 C.3       1 UNL1        0.0000
      4 C          -0.3300  -57.0816   -7.0887 C.3       1 UNL1        0.0000
      5 C          -0.2171  -58.4964   -6.6576 C.ar      1 UNL1        0.0000
      6 C           0.2205  -59.4288   -7.5694 C.ar      1 UNL1        0.0000
      7 C           0.3397  -60.7427   -7.2171 C.ar      1 UNL1        0.0000
      8 C           0.0246  -61.1563   -5.9458 C.ar      1 UNL1        0.0000
      9 C          -0.4127  -60.2347   -5.0272 C.ar      1 UNL1        0.0000
     10 C          -0.5325  -58.9089   -5.3855 C.ar      1 UNL1        0.0000
     11 C           0.1440  -62.5668   -5.5396 C.3       1 UNL1        0.0000
     12 C          -1.0069  -63.3630   -6.1540 C.3       1 UNL1        0.0000
     13 C           1.4504  -63.0670   -6.0597 C.2       1 UNL1        0.0000
     14 O           2.4543  -62.3399   -6.0629 O.co2     1 UNL1       -0.5000
     15 O           1.5208  -64.3455   -6.5343 O.co2     1 UNL1       -0.5000
     16 H           1.5803  -55.6354   -4.7046 H         1 UNL1        0.0000
     17 H           0.8256  -57.2117   -4.6856 H         1 UNL1        0.0000
     18 H          -0.1610  -55.7718   -4.7692 H         1 UNL1        0.0000
     19 H           0.7488  -55.2679   -6.9589 H         1 UNL1        0.0000
     20 H           2.2243  -57.8343   -6.6678 H         1 UNL1        0.0000
     21 H           2.9273  -56.2350   -6.6692 H         1 UNL1        0.0000
     22 H           2.1465  -56.8472   -8.1075 H         1 UNL1        0.0000
     23 H          -0.3365  -57.0417   -8.1576 H         1 UNL1        0.0000
     24 H          -1.2374  -56.6776   -6.6908 H         1 UNL1        0.0000
     25 H           0.4603  -59.1328   -8.5287 H         1 UNL1        0.0000
     26 H           0.6693  -61.4308   -7.9127 H         1 UNL1        0.0000
     27 H          -0.6515  -60.5336   -4.0685 H         1 UNL1        0.0000
     28 H          -0.8620  -58.2190   -4.6923 H         1 UNL1        0.0000
     29 H           0.1021  -62.6723   -4.4754 H         1 UNL1        0.0000
     30 H          -0.9781  -63.2667   -7.2194 H         1 UNL1        0.0000
     31 H          -1.9378  -62.9836   -5.7868 H         1 UNL1        0.0000
     32 H          -0.9106  -64.3939   -5.8851 H         1 UNL1        0.0000
@<TRIPOS>BOND
     1    1   17 1
     2    1    2 1
     3    1   16 1
     4    1   18 1
     5    2   19 1
     6    2    3 1
     7    2    4 1
     8    3   21 1
     9    3   22 1
    10    3   20 1
    11    4    5 1
    12    4   24 1
    13    4   23 1
    14    5    6 ar
    15    5   10 ar
    16    6    7 ar
    17    6   25 1
    18    7   26 1
    19    7    8 ar
    20    8    9 ar
    21    8   11 1
    22    9   10 ar
    23    9   27 1
    24   10   28 1
    25   11   29 1
    26   11   12 1
    27   11   13 1
    28   12   30 1
    29   12   31 1
    30   12   32 1
    31   13   15 ar
    32   13   14 ar
@<TRIPOS>SUBSTRUCTURE
1 UNL1 1
@<TRIPOS>COMMENT
ibuprofen
PLANTSproteinTorsions
102
4661 203.0151
5386 86.5202
6210 307.8586
5890 79.4952
4461 217.2780
1390 88.6193
2824 138.2947
4339 145.4443
2732 17.3208
4792 142.6618
3407 230.3441
5134 67.0149
6916 96.7214
7370 163.9713
6038 328.7686
7225 101.9315
3592 193.2892
2064 207.7137
2488 122.6562
1253 120.4099
2069 158.6909
2569 18.2124
3058 72.0305
1748 303.5146
1162 78.6447
1509 118.0388
560 231.9324
1627 293.2076
1941 330.3380
3631 183.9975
2381 91.1716
4221 13.1276
4687 177.0143
6983 143.5605
6668 100.6372
7305 253.3542
8693 50.5313
8404 108.8042
9055 137.0107
7052 240.4446
4708 237.4228
2652 44.4021
4332 237.2819
3011 104.8650
2257 242.8108
2778 128.3833
2057 185.0685
192 157.3699
315 40.3914
1085 62.8840
1007 223.6370
1407 18.4653
4816 247.4207
3131 183.5723
4654 243.6882
5144 282.5809
117 181.0928
6 88.4473
259 138.4333
1979 82.3035
2609 164.3769
2623 56.8932
5910 133.6120
5937 6.9123
2062 0.8907
890 350.5319
5008 80.5583
8602 72.9440
8478 5.1163
8300 19.8858
7721 190.3113
8466 291.3287
7852 95.5613
5849 15.3587
6302 158.8015
7439 51.3485
6284 334.5010
6003 82.8561
7165 211.5764
7623 299.0413
8158 280.4750
8667 295.2034
9078 122.9558
8684 149.5918
7666 208.6318
4231 103.5476
1659 250.1609
489 163.4306
238 160.9800
46 174.2705
83 155.8189
254 199.9747
1066 279.7394
2112 233.2078
4047 270.7347
5402 292.3503
2544 268.0750
4670 158.7753
4426 299.3987
5656 169.1031
7040 246.3954
6282 227.0061
PLANTSmolcadARTstart hb
PLANTSmolcadARTstart HB
LINES
PLANTSmolcadARTstart HBCH
LINES
1.52076 -64.3455 -6.53431 0.929 -66.017 -5.409 255 0 0 5
1.52076 -64.3455 -6.53431 0.83 -65.976 -7.664 255 0 0 5
PLANTSmolcadARTstart HB-CHO
LINES
PLANTSmolcadARTend
PLANTSmolcadARTstart HB_WATER
LINES
PLANTSmolcadARTend

PLANTSmolcadARTend

