@<TRIPOS>MOLECULE
ibuprofen_entry_00001_conf_22
32 32 1
SMALL
NO_CHARGES


@<TRIPOS>ATOM
      1 C         -40.2855  -65.3823    6.6162 C.3       1 UNL1        0.0000
      2 C         -39.9654  -63.9195    6.7040 C.3       1 UNL1        0.0000
      3 C         -38.5440  -63.7099    7.1187 C.3       1 UNL1        0.0000
      4 C         -40.2276  -63.2758    5.3712 C.3       1 UNL1        0.0000
      5 C         -39.9795  -61.8144    5.4233 C.ar      1 UNL1        0.0000
      6 C         -39.4146  -61.2037    4.3277 C.ar      1 UNL1        0.0000
      7 C         -39.1678  -59.8606    4.3309 C.ar      1 UNL1        0.0000
      8 C         -39.4795  -59.0958    5.4284 C.ar      1 UNL1        0.0000
      9 C         -40.0442  -59.6942    6.5273 C.ar      1 UNL1        0.0000
     10 C         -40.2919  -61.0503    6.5217 C.ar      1 UNL1        0.0000
     11 C         -39.2241  -57.6458    5.4583 C.3       1 UNL1        0.0000
     12 C         -37.9028  -57.3563    4.7466 C.3       1 UNL1        0.0000
     13 C         -40.3515  -56.9839    4.7383 C.2       1 UNL1        0.0000
     14 O         -40.7740  -57.4371    3.6647 O.co2     1 UNL1       -0.5000
     15 O         -40.9118  -55.8652    5.2853 O.co2     1 UNL1       -0.5000
     16 H         -40.0999  -65.8451    7.5637 H         1 UNL1        0.0000
     17 H         -39.6692  -65.8384    5.8698 H         1 UNL1        0.0000
     18 H         -41.3151  -65.5064    6.3540 H         1 UNL1        0.0000
     19 H         -40.5894  -63.4672    7.4454 H         1 UNL1        0.0000
     20 H         -37.8925  -64.1527    6.3943 H         1 UNL1        0.0000
     21 H         -38.3797  -64.1670    8.0719 H         1 UNL1        0.0000
     22 H         -38.3421  -62.6614    7.1860 H         1 UNL1        0.0000
     23 H         -41.2467  -63.4474    5.0949 H         1 UNL1        0.0000
     24 H         -39.5640  -63.7066    4.6509 H         1 UNL1        0.0000
     25 H         -39.1743  -61.7658    3.4960 H         1 UNL1        0.0000
     26 H         -38.7431  -59.4168    3.5012 H         1 UNL1        0.0000
     27 H         -40.2836  -59.1295    7.3575 H         1 UNL1        0.0000
     28 H         -40.7161  -61.4967    7.3499 H         1 UNL1        0.0000
     29 H         -39.1582  -57.2808    6.4622 H         1 UNL1        0.0000
     30 H         -37.9536  -57.7164    3.7402 H         1 UNL1        0.0000
     31 H         -37.1054  -57.8503    5.2621 H         1 UNL1        0.0000
     32 H         -37.7247  -56.3016    4.7408 H         1 UNL1        0.0000
@<TRIPOS>BOND
     1    1   17 1
     2    1    2 1
     3    1   16 1
     4    1   18 1
     5    2   19 1
     6    2    3 1
     7    2    4 1
     8    3   21 1
     9    3   22 1
    10    3   20 1
    11    4    5 1
    12    4   24 1
    13    4   23 1
    14    5    6 ar
    15    5   10 ar
    16    6    7 ar
    17    6   25 1
    18    7   26 1
    19    7    8 ar
    20    8    9 ar
    21    8   11 1
    22    9   10 ar
    23    9   27 1
    24   10   28 1
    25   11   29 1
    26   11   12 1
    27   11   13 1
    28   12   30 1
    29   12   31 1
    30   12   32 1
    31   13   15 ar
    32   13   14 ar
@<TRIPOS>SUBSTRUCTURE
1 UNL1 1
@<TRIPOS>COMMENT
ibuprofen
PLANTSproteinTorsions
102
4661 33.6839
5386 358.0789
6210 25.5461
5890 56.8175
4461 312.7247
1390 40.1873
2824 70.1729
4339 98.7864
2732 27.3100
4792 74.9634
3407 105.1537
5134 188.4446
6916 168.5255
7370 14.3404
6038 186.8118
7225 109.2176
3592 154.0265
2064 166.0605
2488 151.5081
1253 55.4426
2069 111.0889
2569 342.5895
3058 60.8030
1748 10.0094
1162 140.9119
1509 118.7558
560 184.4258
1627 112.1165
1941 231.3909
3631 53.8234
2381 152.9893
4221 45.3103
4687 93.6084
6983 7.6837
6668 347.9599
7305 13.9634
8693 256.1845
8404 219.7545
9055 301.1754
7052 129.8076
4708 257.2161
2652 127.1855
4332 201.8578
3011 239.8163
2257 24.6959
2778 32.6317
2057 40.2456
192 144.7256
315 316.7803
1085 116.0197
1007 137.9710
1407 175.3550
4816 139.6571
3131 96.0531
4654 307.6234
5144 218.6844
117 268.7971
6 227.0103
259 324.0834
1979 127.7008
2609 286.6800
2623 138.2249
5910 58.0834
5937 283.1231
2062 131.9344
890 179.1358
5008 78.1602
8602 282.6495
8478 43.1899
8300 101.9462
7721 242.1550
8466 95.0219
7852 225.8820
5849 194.6845
6302 259.0405
7439 257.5192
6284 202.5210
6003 62.0795
7165 266.0835
7623 82.6025
8158 158.8921
8667 46.2816
9078 203.5195
8684 227.6433
7666 128.2994
4231 323.5655
1659 217.8816
489 118.8948
238 137.3920
46 247.9324
83 322.6006
254 175.6245
1066 141.2626
2112 165.3575
4047 44.2736
5402 33.8994
2544 21.5980
4670 96.2960
4426 169.8217
5656 70.5314
7040 43.5145
6282 179.1047
PLANTSmolcadARTstart hb
PLANTSmolcadARTstart HB
LINES
-40.9118 -55.8652 5.28535 -41.4432 -54.9282 3.77741 0 255 0 5
PLANTSmolcadARTstart HBCH
LINES
PLANTSmolcadARTstart HB-CHO
LINES
PLANTSmolcadARTend
PLANTSmolcadARTstart HB_WATER
LINES
PLANTSmolcadARTend

PLANTSmolcadARTend

