@<TRIPOS>MOLECULE
ibuprofen_entry_00001_conf_46
32 32 1
SMALL
NO_CHARGES


@<TRIPOS>ATOM
      1 C         -13.2398  -66.1734   -0.8305 C.3       1 UNL1        0.0000
      2 C         -13.6845  -64.7409   -0.8082 C.3       1 UNL1        0.0000
      3 C         -15.1037  -64.6173   -1.2631 C.3       1 UNL1        0.0000
      4 C         -13.5263  -64.1965    0.5839 C.3       1 UNL1        0.0000
      5 C         -13.5540  -62.7134    0.5862 C.ar      1 UNL1        0.0000
      6 C         -12.3593  -62.0334    0.6347 C.ar      1 UNL1        0.0000
      7 C         -12.3364  -60.6680    0.6389 C.ar      1 UNL1        0.0000
      8 C         -13.5063  -59.9497    0.5948 C.ar      1 UNL1        0.0000
      9 C         -14.7047  -60.6176    0.5457 C.ar      1 UNL1        0.0000
     10 C         -14.7250  -61.9959    0.5419 C.ar      1 UNL1        0.0000
     11 C         -13.5103  -58.4771    0.5982 C.3       1 UNL1        0.0000
     12 C         -14.8626  -57.9821    1.1103 C.3       1 UNL1        0.0000
     13 C         -12.4198  -58.0347    1.5162 C.2       1 UNL1        0.0000
     14 O         -12.6811  -57.4794    2.5932 O.co2     1 UNL1       -0.5000
     15 O         -11.1233  -58.2533    1.1473 O.co2     1 UNL1       -0.5000
     16 H         -13.3510  -66.5655   -1.8205 H         1 UNL1        0.0000
     17 H         -13.8389  -66.7437   -0.1517 H         1 UNL1        0.0000
     18 H         -12.2130  -66.2320   -0.5367 H         1 UNL1        0.0000
     19 H         -13.0776  -64.1741   -1.4820 H         1 UNL1        0.0000
     20 H         -15.7382  -65.1756   -0.6066 H         1 UNL1        0.0000
     21 H         -15.1940  -65.0015   -2.2575 H         1 UNL1        0.0000
     22 H         -15.3949  -63.5879   -1.2502 H         1 UNL1        0.0000
     23 H         -12.5920  -64.5289    0.9849 H         1 UNL1        0.0000
     24 H         -14.3404  -64.5514    1.1807 H         1 UNL1        0.0000
     25 H         -11.4721  -62.5597    0.6689 H         1 UNL1        0.0000
     26 H         -11.4318  -60.1718    0.6758 H         1 UNL1        0.0000
     27 H         -15.5903  -60.0885    0.5113 H         1 UNL1        0.0000
     28 H         -15.6279  -62.4945    0.5054 H         1 UNL1        0.0000
     29 H         -13.3524  -58.0832   -0.3842 H         1 UNL1        0.0000
     30 H         -15.0348  -58.3687    2.0933 H         1 UNL1        0.0000
     31 H         -15.6371  -58.3203    0.4536 H         1 UNL1        0.0000
     32 H         -14.8625  -56.9129    1.1412 H         1 UNL1        0.0000
@<TRIPOS>BOND
     1    1   17 1
     2    1    2 1
     3    1   16 1
     4    1   18 1
     5    2   19 1
     6    2    3 1
     7    2    4 1
     8    3   21 1
     9    3   22 1
    10    3   20 1
    11    4    5 1
    12    4   24 1
    13    4   23 1
    14    5    6 ar
    15    5   10 ar
    16    6    7 ar
    17    6   25 1
    18    7   26 1
    19    7    8 ar
    20    8    9 ar
    21    8   11 1
    22    9   10 ar
    23    9   27 1
    24   10   28 1
    25   11   29 1
    26   11   12 1
    27   11   13 1
    28   12   30 1
    29   12   31 1
    30   12   32 1
    31   13   15 ar
    32   13   14 ar
@<TRIPOS>SUBSTRUCTURE
1 UNL1 1
@<TRIPOS>COMMENT
ibuprofen
PLANTSproteinTorsions
102
4661 12.5463
5386 4.5233
6210 92.7500
5890 354.3339
4461 358.1343
1390 50.0896
2824 68.6535
4339 16.2883
2732 125.7308
4792 53.3510
3407 234.7615
5134 147.8635
6916 224.3591
7370 31.1067
6038 218.8251
7225 198.0139
3592 231.7469
2064 252.6663
2488 155.4651
1253 272.1892
2069 227.2639
2569 23.9413
3058 267.6760
1748 168.7397
1162 95.6025
1509 25.5415
560 180.7335
1627 124.2141
1941 66.4388
3631 347.5042
2381 116.5276
4221 74.7287
4687 71.8410
6983 18.8101
6668 203.5256
7305 283.5509
8693 125.5775
8404 202.5914
9055 55.3454
7052 58.3051
4708 86.7178
2652 45.6370
4332 319.8120
3011 22.8864
2257 327.2220
2778 58.8597
2057 145.7247
192 64.3635
315 332.2593
1085 19.0575
1007 117.0208
1407 270.8591
4816 197.3595
3131 7.0958
4654 40.8634
5144 293.5383
117 105.6910
6 20.7267
259 26.9919
1979 74.4573
2609 200.3082
2623 26.4031
5910 170.8033
5937 88.5885
2062 145.0040
890 111.8814
5008 39.7200
8602 17.8466
8478 183.5700
8300 113.2330
7721 138.3638
8466 153.1060
7852 48.6204
5849 199.4731
6302 101.6806
7439 41.8993
6284 83.6301
6003 35.3894
7165 75.1327
7623 186.8780
8158 254.7581
8667 207.5219
9078 125.4730
8684 99.1526
7666 155.7432
4231 254.3675
1659 205.9813
489 107.9330
238 297.4997
46 186.3251
83 92.7630
254 160.6185
1066 104.2180
2112 149.2720
4047 228.1000
5402 283.8591
2544 133.8595
4670 289.3275
4426 59.9808
5656 172.5563
7040 119.4918
6282 199.6070
PLANTSmolcadARTstart hb
PLANTSmolcadARTstart HB
LINES
PLANTSmolcadARTstart HBCH
LINES
PLANTSmolcadARTstart HB-CHO
LINES
PLANTSmolcadARTend
PLANTSmolcadARTstart HB_WATER
LINES
PLANTSmolcadARTend

PLANTSmolcadARTend

