@<TRIPOS>MOLECULE
ibuprofen_entry_00001_conf_07
32 32 1
SMALL
NO_CHARGES


@<TRIPOS>ATOM
      1 C         -14.1513  -67.1394   -1.9565 C.3       1 UNL1        0.0000
      2 C         -14.2681  -65.6459   -2.0334 C.3       1 UNL1        0.0000
      3 C         -15.6705  -65.2069   -1.7557 C.3       1 UNL1        0.0000
      4 C         -13.3154  -65.0249   -1.0503 C.3       1 UNL1        0.0000
      5 C         -13.3595  -63.5440   -1.1229 C.ar      1 UNL1        0.0000
      6 C         -13.1972  -62.8236    0.0377 C.ar      1 UNL1        0.0000
      7 C         -13.2308  -61.4586    0.0187 C.ar      1 UNL1        0.0000
      8 C         -13.4272  -60.7810   -1.1598 C.ar      1 UNL1        0.0000
      9 C         -13.5898  -61.4893   -2.3244 C.ar      1 UNL1        0.0000
     10 C         -13.5558  -62.8673   -2.3025 C.ar      1 UNL1        0.0000
     11 C         -13.4676  -59.3097   -1.2084 C.3       1 UNL1        0.0000
     12 C         -14.4071  -58.8725   -2.3320 C.3       1 UNL1        0.0000
     13 C         -13.9875  -58.8384    0.1088 C.2       1 UNL1        0.0000
     14 O         -13.4619  -57.8805    0.6942 O.co2     1 UNL1       -0.5000
     15 O         -15.0570  -59.4839    0.6604 O.co2     1 UNL1       -0.5000
     16 H         -14.8285  -67.5861   -2.6552 H         1 UNL1        0.0000
     17 H         -14.3933  -67.4659   -0.9668 H         1 UNL1        0.0000
     18 H         -13.1499  -67.4309   -2.1941 H         1 UNL1        0.0000
     19 H         -14.0175  -65.3242   -3.0220 H         1 UNL1        0.0000
     20 H         -15.9516  -65.5150   -0.7701 H         1 UNL1        0.0000
     21 H         -16.3312  -65.6518   -2.4699 H         1 UNL1        0.0000
     22 H         -15.7324  -64.1413   -1.8273 H         1 UNL1        0.0000
     23 H         -12.3222  -65.3559   -1.2698 H         1 UNL1        0.0000
     24 H         -13.6034  -65.3245   -0.0644 H         1 UNL1        0.0000
     25 H         -13.0495  -63.3191    0.9309 H         1 UNL1        0.0000
     26 H         -13.1077  -60.9318    0.8980 H         1 UNL1        0.0000
     27 H         -13.7371  -60.9910   -3.2162 H         1 UNL1        0.0000
     28 H         -13.6789  -63.3964   -3.1799 H         1 UNL1        0.0000
     29 H         -12.4977  -58.8976   -1.3949 H         1 UNL1        0.0000
     30 H         -15.3824  -59.2778   -2.1592 H         1 UNL1        0.0000
     31 H         -14.0328  -59.2311   -3.2684 H         1 UNL1        0.0000
     32 H         -14.4623  -57.8045   -2.3551 H         1 UNL1        0.0000
@<TRIPOS>BOND
     1    1   17 1
     2    1    2 1
     3    1   16 1
     4    1   18 1
     5    2   19 1
     6    2    3 1
     7    2    4 1
     8    3   21 1
     9    3   22 1
    10    3   20 1
    11    4    5 1
    12    4   24 1
    13    4   23 1
    14    5    6 ar
    15    5   10 ar
    16    6    7 ar
    17    6   25 1
    18    7   26 1
    19    7    8 ar
    20    8    9 ar
    21    8   11 1
    22    9   10 ar
    23    9   27 1
    24   10   28 1
    25   11   29 1
    26   11   12 1
    27   11   13 1
    28   12   30 1
    29   12   31 1
    30   12   32 1
    31   13   15 ar
    32   13   14 ar
@<TRIPOS>SUBSTRUCTURE
1 UNL1 1
@<TRIPOS>COMMENT
ibuprofen
PLANTSproteinTorsions
102
4661 328.6867
5386 52.2359
6210 358.3462
5890 301.5427
4461 72.6011
1390 224.6925
2824 7.8211
4339 14.9323
2732 31.0218
4792 35.7306
3407 20.8924
5134 20.9783
6916 100.0638
7370 237.1475
6038 18.2294
7225 282.0488
3592 174.3922
2064 213.2421
2488 130.2515
1253 135.2640
2069 194.2893
2569 66.3043
3058 135.3215
1748 111.3420
1162 57.3644
1509 1.3879
560 195.4142
1627 304.6751
1941 66.4718
3631 22.5110
2381 66.5422
4221 106.9592
4687 126.9230
6983 185.9288
6668 348.1931
7305 291.1588
8693 198.9603
8404 68.9759
9055 79.9937
7052 220.0152
4708 41.0380
2652 207.0638
4332 180.0914
3011 28.0003
2257 248.0508
2778 342.7443
2057 245.0749
192 216.1169
315 98.1585
1085 106.2033
1007 293.2547
1407 211.2986
4816 57.3460
3131 79.3949
4654 211.2481
5144 325.0770
117 145.3728
6 94.4362
259 238.5015
1979 174.5506
2609 84.6165
2623 88.6836
5910 152.7516
5937 341.5503
2062 252.8887
890 14.9513
5008 279.9512
8602 193.0901
8478 203.1599
8300 74.2291
7721 44.2996
8466 257.3699
7852 259.4402
5849 32.5107
6302 177.5822
7439 233.6522
6284 159.7227
6003 184.7940
7165 275.4908
7623 78.8816
8158 233.9567
8667 251.0297
9078 170.1027
8684 162.1750
7666 73.2464
4231 153.3198
1659 52.3816
489 227.4550
238 182.5264
46 223.5989
83 234.6436
254 242.7161
1066 243.7881
2112 254.8355
4047 258.6818
5402 252.7122
2544 138.7079
4670 58.7001
4426 142.6636
5656 205.6748
7040 73.6468
6282 292.6675
PLANTSmolcadARTstart hb
PLANTSmolcadARTstart HB
LINES
-15.057 -59.4839 0.660364 -16.346 -59.843 1.833 0 255 0 5
PLANTSmolcadARTstart HBCH
LINES
PLANTSmolcadARTstart HB-CHO
LINES
PLANTSmolcadARTend
PLANTSmolcadARTstart HB_WATER
LINES
PLANTSmolcadARTend

PLANTSmolcadARTend

