@<TRIPOS>MOLECULE
ibuprofen_entry_00001_conf_62_protein
256 154 102
SMALL
NO_CHARGES


@<TRIPOS>ATOM
      1 H           1.1649  -84.2635    1.2154 H        28 GLY28      -0.0894
      2 N           1.9710  -83.9720    1.7370 N.4      28 GLY28       0.3838
      3 H2          2.3120  -83.1112    1.3500 H        28 GLY28      -0.0894
      4 H3          2.6849  -84.6717    1.6437 H        28 GLY28      -0.0894
      5 HG1        -4.7685  -77.7967    6.5249 H        31 THR31       0.2099
      6 OG1        -5.5490  -77.8520    5.8930 O.3      31 THR31      -0.3897
      7 HH         -3.9937  -67.4144    8.2241 H        38 TYR38       0.2921
      8 OH         -4.6290  -67.0170    8.8830 O.3      38 TYR38      -0.5068
      9 HH        -14.9560  -63.3475    8.2478 H        39 TYR39       0.2921
     10 OH        -15.2560  -63.1550    7.3150 O.3      39 TYR39      -0.5068
     11 HH         -2.6400  -58.5146    1.4223 H        55 TYR55       0.2921
     12 OH         -2.4450  -59.4310    1.7660 O.3      55 TYR55      -0.5068
     13 HG1        -8.7399  -53.7188  -12.2315 H        60 THR60       0.2099
     14 OG1        -8.4490  -52.9250  -11.6880 O.3      60 THR60      -0.3897
     15 HG1        -8.8795  -49.3604   -6.0621 H        62 THR62       0.2099
     16 OG1        -9.2280  -49.6990   -5.1820 O.3      62 THR62      -0.3897
     17 HH         -8.8523  -43.2839    1.7211 H        64 TYR64       0.2921
     18 OH         -9.5040  -43.9480    1.3590 O.3      64 TYR64      -0.5068
     19 HG         -1.4826  -46.4605   -5.4266 H        65 SER65       0.2095
     20 OG         -1.6780  -47.2380   -4.8310 O.3      65 SER65      -0.3927
     21 HG1        -1.9327  -50.5063    2.6813 H        70 THR70       0.2099
     22 OG1        -2.7710  -50.8080    2.2150 O.3      70 THR70      -0.3897
     23 HG1        -7.5297  -42.1618   -1.3394 H        76 THR76       0.2099
     24 OG1        -7.4980  -42.0730   -2.3400 O.3      76 THR76      -0.3897
     25 HG         -6.5957  -35.9199    3.0743 H        81 SER81       0.2095
     26 OG         -7.2260  -35.3370    3.5860 O.3      81 SER81      -0.3927
     27 HG        -17.7494  -40.0385   12.5798 H        85 SER85       0.2095
     28 OG        -18.4230  -39.3210   12.4060 O.3      85 SER85      -0.3927
     29 HG        -22.6084  -41.7947   13.6468 H        87 SER87       0.2095
     30 OG        -21.7540  -41.4260   14.0100 O.3      87 SER87      -0.3927
     31 HG1       -21.5277  -37.1844    7.8078 H        89 THR89       0.2099
     32 OG1       -21.9430  -36.3830    7.3650 O.3      89 THR89      -0.3897
     33 HG1       -29.1976  -33.4840   13.4219 H        94 THR94       0.2099
     34 OG1       -29.7610  -34.2720   13.6920 O.3      94 THR94      -0.3897
     35 HG1       -32.3211  -22.3251   -0.4965 H       106 THR106      0.2099
     36 OG1       -31.9840  -22.2340   -1.4400 O.3     106 THR106     -0.3897
     37 HG1       -26.1131  -37.0950   -7.6797 H       118 THR118      0.2099
     38 OG1       -25.4270  -37.7120   -8.0780 O.3     118 THR118     -0.3897
     39 HG        -28.6192  -43.5854   -6.6789 H       121 SER121      0.2095
     40 OG        -28.0170  -43.6970   -5.8890 O.3     121 SER121     -0.3927
     41 HG        -21.7169  -49.8878  -13.4763 H       126 SER126      0.2095
     42 OG        -21.9940  -50.0310  -12.5270 O.3     126 SER126     -0.3927
     43 HG1       -21.4180  -58.1451   -6.1810 H       129 THR129      0.2099
     44 OG1       -21.5190  -57.3710   -6.8150 O.3     129 THR129     -0.3897
     45 HH        -16.8567  -57.9144   -6.6851 H       130 TYR130      0.2921
     46 OH        -16.7630  -58.6500   -6.0170 O.3     130 TYR130     -0.5068
     47 HG        -27.7407  -67.3191   -5.0923 H       132 SER132      0.2095
     48 OG        -28.2430  -67.4690   -4.2420 O.3     132 SER132     -0.3927
     49 HH        -17.8112  -70.3278  -10.3867 H       136 TYR136      0.2921
     50 OH        -18.4010  -69.8190   -9.7630 O.3     136 TYR136     -0.5068
     51 HG        -22.5476  -65.1411  -12.7632 H       138 SER138      0.2095
     52 OG        -21.7000  -65.3460  -12.2760 O.3     138 SER138     -0.3927
     53 HG        -23.6829  -61.5004  -10.3142 H       141 SER141      0.2095
     54 OG        -24.2850  -62.2830  -10.1630 O.3     141 SER141     -0.3927
     55 HG        -28.3290  -65.2738  -16.3016 H       143 SER143      0.2095
     56 OG        -27.8490  -64.9650  -17.1220 O.3     143 SER143     -0.3927
     57 HG        -36.1138  -66.6795   -8.9977 H       146 SER146      0.2095
     58 OG        -35.5350  -67.3800   -9.4140 O.3     146 SER146     -0.3927
     59 HH        -27.9379  -70.5842   -9.5977 H       147 TYR147      0.2921
     60 OH        -28.4260  -70.4670   -8.7350 O.3     147 TYR147     -0.5068
     61 HH        -36.7255  -60.7825   -1.8572 H       148 TYR148      0.2921
     62 OH        -36.4560  -61.7190   -1.6440 O.3     148 TYR148     -0.5068
     63 HG1       -26.0165  -57.8819   -6.7796 H       149 THR149      0.2099
     64 OG1       -26.1570  -58.8760   -6.7210 O.3     149 THR149     -0.3897
     65 HG        -19.1993  -67.2341    0.2803 H       154 SER154      0.2095
     66 OG        -20.0840  -66.8360    0.0410 O.3     154 SER154     -0.3927
     67 HZ1       -22.1532  -73.4842    1.2948 H       157 LYS157     -0.0901
     68 NZ        -21.3030  -73.3640    1.8070 N.4     157 LYS157      0.3781
     69 HZ2       -21.5064  -72.9827    2.7084 H       157 LYS157     -0.0901
     70 HZ3       -20.6968  -72.7438    1.3104 H       157 LYS157     -0.0901
     71 HG1       -13.5090  -66.6198   12.5697 H       161 THR161      0.2099
     72 OG1       -13.9700  -67.3810   12.1020 O.3     161 THR161     -0.3897
     73 HG1        -8.7034  -63.3923   10.2414 H       165 THR165      0.2099
     74 OG1        -9.5520  -63.8260   10.5610 O.3     165 THR165     -0.3897
     75 HZ1        -6.6176  -62.0843   14.4178 H       166 LYS166     -0.0901
     76 NZ         -7.2730  -62.7880   14.1460 N.4     166 LYS166      0.3781
     77 HZ2        -7.4934  -63.3628   14.9337 H       166 LYS166     -0.0901
     78 HZ3        -6.8783  -63.3505   13.4204 H       166 LYS166     -0.0901
     79 HZ1       -18.1476  -68.9932   24.1517 H       168 LYS168     -0.0901
     80 NZ        -18.1320  -68.0390   23.8530 N.4     168 LYS168      0.3781
     81 HZ2       -17.9378  -67.4466   24.6343 H       168 LYS168     -0.0901
     82 HZ3       -19.0190  -67.7969   23.4614 H       168 LYS168     -0.0901
     83 HZ1       -16.1706  -75.7032   21.3175 H       169 LYS169     -0.0901
     84 NZ        -15.7760  -75.9460   20.4320 N.4     169 LYS169      0.3781
     85 HZ2       -16.4249  -75.7254   19.7039 H       169 LYS169     -0.0901
     86 HZ3       -15.5721  -76.9244   20.4135 H       169 LYS169     -0.0901
     87 HZ1       -43.2512  -49.5874   31.7625 H       186 LYS186     -0.0901
     88 NZ        -42.5640  -49.1260   31.2020 N.4     186 LYS186      0.3781
     89 HZ2       -41.6961  -49.0906   31.6970 H       186 LYS186     -0.0901
     90 HZ3       -42.8695  -48.1974   30.9941 H       186 LYS186     -0.0901
     91 HG1       -40.9469  -43.0336   12.9663 H       194 THR194      0.2099
     92 OG1       -41.7230  -43.2040   12.3500 O.3     194 THR194     -0.3897
     93 HG1       -42.0798  -54.0258    3.5485 H       206 THR206      0.2099
     94 OG1       -41.9280  -54.7860    2.9080 O.3     206 THR206     -0.3897
     95 HZ1       -44.9692  -59.6535   -6.3774 H       211 LYS211     -0.0901
     96 NZ        -45.0200  -60.4690   -5.8010 N.4     211 LYS211      0.3781
     97 HZ2       -44.8906  -61.2852   -6.3635 H       211 LYS211     -0.0901
     98 HZ3       -45.9132  -60.5087   -5.3551 H       211 LYS211     -0.0901
     99 HG1       -37.7127  -63.8353    0.9899 H       212 THR212      0.2099
    100 OG1       -37.0600  -64.5640    0.7570 O.3     212 THR212     -0.3897
    101 HG        -40.6119  -70.3422   -4.3955 H       213 SER213      0.2095
    102 OG        -39.6210  -70.4680   -4.4390 O.3     213 SER213     -0.3927
    103 HZ1       -40.0928  -72.7321   -7.5708 H       215 LYS215     -0.0901
    104 NZ        -40.7140  -72.0550   -7.1780 N.4     215 LYS215      0.3781
    105 HZ2       -40.9701  -71.3898   -7.8780 H       215 LYS215     -0.0901
    106 HZ3       -40.2633  -71.5872   -6.4187 H       215 LYS215     -0.0901
    107 HG1       -38.5444  -62.7618   -5.6005 H       221 THR221      0.2099
    108 OG1       -37.7410  -62.2150   -5.3430 O.3     221 THR221     -0.3897
    109 HZ1       -41.5052  -69.4239   -8.7614 H       222 LYS222     -0.0901
    110 NZ        -42.2670  -69.5280   -8.1230 N.4     222 LYS222      0.3781
    111 HZ2       -42.0767  -70.2804   -7.4927 H       222 LYS222     -0.0901
    112 HZ3       -43.1061  -69.7201   -8.6303 H       222 LYS222     -0.0901
    113 HH        -50.6076  -60.4958  -21.3634 H       242 TYR242      0.2921
    114 OH        -51.5270  -60.6600  -21.7160 O.3     242 TYR242     -0.5068
    115 HZ1       -68.5743  -52.3961  -20.5598 H       248 LYS248     -0.0901
    116 NZ        -68.1830  -51.5330  -20.2430 N.4     248 LYS248      0.3781
    117 HZ2       -68.8612  -50.8045  -20.3315 H       248 LYS248     -0.0901
    118 HZ3       -67.3774  -51.3097  -20.7907 H       248 LYS248     -0.0901
    119 HZ1       -65.1009  -47.3898  -13.7440 H       251 LYS251     -0.0901
    120 NZ        -64.3690  -47.5440  -13.0810 N.4     251 LYS251      0.3781
    121 HZ2       -64.6233  -48.2928  -12.4695 H       251 LYS251     -0.0901
    122 HZ3       -64.2200  -46.7127  -12.5472 H       251 LYS251     -0.0901
    123 HZ1       -62.6494  -61.1197  -14.5499 H       253 LYS253     -0.0901
    124 NZ        -61.7340  -61.4150  -14.2790 N.4     253 LYS253      0.3781
    125 HZ2       -61.0491  -60.8952  -14.7891 H       253 LYS253     -0.0901
    126 HZ3       -61.6261  -62.3899  -14.4701 H       253 LYS253     -0.0901
    127 HH        -67.8789  -51.6405  -12.5033 H       254 TYR254      0.2921
    128 OH        -67.9490  -51.2120  -11.6040 O.3     254 TYR254     -0.5068
    129 HH        -66.2688  -50.9963    3.2410 H       262 TYR262      0.2921
    130 OH        -65.3490  -51.3490    3.4010 O.3     262 TYR262     -0.5068
    131 HG        -64.5342  -64.2311   -3.0245 H       265 SER265      0.2095
    132 OG        -65.2160  -63.5150   -2.8830 O.3     265 SER265     -0.3927
    133 HH        -58.6275  -61.2247    2.5812 H       275 TYR275      0.2921
    134 OH        -58.7510  -61.6620    1.6930 O.3     275 TYR275     -0.5068
    135 HG        -66.9377  -64.7711    3.4259 H       283 SER283      0.2095
    136 OG        -66.4350  -64.2560    4.1190 O.3     283 SER283     -0.3927
    137 HZ1       -63.7149  -47.2739  -23.9144 H       317 LYS317     -0.0901
    138 NZ        -62.9320  -46.6960  -23.6840 N.4     317 LYS317      0.3781
    139 HZ2       -62.5192  -46.3414  -24.5226 H       317 LYS317     -0.0901
    140 HZ3       -62.2570  -47.2321  -23.1788 H       317 LYS317     -0.0901
    141 HG1       -58.3187  -41.9446  -28.6152 H       322 THR322      0.2099
    142 OG1       -58.6530  -41.8510  -29.5590 O.3     322 THR322     -0.3897
    143 HG1       -50.0640  -45.1849  -21.2459 H       331 THR331      0.2099
    144 OG1       -50.7660  -45.8310  -20.9280 O.3     331 THR331     -0.3897
    145 HE2       -51.1038  -42.9047   -9.2925 H       339 GLU339      0.2951
    146 OE2       -51.4690  -42.4210   -8.5640 O.3     339 GLU339     -0.4806
    147 HG1       -46.5949  -47.1888   -6.8681 H       340 THR340      0.2099
    148 OG1       -46.5450  -46.8770   -5.9140 O.3     340 THR340     -0.3897
    149 HZ1       -43.5114  -35.3788   -6.2383 H       342 LYS342     -0.0901
    150 NZ        -44.2730  -34.8380   -5.8830 N.4     342 LYS342      0.3781
    151 HZ2       -44.7930  -34.4497   -6.6432 H       342 LYS342     -0.0901
    152 HZ3       -43.9211  -34.1010   -5.3074 H       342 LYS342     -0.0901
    153 HG        -34.1418  -37.3740    6.7989 H       353 SER353      0.2095
    154 OG        -34.8470  -38.0790    6.8560 O.3     353 SER353     -0.3927
    155 HH        -29.7763  -39.7717    7.4366 H       355 TYR355      0.2921
    156 OH        -29.4390  -38.9590    6.9650 O.3     355 TYR355     -0.5068
    157 HZ1       -36.1091  -30.2692   -7.9632 H       360 LYS360     -0.0901
    158 NZ        -37.0810  -30.0700   -8.0870 N.4     360 LYS360      0.3781
    159 HZ2       -37.3320  -30.2095   -9.0442 H       360 LYS360     -0.0901
    160 HZ3       -37.2648  -29.1225   -7.8267 H       360 LYS360     -0.0901
    161 HH        -30.5528  -40.5434  -14.5975 H       373 TYR373      0.2921
    162 OH        -31.5330  -40.6670  -14.7410 O.3     373 TYR373     -0.5068
    163 HH        -39.4728  -49.9084    2.8107 H       385 TYR385      0.2921
    164 OH        -38.5070  -49.7260    2.9980 O.3     385 TYR385     -0.5068
    165 HG        -53.3421  -52.9374   21.8794 H       394 SER394      0.2095
    166 OG        -52.8560  -53.6470   22.3880 O.3     394 SER394     -0.3927
    167 HZ1       -57.5180  -44.5103   21.0821 H       396 LYS396     -0.0901
    168 NZ        -56.8890  -45.1950   21.4480 N.4     396 LYS396      0.3781
    169 HZ2       -57.0584  -45.3184   22.4257 H       396 LYS396     -0.0901
    170 HZ3       -55.9470  -44.8935   21.3072 H       396 LYS396     -0.0901
    171 HG        -64.0072  -49.7870   19.4953 H       399 SER399      0.2095
    172 OG        -64.8050  -49.1850   19.4900 O.3     399 SER399     -0.3927
    173 HH        -63.4216  -54.5355   15.1673 H       402 TYR402      0.2921
    174 OH        -63.4400  -54.9110   16.0920 O.3     402 TYR402     -0.5068
    175 HG        -57.2598  -60.6259   20.9460 H       403 SER403      0.2095
    176 OG        -56.3060  -60.7630   20.6820 O.3     403 SER403     -0.3927
    177 HH        -47.4605  -56.3770   17.0568 H       404 TYR404      0.2921
    178 OH        -47.2120  -57.3120   16.8100 O.3     404 TYR404     -0.5068
    179 HG1       -60.1173  -63.6044    7.0822 H       411 THR411      0.2099
    180 OG1       -61.0480  -63.9800    7.0130 O.3     411 THR411     -0.3897
    181 HG        -65.9398  -59.6816   10.5774 H       412 SER412      0.2095
    182 OG        -65.0720  -59.6800   10.0830 O.3     412 SER412     -0.3927
    183 HH        -63.1506  -52.9285   15.9010 H       417 TYR417      0.2921
    184 OH        -63.8670  -52.2620   15.7010 O.3     417 TYR417     -0.5068
    185 HG        -26.0288  -63.6678    7.9093 H       455 SER455      0.2095
    186 OG        -26.5990  -63.2690    8.6260 O.3     455 SER455     -0.3927
    187 HZ1       -11.1657  -54.4214    8.3477 H       468 LYS468     -0.0901
    188 NZ        -11.4800  -54.5700    7.4110 N.4     468 LYS468      0.3781
    189 HZ2       -11.6102  -55.5481    7.2516 H       468 LYS468     -0.0901
    190 HZ3       -10.8019  -54.2132    6.7697 H       468 LYS468     -0.0901
    191 HZ1       -11.3741  -44.1889   14.7821 H       473 LYS473     -0.0901
    192 NZ        -11.2340  -43.8560   13.8500 N.4     473 LYS473      0.3781
    193 HZ2       -10.2587  -43.7059   13.6906 H       473 LYS473     -0.0901
    194 HZ3       -11.7312  -42.9983   13.7209 H       473 LYS473     -0.0901
    195 HH        -22.4466  -48.3103   14.6654 H       475 TYR475      0.2921
    196 OH        -22.0570  -48.1150   15.5640 O.3     475 TYR475     -0.5068
    197 HG1       -12.4045  -48.9824   20.3586 H       476 THR476      0.2099
    198 OG1       -13.0660  -49.5060   19.8110 O.3     476 THR476     -0.3897
    199 HG        -14.9795  -49.8345   22.2642 H       477 SER477      0.2095
    200 OG        -15.6220  -50.5540   22.5250 O.3     477 SER477     -0.3927
    201 HZ1       -20.7755  -46.2381   31.7709 H       485 LYS485     -0.0901
    202 NZ        -20.1320  -46.7880   32.3030 N.4     485 LYS485      0.3781
    203 HZ2       -20.5717  -47.0944   33.1466 H       485 LYS485     -0.0901
    204 HZ3       -19.3269  -46.2395   32.5255 H       485 LYS485     -0.0901
    205 HZ1       -26.3964  -42.4206   22.6227 H       511 LYS511     -0.0901
    206 NZ        -26.7900  -43.3340   22.7180 N.4     511 LYS511      0.3781
    207 HZ2       -27.0387  -43.6881   21.8172 H       511 LYS511     -0.0901
    208 HZ3       -27.6034  -43.2899   23.2973 H       511 LYS511     -0.0901
    209 HG        -31.0157  -42.5136   16.2273 H       516 SER516      0.2095
    210 OG        -31.9800  -42.6720   16.0180 O.3     516 SER516     -0.3927
    211 HG        -34.3375  -48.3631    0.7093 H       530 SER530      0.2095
    212 OG        -34.2320  -47.4470    1.0930 O.3     530 SER530     -0.3927
    213 HZ1       -27.9553  -48.7826  -11.0368 H       532 LYS532     -0.0901
    214 NZ        -27.6550  -48.3070  -10.2110 N.4     532 LYS532      0.3781
    215 HZ2       -27.9793  -47.3624  -10.2313 H       532 LYS532     -0.0901
    216 HZ3       -26.6571  -48.3180  -10.1623 H       532 LYS532     -0.0901
    217 HG        -35.6790  -43.5665  -19.5202 H       541 SER541      0.2095
    218 OG        -35.8170  -43.9740  -18.6180 O.3     541 SER541     -0.3927
    219 HH        -38.3941  -49.4329  -20.8461 H       544 TYR544      0.2921
    220 OH        -39.2750  -49.0250  -21.0780 O.3     544 TYR544     -0.5068
    221 HZ1       -38.0387  -38.7067  -26.1260 H       546 LYS546     -0.0901
    222 NZ        -38.9760  -38.9140  -25.8470 N.4     546 LYS546      0.3781
    223 HZ2       -39.2331  -39.8195  -26.1837 H       546 LYS546     -0.0901
    224 HZ3       -39.5973  -38.2281  -26.2243 H       546 LYS546     -0.0901
    225 HG        -44.3357  -39.8824  -25.2029 H       548 SER548      0.2095
    226 OG        -44.5870  -39.4220  -24.3530 O.3     548 SER548     -0.3927
    227 HG1       -43.2418  -41.4213  -21.7287 H       549 THR549      0.2099
    228 OG1       -43.1030  -42.0380  -20.9460 O.3     549 THR549     -0.3897
    229 HZ1       -43.8007  -33.4608  -14.5692 H       560 LYS560     -0.0901
    230 NZ        -44.3980  -33.9200  -13.9130 N.4     560 LYS560      0.3781
    231 HZ2       -43.8927  -34.6507  -13.4555 H       560 LYS560     -0.0901
    232 HZ3       -45.1876  -34.3055  -14.3903 H       560 LYS560     -0.0901
    233 HG1       -50.8988  -32.9662   -7.8800 H       561 THR561      0.2099
    234 OG1       -50.0060  -33.4230   -7.8080 O.3     561 THR561     -0.3897
    235 HG1       -51.7652  -35.8402   -1.0189 H       563 THR563      0.2099
    236 OG1       -51.2400  -36.2740   -0.2790 O.3     563 THR563     -0.3897
    237 HZ1       -54.7243  -36.1881    5.8514 H       565 LYS565     -0.0901
    238 NZ        -55.2080  -35.3570    5.5790 N.4     565 LYS565      0.3781
    239 HZ2       -55.3970  -34.7989    6.3866 H       565 LYS565     -0.0901
    240 HZ3       -56.0688  -35.6021    5.1328 H       565 LYS565     -0.0901
    241 HZ1       -51.5218  -34.6808   -5.7242 H       566 LYS566     -0.0901
    242 NZ        -52.4230  -34.8340   -6.1280 N.4     566 LYS566      0.3781
    243 HZ2       -52.3587  -35.5421   -6.8310 H       566 LYS566     -0.0901
    244 HZ3       -52.7552  -33.9848   -6.5377 H       566 LYS566     -0.0901
    245 HG1       -60.4454  -41.4344    1.4175 H       572 THR572      0.2099
    246 OG1       -61.3190  -41.3360    1.9050 O.3     572 THR572     -0.3897
    247 HZ1       -71.9249  -42.2215    1.2382 H       573 LYS573     -0.0901
    248 NZ        -71.0950  -42.6030    0.8330 N.4     573 LYS573      0.3781
    249 HZ2       -70.6589  -41.9156    0.2534 H       573 LYS573     -0.0901
    250 HZ3       -71.3285  -43.4053    0.2846 H       573 LYS573     -0.0901
    251 HG1       -63.6453  -40.2979    6.1711 H       574 THR574      0.2099
    252 OG1       -64.6450  -40.3960    6.2120 O.3     574 THR574     -0.3897
    253 HH        -50.8535  -36.0415   13.0108 H       577 TYR577      0.2921
    254 OH        -50.9160  -36.9720   12.6540 O.3     577 TYR577     -0.5068
    255 HG        -50.3571  -37.4571   10.4433 H       579 SER579      0.2095
    256 OG        -49.7460  -38.1280   10.0250 O.3     579 SER579     -0.3927
@<TRIPOS>BOND
     1  142  141 1
     2  224  222 1
     3  221  222 1
     4  223  222 1
     5  139  138 1
     6  226  225 1
     7  140  138 1
     8  138  137 1
     9  114  113 1
    10  219  220 1
    11  228  227 1
    12  143  144 1
    13  118  116 1
    14  115  116 1
    15  117  116 1
    16  218  217 1
    17   56   55 1
    18  126  124 1
    19  162  161 1
    20  229  230 1
    21  125  124 1
    22  123  124 1
    23  232  230 1
    24  230  231 1
    25  122  120 1
    26  120  119 1
    27  120  121 1
    28   42   41 1
    29  127  128 1
    30   52   51 1
    31   14   13 1
    32  216  214 1
    33  215  214 1
    34  214  213 1
    35   54   53 1
    36   50   49 1
    37   58   57 1
    38  159  158 1
    39   59   60 1
    40  112  110 1
    41  146  145 1
    42  111  110 1
    43  160  158 1
    44  105  104 1
    45  233  234 1
    46  110  109 1
    47  158  157 1
    48   38   37 1
    49  104  103 1
    50  104  106 1
    51   43   44 1
    52  241  242 1
    53  152  150 1
    54   63   64 1
    55  147  148 1
    56   97   96 1
    57  244  242 1
    58  107  108 1
    59  242  243 1
    60   15   16 1
    61   46   45 1
    62   40   39 1
    63  150  149 1
    64  150  151 1
    65   95   96 1
    66   96   98 1
    67   20   19 1
    68  102  101 1
    69   48   47 1
    70  131  132 1
    71   23   24 1
    72   61   62 1
    73   36   35 1
    74   65   66 1
    75  236  235 1
    76  250  248 1
    77  247  248 1
    78  133  134 1
    79  100   99 1
    80  248  249 1
    81   67   68 1
    82  212  211 1
    83    3    2 1
    84    1    2 1
    85   18   17 1
    86    4    2 1
    87   11   12 1
    88   68   69 1
    89   68   70 1
    90  246  245 1
    91   21   22 1
    92  163  164 1
    93   94   93 1
    94   25   26 1
    95  130  129 1
    96  136  135 1
    97  239  238 1
    98  238  237 1
    99  238  240 1
   100  251  252 1
   101    6    5 1
   102  153  154 1
   103  155  156 1
   104  190  188 1
   105  180  179 1
   106    9   10 1
   107   32   31 1
   108  188  189 1
   109  188  187 1
   110    7    8 1
   111  186  185 1
   112   73   74 1
   113  256  255 1
   114  182  181 1
   115   27   28 1
   116   72   71 1
   117   92   91 1
   118  254  253 1
   119   33   34 1
   120  191  192 1
   121   75   76 1
   122  192  194 1
   123  192  193 1
   124   29   30 1
   125   77   76 1
   126   76   78 1
   127  195  196 1
   128  184  183 1
   129  210  209 1
   130  174  173 1
   131  178  177 1
   132  171  172 1
   133  197  198 1
   134   86   84 1
   135   83   84 1
   136   84   85 1
   137  176  175 1
   138  167  168 1
   139  168  170 1
   140  168  169 1
   141  199  200 1
   142  165  166 1
   143  205  206 1
   144  208  206 1
   145  206  207 1
   146   82   80 1
   147   81   80 1
   148   80   79 1
   149   89   88 1
   150   88   87 1
   151   88   90 1
   152  203  202 1
   153  204  202 1
   154  202  201 1
@<TRIPOS>SUBSTRUCTURE
28 GLY28 1
31 THR31 5
38 TYR38 7
39 TYR39 9
55 TYR55 11
60 THR60 13
62 THR62 15
64 TYR64 17
65 SER65 19
70 THR70 21
76 THR76 23
81 SER81 25
85 SER85 27
87 SER87 29
89 THR89 31
94 THR94 33
106 THR106 35
118 THR118 37
121 SER121 39
126 SER126 41
129 THR129 43
130 TYR130 45
132 SER132 47
136 TYR136 49
138 SER138 51
141 SER141 53
143 SER143 55
146 SER146 57
147 TYR147 59
148 TYR148 61
149 THR149 63
154 SER154 65
157 LYS157 67
161 THR161 71
165 THR165 73
166 LYS166 75
168 LYS168 79
169 LYS169 83
186 LYS186 87
194 THR194 91
206 THR206 93
211 LYS211 95
212 THR212 99
213 SER213 101
215 LYS215 103
221 THR221 107
222 LYS222 109
242 TYR242 113
248 LYS248 115
251 LYS251 119
253 LYS253 123
254 TYR254 127
262 TYR262 129
265 SER265 131
275 TYR275 133
283 SER283 135
317 LYS317 137
322 THR322 141
331 THR331 143
339 GLU339 145
340 THR340 147
342 LYS342 149
353 SER353 153
355 TYR355 155
360 LYS360 157
373 TYR373 161
385 TYR385 163
394 SER394 165
396 LYS396 167
399 SER399 171
402 TYR402 173
403 SER403 175
404 TYR404 177
411 THR411 179
412 SER412 181
417 TYR417 183
455 SER455 185
468 LYS468 187
473 LYS473 191
475 TYR475 195
476 THR476 197
477 SER477 199
485 LYS485 201
511 LYS511 205
516 SER516 209
530 SER530 211
532 LYS532 213
541 SER541 217
544 TYR544 219
546 LYS546 221
548 SER548 225
549 THR549 227
560 LYS560 229
561 THR561 233
563 THR563 235
565 LYS565 237
566 LYS566 241
572 THR572 245
573 LYS573 247
574 THR574 251
577 TYR577 253
579 SER579 255
@<TRIPOS>COMMENT
