@<TRIPOS>MOLECULE
ibuprofen_entry_00001_conf_89
32 32 1
SMALL
NO_CHARGES


@<TRIPOS>ATOM
      1 C         -26.0650  -23.7875   -3.8546 C.3       1 UNL1        0.0000
      2 C         -24.9686  -24.7338   -3.4642 C.3       1 UNL1        0.0000
      3 C         -24.1711  -24.1832   -2.3253 C.3       1 UNL1        0.0000
      4 C         -25.5701  -26.0611   -3.0954 C.3       1 UNL1        0.0000
      5 C         -24.5651  -27.1485   -3.1834 C.ar      1 UNL1        0.0000
      6 C         -24.8336  -28.3444   -2.5590 C.ar      1 UNL1        0.0000
      7 C         -23.9374  -29.3733   -2.6132 C.ar      1 UNL1        0.0000
      8 C         -22.7519  -29.2320   -3.2924 C.ar      1 UNL1        0.0000
      9 C         -22.4733  -28.0432   -3.9199 C.ar      1 UNL1        0.0000
     10 C         -23.3796  -27.0060   -3.8633 C.ar      1 UNL1        0.0000
     11 C         -21.7681  -30.3253   -3.3667 C.3       1 UNL1        0.0000
     12 C         -21.3984  -30.5663   -4.8300 C.3       1 UNL1        0.0000
     13 C         -20.5654  -29.8900   -2.5976 C.2       1 UNL1        0.0000
     14 O         -20.5847  -28.8518   -1.9205 O.co2     1 UNL1       -0.5000
     15 O         -19.4381  -30.6588   -2.6533 O.co2     1 UNL1       -0.5000
     16 H         -25.6411  -22.8403   -4.1180 H         1 UNL1        0.0000
     17 H         -26.7371  -23.6609   -3.0318 H         1 UNL1        0.0000
     18 H         -26.5973  -24.1856   -4.6927 H         1 UNL1        0.0000
     19 H         -24.3045  -24.8630   -4.2924 H         1 UNL1        0.0000
     20 H         -24.8099  -24.0424   -1.4783 H         1 UNL1        0.0000
     21 H         -23.7448  -23.2441   -2.6098 H         1 UNL1        0.0000
     22 H         -23.3893  -24.8682   -2.0721 H         1 UNL1        0.0000
     23 H         -26.3772  -26.2766   -3.7636 H         1 UNL1        0.0000
     24 H         -25.9210  -26.0051   -2.0861 H         1 UNL1        0.0000
     25 H         -25.7200  -28.4650   -2.0443 H         1 UNL1        0.0000
     26 H         -24.1531  -30.2648   -2.1394 H         1 UNL1        0.0000
     27 H         -21.5861  -27.9257   -4.4341 H         1 UNL1        0.0000
     28 H         -23.1665  -26.1136   -4.3359 H         1 UNL1        0.0000
     29 H         -22.1613  -31.2337   -2.9599 H         1 UNL1        0.0000
     30 H         -21.0034  -29.6652   -5.2510 H         1 UNL1        0.0000
     31 H         -22.2720  -30.8608   -5.3737 H         1 UNL1        0.0000
     32 H         -20.6633  -31.3411   -4.8889 H         1 UNL1        0.0000
@<TRIPOS>BOND
     1    1   17 1
     2    1    2 1
     3    1   16 1
     4    1   18 1
     5    2   19 1
     6    2    3 1
     7    2    4 1
     8    3   21 1
     9    3   22 1
    10    3   20 1
    11    4    5 1
    12    4   24 1
    13    4   23 1
    14    5    6 ar
    15    5   10 ar
    16    6    7 ar
    17    6   25 1
    18    7   26 1
    19    7    8 ar
    20    8    9 ar
    21    8   11 1
    22    9   10 ar
    23    9   27 1
    24   10   28 1
    25   11   29 1
    26   11   12 1
    27   11   13 1
    28   12   30 1
    29   12   31 1
    30   12   32 1
    31   13   15 ar
    32   13   14 ar
@<TRIPOS>SUBSTRUCTURE
1 UNL1 1
@<TRIPOS>COMMENT
ibuprofen
PLANTSproteinTorsions
102
4661 244.0627
5386 171.3663
6210 44.0926
5890 165.0794
4461 38.2572
1390 94.4949
2824 55.8186
4339 229.6867
2732 69.8926
4792 196.3258
3407 14.4258
5134 33.1320
6916 230.5814
7370 351.6763
6038 20.0660
7225 34.6825
3592 294.4462
2064 156.3707
2488 349.1815
1253 187.2192
2069 180.2314
2569 154.1570
3058 127.6422
1748 175.1652
1162 22.7106
1509 194.1644
560 205.0515
1627 143.8643
1941 57.4469
3631 151.9636
2381 220.1484
4221 357.3373
4687 183.0784
6983 190.6956
6668 20.5147
7305 194.4647
8693 341.8182
8404 2.4944
9055 18.0613
7052 10.8055
4708 223.8564
2652 80.1807
4332 311.6934
3011 308.1638
2257 39.1367
2778 236.4741
2057 273.0896
192 63.6854
315 6.5779
1085 246.6346
1007 240.6117
1407 207.1619
4816 39.9820
3131 247.5502
4654 25.3565
5144 224.2388
117 179.1099
6 166.6329
259 79.5362
1979 225.2095
2609 98.3973
2623 74.2491
5910 307.3722
5937 205.2387
2062 79.4840
890 25.3463
5008 270.8081
8602 78.6406
8478 281.5875
8300 222.4026
7721 291.6947
8466 14.2774
7852 211.8829
5849 316.6913
6302 320.3956
7439 302.4408
6284 106.1686
6003 105.2086
7165 7.9712
7623 252.1520
8158 240.4427
8667 62.0521
9078 338.9595
8684 297.6880
7666 167.6929
4231 10.4131
1659 261.2448
489 123.4800
238 193.0308
46 113.3891
83 217.5751
254 265.2692
1066 267.3813
2112 147.3182
4047 99.1897
5402 131.0477
2544 215.0945
4670 12.0997
4426 159.8502
5656 183.3500
7040 51.3484
6282 303.2751
PLANTSmolcadARTstart hb
PLANTSmolcadARTstart HB
LINES
PLANTSmolcadARTstart HBCH
LINES
PLANTSmolcadARTstart HB-CHO
LINES
PLANTSmolcadARTend
PLANTSmolcadARTstart HB_WATER
LINES
PLANTSmolcadARTend

PLANTSmolcadARTend

