@<TRIPOS>MOLECULE
ibuprofen_entry_00001_conf_59
32 32 1
SMALL
NO_CHARGES


@<TRIPOS>ATOM
      1 C         -39.2440  -56.1212    4.7262 C.3       1 UNL1        0.0000
      2 C         -39.2581  -57.6164    4.8458 C.3       1 UNL1        0.0000
      3 C         -39.4342  -58.0345    6.2708 C.3       1 UNL1        0.0000
      4 C         -40.3647  -58.1696    3.9920 C.3       1 UNL1        0.0000
      5 C         -40.3531  -59.6528    3.9937 C.ar      1 UNL1        0.0000
      6 C         -39.1943  -60.3018    3.6354 C.ar      1 UNL1        0.0000
      7 C         -39.1375  -61.6662    3.6223 C.ar      1 UNL1        0.0000
      8 C         -40.2366  -62.4144    3.9667 C.ar      1 UNL1        0.0000
      9 C         -41.3984  -61.7777    4.3265 C.ar      1 UNL1        0.0000
     10 C         -41.4532  -60.4003    4.3385 C.ar      1 UNL1        0.0000
     11 C         -40.2026  -63.8866    3.9610 C.3       1 UNL1        0.0000
     12 C         -40.8541  -64.4065    5.2423 C.3       1 UNL1        0.0000
     13 C         -40.9774  -64.3417    2.7694 C.2       1 UNL1        0.0000
     14 O         -40.6647  -63.9721    1.6282 O.co2     1 UNL1       -0.5000
     15 O         -42.0416  -65.1761    2.9589 O.co2     1 UNL1       -0.5000
     16 H         -38.4571  -55.7227    5.3332 H         1 UNL1        0.0000
     17 H         -40.1828  -55.7279    5.0561 H         1 UNL1        0.0000
     18 H         -39.0807  -55.8472    3.7052 H         1 UNL1        0.0000
     19 H         -38.3209  -58.0048    4.5075 H         1 UNL1        0.0000
     20 H         -40.3664  -57.6599    6.6394 H         1 UNL1        0.0000
     21 H         -38.6335  -57.6389    6.8599 H         1 UNL1        0.0000
     22 H         -39.4295  -59.1026    6.3332 H         1 UNL1        0.0000
     23 H         -40.2395  -57.8205    2.9887 H         1 UNL1        0.0000
     24 H         -41.2996  -57.8377    4.3928 H         1 UNL1        0.0000
     25 H         -38.3605  -59.7528    3.3735 H         1 UNL1        0.0000
     26 H         -38.2607  -62.1389    3.3509 H         1 UNL1        0.0000
     27 H         -42.2306  -62.3294    4.5881 H         1 UNL1        0.0000
     28 H         -42.3285  -59.9251    4.6091 H         1 UNL1        0.0000
     29 H         -39.1987  -64.2546    3.9151 H         1 UNL1        0.0000
     30 H         -41.8599  -64.0459    5.3024 H         1 UNL1        0.0000
     31 H         -40.2997  -64.0592    6.0894 H         1 UNL1        0.0000
     32 H         -40.8573  -65.4761    5.2319 H         1 UNL1        0.0000
@<TRIPOS>BOND
     1    1   17 1
     2    1    2 1
     3    1   16 1
     4    1   18 1
     5    2   19 1
     6    2    3 1
     7    2    4 1
     8    3   21 1
     9    3   22 1
    10    3   20 1
    11    4    5 1
    12    4   24 1
    13    4   23 1
    14    5    6 ar
    15    5   10 ar
    16    6    7 ar
    17    6   25 1
    18    7   26 1
    19    7    8 ar
    20    8    9 ar
    21    8   11 1
    22    9   10 ar
    23    9   27 1
    24   10   28 1
    25   11   29 1
    26   11   12 1
    27   11   13 1
    28   12   30 1
    29   12   31 1
    30   12   32 1
    31   13   15 ar
    32   13   14 ar
@<TRIPOS>SUBSTRUCTURE
1 UNL1 1
@<TRIPOS>COMMENT
ibuprofen
PLANTSproteinTorsions
102
4661 339.0044
5386 144.1437
6210 178.8466
5890 47.2809
4461 60.9589
1390 94.7479
2824 121.3621
4339 321.1581
2732 58.4134
4792 30.0746
3407 11.2144
5134 127.4887
6916 351.4037
7370 115.9232
6038 157.0020
7225 185.0563
3592 24.9385
2064 204.1584
2488 103.3978
1253 263.3768
2069 325.8709
2569 110.3025
3058 179.9199
1748 159.0063
1162 79.9937
1509 316.1152
560 239.2728
1627 181.4443
1941 224.6254
3631 165.4475
2381 9.6109
4221 283.4060
4687 214.2101
6983 225.5708
6668 165.3408
7305 191.1858
8693 66.5911
8404 19.2293
9055 209.0101
7052 31.6535
4708 295.1810
2652 206.9229
4332 77.9950
3011 215.8573
2257 205.2813
2778 83.1786
2057 102.6592
192 79.9616
315 10.7501
1085 109.2044
1007 184.7068
1407 190.2059
4816 152.6030
3131 19.9326
4654 229.3459
5144 93.2657
117 237.9565
6 119.2655
259 210.1016
1979 232.0769
2609 101.6720
2623 195.8819
5910 269.0318
5937 211.9759
2062 70.6920
890 181.7159
5008 235.7920
8602 126.8453
8478 261.5959
8300 62.4147
7721 106.7040
8466 35.9899
7852 115.1216
5849 156.4587
6302 167.7596
7439 151.4821
6284 120.4840
6003 270.2439
7165 136.2203
7623 283.2493
8158 299.1750
8667 233.7683
9078 328.0019
8684 325.8893
7666 122.4624
4231 17.2586
1659 264.4004
489 211.7092
238 224.7196
46 99.9732
83 240.4526
254 204.5381
1066 112.5881
2112 139.5383
4047 193.1851
5402 182.6773
2544 220.8823
4670 283.7550
4426 227.7264
5656 251.9430
7040 27.4549
6282 199.4356
PLANTSmolcadARTstart hb
PLANTSmolcadARTstart HB
LINES
-40.6647 -63.9721 1.62824 -39.753 -64.09 0.005 0 255 0 5
PLANTSmolcadARTstart HBCH
LINES
PLANTSmolcadARTstart HB-CHO
LINES
PLANTSmolcadARTend
PLANTSmolcadARTstart HB_WATER
LINES
PLANTSmolcadARTend

PLANTSmolcadARTend

