@<TRIPOS>MOLECULE
ibuprofen_entry_00001_conf_96
32 32 1
SMALL
NO_CHARGES


@<TRIPOS>ATOM
      1 C         -56.5441  -34.8570    8.9028 C.3       1 UNL1        0.0000
      2 C         -57.9147  -34.3210    8.6127 C.3       1 UNL1        0.0000
      3 C         -58.2843  -34.5516    7.1820 C.3       1 UNL1        0.0000
      4 C         -58.9072  -34.9815    9.5282 C.3       1 UNL1        0.0000
      5 C         -58.5982  -34.6952   10.9504 C.ar      1 UNL1        0.0000
      6 C         -58.7630  -33.4105   11.4135 C.ar      1 UNL1        0.0000
      7 C         -58.4905  -33.1006   12.7152 C.ar      1 UNL1        0.0000
      8 C         -58.0470  -34.0667   13.5851 C.ar      1 UNL1        0.0000
      9 C         -57.8793  -35.3525   13.1343 C.ar      1 UNL1        0.0000
     10 C         -58.1548  -35.6625   11.8197 C.ar      1 UNL1        0.0000
     11 C         -57.7459  -33.7598   14.9936 C.3       1 UNL1        0.0000
     12 C         -58.8966  -34.2541   15.8698 C.3       1 UNL1        0.0000
     13 C         -56.4870  -34.4811   15.3433 C.2       1 UNL1        0.0000
     14 O         -55.4379  -34.2693   14.7181 O.co2     1 UNL1       -0.5000
     15 O         -56.5114  -35.3827   16.3687 O.co2     1 UNL1       -0.5000
     16 H         -55.8336  -34.3893    8.2526 H         1 UNL1        0.0000
     17 H         -56.5330  -35.9147    8.7413 H         1 UNL1        0.0000
     18 H         -56.2882  -34.6482    9.9202 H         1 UNL1        0.0000
     19 H         -57.9225  -33.2653    8.7832 H         1 UNL1        0.0000
     20 H         -58.2855  -35.6025    6.9794 H         1 UNL1        0.0000
     21 H         -57.5721  -34.0674    6.5474 H         1 UNL1        0.0000
     22 H         -59.2589  -34.1516    6.9956 H         1 UNL1        0.0000
     23 H         -58.8778  -36.0391    9.3705 H         1 UNL1        0.0000
     24 H         -59.8802  -34.5944    9.3084 H         1 UNL1        0.0000
     25 H         -59.0949  -32.6738   10.7712 H         1 UNL1        0.0000
     26 H         -58.6189  -32.1318   13.0479 H         1 UNL1        0.0000
     27 H         -57.5475  -36.0871   13.7790 H         1 UNL1        0.0000
     28 H         -58.0270  -36.6301   11.4843 H         1 UNL1        0.0000
     29 H         -57.6272  -32.7075   15.1480 H         1 UNL1        0.0000
     30 H         -59.0278  -35.3064   15.7257 H         1 UNL1        0.0000
     31 H         -59.7963  -33.7422   15.5976 H         1 UNL1        0.0000
     32 H         -58.6717  -34.0588   16.8971 H         1 UNL1        0.0000
@<TRIPOS>BOND
     1    1   17 1
     2    1    2 1
     3    1   16 1
     4    1   18 1
     5    2   19 1
     6    2    3 1
     7    2    4 1
     8    3   21 1
     9    3   22 1
    10    3   20 1
    11    4    5 1
    12    4   24 1
    13    4   23 1
    14    5    6 ar
    15    5   10 ar
    16    6    7 ar
    17    6   25 1
    18    7   26 1
    19    7    8 ar
    20    8    9 ar
    21    8   11 1
    22    9   10 ar
    23    9   27 1
    24   10   28 1
    25   11   29 1
    26   11   12 1
    27   11   13 1
    28   12   30 1
    29   12   31 1
    30   12   32 1
    31   13   15 ar
    32   13   14 ar
@<TRIPOS>SUBSTRUCTURE
1 UNL1 1
@<TRIPOS>COMMENT
ibuprofen
PLANTSproteinTorsions
102
4661 305.8600
5386 90.8908
6210 303.5748
5890 59.2160
4461 277.5885
1390 103.7311
2824 107.7444
4339 206.1745
2732 66.3391
4792 234.2122
3407 20.3948
5134 36.0215
6916 117.0859
7370 210.3335
6038 327.5026
7225 194.1060
3592 119.3333
2064 154.4825
2488 258.2039
1253 54.8684
2069 193.4523
2569 71.3714
3058 180.0987
1748 229.2811
1162 189.3040
1509 21.0275
560 178.4181
1627 206.6499
1941 138.5196
3631 19.3897
2381 247.3964
4221 166.0970
4687 137.6548
6983 321.3829
6668 205.7749
7305 57.6381
8693 111.3001
8404 178.0577
9055 22.2336
7052 288.9381
4708 29.4697
2652 166.4933
4332 193.6889
3011 312.5576
2257 17.5291
2778 97.6048
2057 348.1729
192 170.7339
315 120.1438
1085 56.8909
1007 263.8314
1407 81.3046
4816 262.9877
3131 268.4622
4654 168.7203
5144 118.8792
117 256.4172
6 89.3734
259 184.0099
1979 61.7094
2609 303.1415
2623 244.7878
5910 248.6398
5937 181.8712
2062 168.0913
890 67.1711
5008 27.2049
8602 37.6322
8478 95.8085
8300 270.3405
7721 141.7336
8466 242.6335
7852 200.2715
5849 205.9109
6302 217.1980
7439 42.0254
6284 200.4933
6003 274.9123
7165 207.3991
7623 245.1380
8158 72.6115
8667 99.5270
9078 180.2599
8684 150.6272
7666 38.8044
4231 61.8546
1659 83.0617
489 341.7566
238 148.4856
46 313.9048
83 203.1914
254 257.2456
1066 252.9250
2112 258.7726
4047 280.9030
5402 183.4223
2544 22.8268
4670 98.1966
4426 233.8904
5656 139.8794
7040 242.5246
6282 77.2398
PLANTSmolcadARTstart hb
PLANTSmolcadARTstart HB
LINES
PLANTSmolcadARTstart HBCH
LINES
-56.5114 -35.3827 16.3687 -57.741 -37.079 16.273 255 0 0 5
PLANTSmolcadARTstart HB-CHO
LINES
PLANTSmolcadARTend
PLANTSmolcadARTstart HB_WATER
LINES
PLANTSmolcadARTend

PLANTSmolcadARTend

