@<TRIPOS>MOLECULE
ibuprofen_entry_00001_conf_83
32 32 1
SMALL
NO_CHARGES


@<TRIPOS>ATOM
      1 C         -62.8702  -79.3738    7.9010 C.3       1 UNL1        0.0000
      2 C         -62.4466  -78.8596    6.5570 C.3       1 UNL1        0.0000
      3 C         -63.3786  -77.7928    6.0776 C.3       1 UNL1        0.0000
      4 C         -61.0423  -78.3317    6.6506 C.3       1 UNL1        0.0000
      5 C         -60.5482  -77.8839    5.3256 C.ar      1 UNL1        0.0000
      6 C         -59.6866  -78.7032    4.6338 C.ar      1 UNL1        0.0000
      7 C         -59.2061  -78.3318    3.4107 C.ar      1 UNL1        0.0000
      8 C         -59.5748  -77.1335    2.8497 C.ar      1 UNL1        0.0000
      9 C         -60.4347  -76.3079    3.5307 C.ar      1 UNL1        0.0000
     10 C         -60.9180  -76.6850    4.7654 C.ar      1 UNL1        0.0000
     11 C         -59.0716  -76.7088    1.5325 C.3       1 UNL1        0.0000
     12 C         -58.9042  -75.1896    1.5276 C.3       1 UNL1        0.0000
     13 C         -57.7502  -77.3723    1.3297 C.2       1 UNL1        0.0000
     14 O         -57.6778  -78.5112    0.8460 O.co2     1 UNL1       -0.5000
     15 O         -56.6171  -76.6996    1.6881 O.co2     1 UNL1       -0.5000
     16 H         -63.8704  -79.7508    7.8391 H         1 UNL1        0.0000
     17 H         -62.8325  -78.5783    8.6156 H         1 UNL1        0.0000
     18 H         -62.2110  -80.1592    8.2056 H         1 UNL1        0.0000
     19 H         -62.4783  -79.6601    5.8486 H         1 UNL1        0.0000
     20 H         -63.3691  -76.9750    6.7677 H         1 UNL1        0.0000
     21 H         -64.3697  -78.1898    6.0095 H         1 UNL1        0.0000
     22 H         -63.0642  -77.4500    5.1142 H         1 UNL1        0.0000
     23 H         -60.4020  -79.1055    7.0187 H         1 UNL1        0.0000
     24 H         -61.0397  -77.4925    7.3144 H         1 UNL1        0.0000
     25 H         -59.4000  -79.6063    5.0430 H         1 UNL1        0.0000
     26 H         -58.5599  -78.9574    2.9037 H         1 UNL1        0.0000
     27 H         -60.7196  -75.4054    3.1187 H         1 UNL1        0.0000
     28 H         -61.5638  -76.0615    5.2745 H         1 UNL1        0.0000
     29 H         -59.7484  -76.9801    0.7491 H         1 UNL1        0.0000
     30 H         -58.2292  -74.9029    2.3070 H         1 UNL1        0.0000
     31 H         -59.8550  -74.7264    1.6912 H         1 UNL1        0.0000
     32 H         -58.5128  -74.8772    0.5824 H         1 UNL1        0.0000
@<TRIPOS>BOND
     1    1   17 1
     2    1    2 1
     3    1   16 1
     4    1   18 1
     5    2   19 1
     6    2    3 1
     7    2    4 1
     8    3   21 1
     9    3   22 1
    10    3   20 1
    11    4    5 1
    12    4   24 1
    13    4   23 1
    14    5    6 ar
    15    5   10 ar
    16    6    7 ar
    17    6   25 1
    18    7   26 1
    19    7    8 ar
    20    8    9 ar
    21    8   11 1
    22    9   10 ar
    23    9   27 1
    24   10   28 1
    25   11   29 1
    26   11   12 1
    27   11   13 1
    28   12   30 1
    29   12   31 1
    30   12   32 1
    31   13   15 ar
    32   13   14 ar
@<TRIPOS>SUBSTRUCTURE
1 UNL1 1
@<TRIPOS>COMMENT
ibuprofen
PLANTSproteinTorsions
102
4661 112.5473
5386 308.7621
6210 40.6631
5890 56.7928
4461 223.2459
1390 27.7038
2824 129.9408
4339 221.1557
2732 198.1075
4792 51.3538
3407 175.5685
5134 32.8973
6916 328.7834
7370 28.9935
6038 126.7503
7225 247.7512
3592 290.5529
2064 148.2511
2488 187.5736
1253 166.2051
2069 156.6808
2569 140.2570
3058 144.5755
1748 77.8974
1162 85.6215
1509 173.9864
560 14.6420
1627 299.8598
1941 195.0013
3631 146.9866
2381 42.2576
4221 115.6339
4687 251.1714
6983 46.0230
6668 154.8541
7305 56.4179
8693 37.0404
8404 10.5857
9055 325.4383
7052 35.8995
4708 254.7103
2652 332.0728
4332 229.7830
3011 184.9610
2257 19.2030
2778 357.1041
2057 80.5648
192 146.6371
315 332.3827
1085 24.3491
1007 101.7204
1407 332.5312
4816 209.2663
3131 152.4928
4654 71.2695
5144 94.4818
117 147.5131
6 117.3871
259 216.4824
1979 235.0755
2609 153.4630
2623 208.3217
5910 355.2915
5937 197.3250
2062 2.6330
890 242.8998
5008 54.8582
8602 241.6483
8478 193.7788
8300 172.6048
7721 280.8284
8466 166.9407
7852 322.0987
5849 322.4754
6302 159.4162
7439 235.2162
6284 320.6492
6003 153.0083
7165 222.8387
7623 331.2890
8158 264.9813
8667 207.7253
9078 130.5726
8684 92.6745
7666 197.1479
4231 240.1538
1659 211.1414
489 82.7619
238 240.7495
46 128.1635
83 230.6629
254 125.4584
1066 246.1004
2112 38.4681
4047 194.3250
5402 226.4564
2544 280.6682
4670 34.7813
4426 45.1991
5656 24.5111
7040 105.1575
6282 319.0792
PLANTSmolcadARTstart hb
PLANTSmolcadARTstart HB
LINES
PLANTSmolcadARTstart HBCH
LINES
-56.6171 -76.6996 1.6881 -56.433 -76.416 3.716 255 0 0 5
-56.6171 -76.6996 1.6881 -55.581 -78.233 2.68 255 0 0 5
PLANTSmolcadARTstart HB-CHO
LINES
PLANTSmolcadARTend
PLANTSmolcadARTstart HB_WATER
LINES
PLANTSmolcadARTend

PLANTSmolcadARTend

