@<TRIPOS>MOLECULE
ibuprofen_entry_00001_conf_13
32 32 1
SMALL
NO_CHARGES


@<TRIPOS>ATOM
      1 C         -14.3925  -63.6553    1.7500 C.3       1 UNL1        0.0000
      2 C         -14.3066  -62.6948    0.6010 C.3       1 UNL1        0.0000
      3 C         -13.9605  -61.3212    1.0807 C.3       1 UNL1        0.0000
      4 C         -13.2783  -63.1874   -0.3785 C.3       1 UNL1        0.0000
      5 C         -13.6453  -64.5199   -0.9168 C.ar      1 UNL1        0.0000
      6 C         -14.9784  -64.8237   -1.0678 C.ar      1 UNL1        0.0000
      7 C         -15.3630  -66.0384   -1.5593 C.ar      1 UNL1        0.0000
      8 C         -14.4253  -66.9781   -1.9115 C.ar      1 UNL1        0.0000
      9 C         -13.0919  -66.6859   -1.7657 C.ar      1 UNL1        0.0000
     10 C         -12.7063  -65.4591   -1.2689 C.ar      1 UNL1        0.0000
     11 C         -14.8125  -68.2954   -2.4440 C.3       1 UNL1        0.0000
     12 C         -15.8911  -68.9001   -1.5455 C.3       1 UNL1        0.0000
     13 C         -15.3522  -68.0750   -3.8179 C.2       1 UNL1        0.0000
     14 O         -16.2852  -68.7653   -4.2531 O.co2     1 UNL1       -0.5000
     15 O         -14.7975  -67.0953   -4.5907 O.co2     1 UNL1       -0.5000
     16 H         -15.1240  -63.3081    2.4506 H         1 UNL1        0.0000
     17 H         -13.4397  -63.7210    2.2323 H         1 UNL1        0.0000
     18 H         -14.6764  -64.6205    1.3867 H         1 UNL1        0.0000
     19 H         -15.2589  -62.6389    0.1177 H         1 UNL1        0.0000
     20 H         -13.0092  -61.3441    1.5705 H         1 UNL1        0.0000
     21 H         -14.7074  -60.9853    1.7690 H         1 UNL1        0.0000
     22 H         -13.9162  -60.6520    0.2471 H         1 UNL1        0.0000
     23 H         -12.3319  -63.2587    0.1150 H         1 UNL1        0.0000
     24 H         -13.2276  -62.4953   -1.1929 H         1 UNL1        0.0000
     25 H         -15.6945  -64.1278   -0.8067 H         1 UNL1        0.0000
     26 H         -16.3674  -66.2518   -1.6667 H         1 UNL1        0.0000
     27 H         -12.3781  -67.3838   -2.0279 H         1 UNL1        0.0000
     28 H         -11.7030  -65.2432   -1.1602 H         1 UNL1        0.0000
     29 H         -13.9787  -68.9655   -2.4746 H         1 UNL1        0.0000
     30 H         -16.7324  -68.2401   -1.5049 H         1 UNL1        0.0000
     31 H         -15.4973  -69.0369   -0.5598 H         1 UNL1        0.0000
     32 H         -16.1966  -69.8454   -1.9422 H         1 UNL1        0.0000
@<TRIPOS>BOND
     1    1   17 1
     2    1    2 1
     3    1   16 1
     4    1   18 1
     5    2   19 1
     6    2    3 1
     7    2    4 1
     8    3   21 1
     9    3   22 1
    10    3   20 1
    11    4    5 1
    12    4   24 1
    13    4   23 1
    14    5    6 ar
    15    5   10 ar
    16    6    7 ar
    17    6   25 1
    18    7   26 1
    19    7    8 ar
    20    8    9 ar
    21    8   11 1
    22    9   10 ar
    23    9   27 1
    24   10   28 1
    25   11   29 1
    26   11   12 1
    27   11   13 1
    28   12   30 1
    29   12   31 1
    30   12   32 1
    31   13   15 ar
    32   13   14 ar
@<TRIPOS>SUBSTRUCTURE
1 UNL1 1
@<TRIPOS>COMMENT
ibuprofen
PLANTSproteinTorsions
102
4661 13.5002
5386 257.6971
6210 334.6152
5890 239.6863
4461 263.1347
1390 279.6431
2824 147.4899
4339 276.7485
2732 46.5454
4792 227.7464
3407 151.9618
5134 43.6647
6916 265.0825
7370 295.8498
6038 113.2952
7225 125.3662
3592 178.8983
2064 8.7636
2488 130.8008
1253 11.3161
2069 191.5587
2569 29.5365
3058 75.9053
1748 28.2435
1162 237.8304
1509 141.0718
560 162.0883
1627 69.1471
1941 119.2583
3631 69.8389
2381 159.9649
4221 111.3239
4687 145.4308
6983 20.0566
6668 15.7027
7305 51.0539
8693 14.5656
8404 217.4921
9055 301.8737
7052 85.7941
4708 89.5953
2652 167.9705
4332 267.6554
3011 95.5923
2257 78.9041
2778 221.8843
2057 302.0662
192 151.8332
315 294.3655
1085 178.5034
1007 136.7853
1407 184.5641
4816 258.0966
3131 56.7214
4654 267.7442
5144 268.7239
117 271.5229
6 174.8895
259 150.6267
1979 247.6190
2609 228.3271
2623 223.8789
5910 71.4359
5937 272.8929
2062 129.1993
890 60.8881
5008 76.5781
8602 332.8460
8478 116.8833
8300 55.8064
7721 191.8884
8466 158.7183
7852 101.4940
5849 4.6681
6302 218.5190
7439 314.7879
6284 202.3718
6003 75.3944
7165 211.6241
7623 244.3968
8158 139.1994
8667 67.5134
9078 268.9171
8684 115.3221
7666 36.9605
4231 159.5089
1659 229.1509
489 247.6140
238 176.9776
46 235.5315
83 183.7932
254 239.1261
1066 270.3120
2112 267.9165
4047 101.0971
5402 42.6232
2544 269.0812
4670 336.3885
4426 151.6084
5656 219.4517
7040 72.9984
6282 86.0108
PLANTSmolcadARTstart hb
PLANTSmolcadARTstart HB
LINES
PLANTSmolcadARTstart HBCH
LINES
PLANTSmolcadARTstart HB-CHO
LINES
PLANTSmolcadARTend
PLANTSmolcadARTstart HB_WATER
LINES
PLANTSmolcadARTend

PLANTSmolcadARTend

