@<TRIPOS>MOLECULE
ibuprofen_entry_00001_conf_67
32 32 1
SMALL
NO_CHARGES


@<TRIPOS>ATOM
      1 C         -13.5195  -60.4668  -11.8551 C.3       1 UNL1        0.0000
      2 C         -13.6481  -60.9807  -10.4517 C.3       1 UNL1        0.0000
      3 C         -12.3035  -61.1287   -9.8141 C.3       1 UNL1        0.0000
      4 C         -14.5088  -60.0382   -9.6577 C.3       1 UNL1        0.0000
      5 C         -14.1101  -58.6276   -9.8845 C.ar      1 UNL1        0.0000
      6 C         -15.0586  -57.7408  -10.3386 C.ar      1 UNL1        0.0000
      7 C         -14.7368  -56.4326  -10.5617 C.ar      1 UNL1        0.0000
      8 C         -13.4600  -55.9792  -10.3364 C.ar      1 UNL1        0.0000
      9 C         -12.5050  -56.8549   -9.8827 C.ar      1 UNL1        0.0000
     10 C         -12.8325  -58.1751   -9.6587 C.ar      1 UNL1        0.0000
     11 C         -13.0861  -54.5739  -10.5687 C.3       1 UNL1        0.0000
     12 C         -11.8950  -54.2200   -9.6785 C.3       1 UNL1        0.0000
     13 C         -12.7076  -54.4496  -12.0070 C.2       1 UNL1        0.0000
     14 O         -11.9081  -55.2424  -12.5253 O.co2     1 UNL1       -0.5000
     15 O         -13.2601  -53.4424  -12.7454 O.co2     1 UNL1       -0.5000
     16 H         -12.9068  -61.1352  -12.4245 H         1 UNL1        0.0000
     17 H         -13.0696  -59.4961  -11.8400 H         1 UNL1        0.0000
     18 H         -14.4895  -60.4040  -12.3016 H         1 UNL1        0.0000
     19 H         -14.1054  -61.9472  -10.4720 H         1 UNL1        0.0000
     20 H         -11.8190  -60.1751   -9.7789 H         1 UNL1        0.0000
     21 H         -11.7098  -61.8088  -10.3881 H         1 UNL1        0.0000
     22 H         -12.4190  -61.5068   -8.8199 H         1 UNL1        0.0000
     23 H         -14.4090  -60.2663   -8.6174 H         1 UNL1        0.0000
     24 H         -15.5237  -60.1584   -9.9744 H         1 UNL1        0.0000
     25 H         -16.0221  -58.0673  -10.5130 H         1 UNL1        0.0000
     26 H         -15.4596  -55.7792  -10.9027 H         1 UNL1        0.0000
     27 H         -11.5424  -56.5255   -9.7089 H         1 UNL1        0.0000
     28 H         -12.1118  -58.8306   -9.3180 H         1 UNL1        0.0000
     29 H         -13.8937  -53.9109  -10.3376 H         1 UNL1        0.0000
     30 H         -11.0784  -54.8759   -9.8983 H         1 UNL1        0.0000
     31 H         -12.1738  -54.3298   -8.6511 H         1 UNL1        0.0000
     32 H         -11.6009  -53.2082   -9.8624 H         1 UNL1        0.0000
@<TRIPOS>BOND
     1    1   17 1
     2    1    2 1
     3    1   16 1
     4    1   18 1
     5    2   19 1
     6    2    3 1
     7    2    4 1
     8    3   21 1
     9    3   22 1
    10    3   20 1
    11    4    5 1
    12    4   24 1
    13    4   23 1
    14    5    6 ar
    15    5   10 ar
    16    6    7 ar
    17    6   25 1
    18    7   26 1
    19    7    8 ar
    20    8    9 ar
    21    8   11 1
    22    9   10 ar
    23    9   27 1
    24   10   28 1
    25   11   29 1
    26   11   12 1
    27   11   13 1
    28   12   30 1
    29   12   31 1
    30   12   32 1
    31   13   15 ar
    32   13   14 ar
@<TRIPOS>SUBSTRUCTURE
1 UNL1 1
@<TRIPOS>COMMENT
ibuprofen
PLANTSproteinTorsions
102
4661 225.6656
5386 182.2652
6210 46.6099
5890 77.5995
4461 157.4475
1390 168.8881
2824 102.7424
4339 333.7300
2732 23.5613
4792 88.2522
3407 12.3302
5134 98.6644
6916 335.1556
7370 202.8045
6038 108.5167
7225 146.0213
3592 276.8941
2064 31.6979
2488 224.9256
1253 200.5482
2069 165.0478
2569 202.4708
3058 79.0921
1748 37.8717
1162 156.1774
1509 45.3601
560 305.1731
1627 216.1319
1941 144.4906
3631 150.5211
2381 186.1361
4221 30.6345
4687 107.2391
6983 92.9195
6668 100.6454
7305 107.3878
8693 309.0652
8404 15.5048
9055 45.0084
7052 155.2447
4708 304.6985
2652 99.0969
4332 34.6213
3011 32.7910
2257 346.2007
2778 111.3136
2057 55.6073
192 50.0123
315 240.4888
1085 113.6025
1007 329.9249
1407 194.7100
4816 152.1775
3131 170.1311
4654 176.2171
5144 223.2137
117 40.5468
6 76.4333
259 261.1349
1979 75.0683
2609 310.7972
2623 212.8326
5910 64.5070
5937 28.1515
2062 315.4625
890 80.9616
5008 211.6164
8602 15.3414
8478 57.0521
8300 136.0103
7721 79.6876
8466 254.3679
7852 168.3491
5849 134.3323
6302 147.6467
7439 209.5448
6284 259.0329
6003 36.6937
7165 180.2351
7623 211.6589
8158 246.4839
8667 28.9577
9078 250.3624
8684 341.0597
7666 164.7565
4231 197.5140
1659 251.0365
489 220.9418
238 247.1632
46 196.4689
83 173.1120
254 58.1924
1066 272.5928
2112 234.7419
4047 262.4989
5402 232.9405
2544 69.9516
4670 158.0434
4426 190.9379
5656 276.3564
7040 119.6484
6282 213.6412
PLANTSmolcadARTstart hb
PLANTSmolcadARTstart HB
LINES
PLANTSmolcadARTstart HBCH
LINES
-13.2601 -53.4424 -12.7454 -13.709 -51.376 -13.116 255 0 0 5
PLANTSmolcadARTstart HB-CHO
LINES
PLANTSmolcadARTend
PLANTSmolcadARTstart HB_WATER
LINES
PLANTSmolcadARTend

PLANTSmolcadARTend

