@<TRIPOS>MOLECULE
ibuprofen_entry_00001_conf_35
32 32 1
SMALL
NO_CHARGES


@<TRIPOS>ATOM
      1 C         -24.4082  -26.6963    6.4992 C.3       1 UNL1        0.0000
      2 C         -24.7781  -28.1293    6.2549 C.3       1 UNL1        0.0000
      3 C         -25.8830  -28.5566    7.1678 C.3       1 UNL1        0.0000
      4 C         -25.1857  -28.2959    4.8177 C.3       1 UNL1        0.0000
      5 C         -25.5182  -29.7093    4.5148 C.ar      1 UNL1        0.0000
      6 C         -26.4705  -29.9702    3.5570 C.ar      1 UNL1        0.0000
      7 C         -26.8088  -31.2560    3.2456 C.ar      1 UNL1        0.0000
      8 C         -26.2041  -32.3115    3.8834 C.ar      1 UNL1        0.0000
      9 C         -25.2519  -32.0633    4.8407 C.ar      1 UNL1        0.0000
     10 C         -24.9125  -30.7644    5.1535 C.ar      1 UNL1        0.0000
     11 C         -26.5501  -33.7075    3.5668 C.3       1 UNL1        0.0000
     12 C         -27.9416  -33.7467    2.9356 C.3       1 UNL1        0.0000
     13 C         -25.5314  -34.2058    2.5966 C.2       1 UNL1        0.0000
     14 O         -24.6161  -33.4694    2.2009 O.co2     1 UNL1       -0.5000
     15 O         -25.6257  -35.4929    2.1503 O.co2     1 UNL1       -0.5000
     16 H         -24.1173  -26.5729    7.5222 H         1 UNL1        0.0000
     17 H         -25.2498  -26.0697    6.2898 H         1 UNL1        0.0000
     18 H         -23.5934  -26.4252    5.8614 H         1 UNL1        0.0000
     19 H         -23.9315  -28.7503    6.4580 H         1 UNL1        0.0000
     20 H         -26.7474  -27.9519    6.9882 H         1 UNL1        0.0000
     21 H         -25.5710  -28.4390    8.1843 H         1 UNL1        0.0000
     22 H         -26.1217  -29.5832    6.9840 H         1 UNL1        0.0000
     23 H         -24.3794  -27.9841    4.1876 H         1 UNL1        0.0000
     24 H         -26.0552  -27.6980    4.6409 H         1 UNL1        0.0000
     25 H         -26.9339  -29.1872    3.0698 H         1 UNL1        0.0000
     26 H         -27.5256  -31.4359    2.5246 H         1 UNL1        0.0000
     27 H         -24.7900  -32.8485    5.3260 H         1 UNL1        0.0000
     28 H         -24.1965  -30.5817    5.8740 H         1 UNL1        0.0000
     29 H         -26.5569  -34.3179    4.4458 H         1 UNL1        0.0000
     30 H         -27.9504  -33.1396    2.0543 H         1 UNL1        0.0000
     31 H         -28.6599  -33.3709    3.6344 H         1 UNL1        0.0000
     32 H         -28.1879  -34.7552    2.6780 H         1 UNL1        0.0000
@<TRIPOS>BOND
     1    1   17 1
     2    1    2 1
     3    1   16 1
     4    1   18 1
     5    2   19 1
     6    2    3 1
     7    2    4 1
     8    3   21 1
     9    3   22 1
    10    3   20 1
    11    4    5 1
    12    4   24 1
    13    4   23 1
    14    5    6 ar
    15    5   10 ar
    16    6    7 ar
    17    6   25 1
    18    7   26 1
    19    7    8 ar
    20    8    9 ar
    21    8   11 1
    22    9   10 ar
    23    9   27 1
    24   10   28 1
    25   11   29 1
    26   11   12 1
    27   11   13 1
    28   12   30 1
    29   12   31 1
    30   12   32 1
    31   13   15 ar
    32   13   14 ar
@<TRIPOS>SUBSTRUCTURE
1 UNL1 1
@<TRIPOS>COMMENT
ibuprofen
PLANTSproteinTorsions
102
4661 325.7391
5386 115.7567
6210 297.7414
5890 53.5550
4461 95.3060
1390 131.8030
2824 350.5716
4339 66.2482
2732 142.9131
4792 62.5134
3407 2.1949
5134 34.2946
6916 247.7540
7370 124.3785
6038 166.0182
7225 167.8094
3592 166.9939
2064 57.8194
2488 16.3769
1253 312.3191
2069 69.8382
2569 88.1233
3058 180.9068
1748 134.2247
1162 31.1199
1509 76.2406
560 136.2322
1627 153.7032
1941 31.8127
3631 124.3344
2381 26.4948
4221 170.3552
4687 69.2703
6983 114.5098
6668 105.1987
7305 139.4054
8693 88.3433
8404 352.9567
9055 334.0941
7052 120.3258
4708 228.4385
2652 267.2672
4332 337.9912
3011 207.1988
2257 340.5971
2778 353.3763
2057 274.2214
192 110.6694
315 254.8649
1085 118.1492
1007 83.5422
1407 177.6656
4816 41.9537
3131 178.4262
4654 209.1389
5144 202.4689
117 182.3885
6 168.2514
259 314.4489
1979 233.6563
2609 217.1177
2623 125.8719
5910 276.5333
5937 47.4113
2062 49.2990
890 131.0821
5008 285.0602
8602 71.7923
8478 248.3722
8300 215.7635
7721 192.3632
8466 163.9802
7852 210.5571
5849 271.5784
6302 206.4798
7439 132.1326
6284 222.9541
6003 301.2223
7165 278.7255
7623 253.0077
8158 197.7657
8667 328.3528
9078 36.7510
8684 323.7984
7666 299.0210
4231 15.0076
1659 180.1125
489 230.9956
238 143.9036
46 106.7699
83 240.7353
254 131.6721
1066 65.6695
2112 149.0975
4047 155.6694
5402 177.0950
2544 131.6555
4670 264.2672
4426 164.4884
5656 321.5682
7040 183.7552
6282 117.3436
PLANTSmolcadARTstart hb
PLANTSmolcadARTstart HB
LINES
PLANTSmolcadARTstart HBCH
LINES
PLANTSmolcadARTstart HB-CHO
LINES
PLANTSmolcadARTend
PLANTSmolcadARTstart HB_WATER
LINES
PLANTSmolcadARTend

PLANTSmolcadARTend

