@<TRIPOS>MOLECULE
ibuprofen_entry_00001_conf_14
32 32 1
SMALL
NO_CHARGES


@<TRIPOS>ATOM
      1 C         -13.0805  -51.5452    3.2766 C.3       1 UNL1        0.0000
      2 C         -13.0161  -53.0070    2.9464 C.3       1 UNL1        0.0000
      3 C         -12.4246  -53.7829    4.0799 C.3       1 UNL1        0.0000
      4 C         -14.3994  -53.5034    2.6310 C.3       1 UNL1        0.0000
      5 C         -14.3629  -54.8818    2.0843 C.ar      1 UNL1        0.0000
      6 C         -13.6583  -55.1112    0.9253 C.ar      1 UNL1        0.0000
      7 C         -13.5975  -56.3640    0.3854 C.ar      1 UNL1        0.0000
      8 C         -14.2388  -57.4172    0.9903 C.ar      1 UNL1        0.0000
      9 C         -14.9446  -57.2004    2.1477 C.ar      1 UNL1        0.0000
     10 C         -15.0048  -55.9346    2.6904 C.ar      1 UNL1        0.0000
     11 C         -14.1894  -58.7780    0.4295 C.3       1 UNL1        0.0000
     12 C         -14.0468  -58.6876   -1.0896 C.3       1 UNL1        0.0000
     13 C         -12.9968  -59.4552    1.0183 C.2       1 UNL1        0.0000
     14 O         -11.9013  -58.8781    1.0755 O.co2     1 UNL1       -0.5000
     15 O         -13.1342  -60.7275    1.4949 O.co2     1 UNL1       -0.5000
     16 H         -12.0970  -51.1873    3.5023 H         1 UNL1        0.0000
     17 H         -13.7166  -51.3984    4.1244 H         1 UNL1        0.0000
     18 H         -13.4722  -51.0079    2.4387 H         1 UNL1        0.0000
     19 H         -12.3857  -53.1473    2.0940 H         1 UNL1        0.0000
     20 H         -13.0349  -53.6624    4.9508 H         1 UNL1        0.0000
     21 H         -11.4386  -53.4211    4.2833 H         1 UNL1        0.0000
     22 H         -12.3779  -54.8191    3.8180 H         1 UNL1        0.0000
     23 H         -14.8477  -52.8533    1.9095 H         1 UNL1        0.0000
     24 H         -14.9701  -53.5130    3.5360 H         1 UNL1        0.0000
     25 H         -13.1719  -54.3293    0.4592 H         1 UNL1        0.0000
     26 H         -13.0648  -56.5203   -0.4851 H         1 UNL1        0.0000
     27 H         -15.4299  -57.9844    2.6117 H         1 UNL1        0.0000
     28 H         -15.5368  -55.7754    3.5603 H         1 UNL1        0.0000
     29 H         -15.0793  -59.3273    0.6566 H         1 UNL1        0.0000
     30 H         -13.1601  -58.1398   -1.3324 H         1 UNL1        0.0000
     31 H         -14.8991  -58.1850   -1.4976 H         1 UNL1        0.0000
     32 H         -13.9827  -59.6729   -1.5009 H         1 UNL1        0.0000
@<TRIPOS>BOND
     1    1   17 1
     2    1    2 1
     3    1   16 1
     4    1   18 1
     5    2   19 1
     6    2    3 1
     7    2    4 1
     8    3   21 1
     9    3   22 1
    10    3   20 1
    11    4    5 1
    12    4   24 1
    13    4   23 1
    14    5    6 ar
    15    5   10 ar
    16    6    7 ar
    17    6   25 1
    18    7   26 1
    19    7    8 ar
    20    8    9 ar
    21    8   11 1
    22    9   10 ar
    23    9   27 1
    24   10   28 1
    25   11   29 1
    26   11   12 1
    27   11   13 1
    28   12   30 1
    29   12   31 1
    30   12   32 1
    31   13   15 ar
    32   13   14 ar
@<TRIPOS>SUBSTRUCTURE
1 UNL1 1
@<TRIPOS>COMMENT
ibuprofen
PLANTSproteinTorsions
102
4661 252.3957
5386 322.1547
6210 134.3359
5890 22.6497
4461 166.5361
1390 329.7031
2824 123.5105
4339 94.8041
2732 124.9253
4792 37.2143
3407 15.5383
5134 322.0303
6916 292.9183
7370 216.0227
6038 158.9474
7225 248.0172
3592 144.8929
2064 342.0535
2488 6.2691
1253 198.4877
2069 292.9071
2569 86.1559
3058 33.3028
1748 265.8662
1162 92.2224
1509 118.5857
560 260.1393
1627 282.7452
1941 17.3460
3631 122.6809
2381 349.9325
4221 92.4352
4687 213.2253
6983 223.3112
6668 101.9256
7305 125.7310
8693 107.2605
8404 162.4191
9055 99.7998
7052 183.1461
4708 283.6197
2652 73.2009
4332 321.1631
3011 193.5508
2257 137.4549
2778 99.9124
2057 313.4535
192 52.8088
315 215.1243
1085 214.4572
1007 167.1273
1407 155.5987
4816 61.7737
3131 174.6215
4654 193.5130
5144 246.5271
117 259.6610
6 183.6312
259 10.2755
1979 102.6701
2609 83.0649
2623 248.5880
5910 267.7694
5937 22.4805
2062 75.2798
890 306.6366
5008 263.0018
8602 183.0900
8478 88.0234
8300 267.6432
7721 255.8632
8466 26.6210
7852 256.0837
5849 105.8384
6302 332.0092
7439 72.0517
6284 64.5101
6003 77.2777
7165 236.6935
7623 206.8257
8158 321.3997
8667 202.6809
9078 76.7071
8684 262.4568
7666 193.5518
4231 221.8042
1659 202.5493
489 59.7087
238 221.8794
46 270.9352
83 207.2003
254 261.3981
1066 174.0578
2112 136.7491
4047 206.0112
5402 179.9875
2544 149.1281
4670 262.8029
4426 156.4389
5656 265.9390
7040 98.1317
6282 171.6083
PLANTSmolcadARTstart hb
PLANTSmolcadARTstart HB
LINES
PLANTSmolcadARTstart HBCH
LINES
PLANTSmolcadARTstart HB-CHO
LINES
PLANTSmolcadARTend
PLANTSmolcadARTstart HB_WATER
LINES
PLANTSmolcadARTend

PLANTSmolcadARTend

