@<TRIPOS>MOLECULE
ibuprofen_entry_00001_conf_56
32 32 1
SMALL
NO_CHARGES


@<TRIPOS>ATOM
      1 C         -10.8446  -67.1815   -7.7681 C.3       1 UNL1        0.0000
      2 C         -12.0229  -67.6843   -8.5482 C.3       1 UNL1        0.0000
      3 C         -12.1605  -69.1668   -8.4078 C.3       1 UNL1        0.0000
      4 C         -13.2663  -66.9901   -8.0669 C.3       1 UNL1        0.0000
      5 C         -13.1948  -65.5293   -8.3140 C.ar      1 UNL1        0.0000
      6 C         -13.0569  -65.0874   -9.6094 C.ar      1 UNL1        0.0000
      7 C         -12.9866  -63.7516   -9.8842 C.ar      1 UNL1        0.0000
      8 C         -13.0523  -62.8258   -8.8718 C.ar      1 UNL1        0.0000
      9 C         -13.1905  -63.2550   -7.5752 C.ar      1 UNL1        0.0000
     10 C         -13.2608  -64.6040   -7.3004 C.ar      1 UNL1        0.0000
     11 C         -12.9790  -61.3797   -9.1403 C.3       1 UNL1        0.0000
     12 C         -11.7564  -61.0946  -10.0122 C.3       1 UNL1        0.0000
     13 C         -14.2272  -61.0014   -9.8658 C.2       1 UNL1        0.0000
     14 O         -14.2013  -60.7218  -11.0732 O.co2     1 UNL1       -0.5000
     15 O         -15.4036  -60.9685   -9.1732 O.co2     1 UNL1       -0.5000
     16 H          -9.9563  -67.6736   -8.1076 H         1 UNL1        0.0000
     17 H         -10.9908  -67.3870   -6.7283 H         1 UNL1        0.0000
     18 H         -10.7455  -66.1263   -7.9133 H         1 UNL1        0.0000
     19 H         -11.8754  -67.4693   -9.5854 H         1 UNL1        0.0000
     20 H         -12.3100  -69.4147   -7.3775 H         1 UNL1        0.0000
     21 H         -11.2706  -69.6426   -8.7630 H         1 UNL1        0.0000
     22 H         -12.9987  -69.5040   -8.9807 H         1 UNL1        0.0000
     23 H         -13.3779  -67.1616   -7.0169 H         1 UNL1        0.0000
     24 H         -14.1035  -67.3840   -8.6043 H         1 UNL1        0.0000
     25 H         -13.0054  -65.7715  -10.3805 H         1 UNL1        0.0000
     26 H         -12.8829  -63.4354  -10.8615 H         1 UNL1        0.0000
     27 H         -13.2419  -62.5685   -6.8061 H         1 UNL1        0.0000
     28 H         -13.3642  -64.9230   -6.3243 H         1 UNL1        0.0000
     29 H         -12.8904  -60.8175   -8.2340 H         1 UNL1        0.0000
     30 H         -11.8309  -61.6509  -10.9233 H         1 UNL1        0.0000
     31 H         -10.8700  -61.3860   -9.4880 H         1 UNL1        0.0000
     32 H         -11.7126  -60.0490  -10.2337 H         1 UNL1        0.0000
@<TRIPOS>BOND
     1    1   17 1
     2    1    2 1
     3    1   16 1
     4    1   18 1
     5    2   19 1
     6    2    3 1
     7    2    4 1
     8    3   21 1
     9    3   22 1
    10    3   20 1
    11    4    5 1
    12    4   24 1
    13    4   23 1
    14    5    6 ar
    15    5   10 ar
    16    6    7 ar
    17    6   25 1
    18    7   26 1
    19    7    8 ar
    20    8    9 ar
    21    8   11 1
    22    9   10 ar
    23    9   27 1
    24   10   28 1
    25   11   29 1
    26   11   12 1
    27   11   13 1
    28   12   30 1
    29   12   31 1
    30   12   32 1
    31   13   15 ar
    32   13   14 ar
@<TRIPOS>SUBSTRUCTURE
1 UNL1 1
@<TRIPOS>COMMENT
ibuprofen
PLANTSproteinTorsions
102
4661 14.7071
5386 228.8150
6210 339.4322
5890 55.8444
4461 259.8070
1390 93.6916
2824 70.8418
4339 94.7358
2732 243.6431
4792 73.4741
3407 351.6631
5134 83.7775
6916 165.9384
7370 263.3345
6038 113.6374
7225 194.6390
3592 136.5024
2064 185.5389
2488 138.5410
1253 184.2211
2069 190.3994
2569 328.9438
3058 57.5806
1748 128.5442
1162 2.6419
1509 68.7271
560 176.8243
1627 278.7360
1941 102.1856
3631 15.2860
2381 123.3759
4221 14.6072
4687 93.7707
6983 251.8172
6668 80.2838
7305 41.1135
8693 14.1890
8404 295.2094
9055 131.3534
7052 128.4468
4708 259.6068
2652 188.8573
4332 291.4001
3011 277.1226
2257 84.8092
2778 32.9708
2057 21.3142
192 280.9017
315 236.8026
1085 239.0226
1007 22.1147
1407 282.7480
4816 223.6273
3131 193.3500
4654 267.8635
5144 220.2613
117 260.6163
6 226.0909
259 354.6764
1979 231.7754
2609 108.2891
2623 167.5548
5910 96.8574
5937 266.6207
2062 86.4210
890 120.6902
5008 46.9556
8602 273.4436
8478 146.0608
8300 182.3552
7721 105.8036
8466 73.5903
7852 122.0226
5849 104.2368
6302 262.4474
7439 212.6526
6284 238.8487
6003 217.9358
7165 222.1650
7623 267.7708
8158 166.6285
8667 75.0014
9078 152.1453
8684 62.0621
7666 53.0529
4231 165.9824
1659 250.1757
489 190.5044
238 230.7841
46 231.8456
83 266.7443
254 270.9568
1066 247.0867
2112 263.3787
4047 62.5379
5402 125.6869
2544 227.2628
4670 61.7133
4426 229.1660
5656 293.0702
7040 82.2893
6282 243.6166
PLANTSmolcadARTstart hb
PLANTSmolcadARTstart HB
LINES
-15.4036 -60.9685 -9.17319 -16.906 -61.855 -10.356 0 255 0 5
PLANTSmolcadARTstart HBCH
LINES
PLANTSmolcadARTstart HB-CHO
LINES
PLANTSmolcadARTend
PLANTSmolcadARTstart HB_WATER
LINES
PLANTSmolcadARTend

PLANTSmolcadARTend

