@<TRIPOS>MOLECULE
ibuprofen_entry_00001_conf_53
32 32 1
SMALL
NO_CHARGES


@<TRIPOS>ATOM
      1 C         -13.1133  -65.3012   -4.6167 C.3       1 UNL1        0.0000
      2 C         -13.0754  -64.7444   -6.0091 C.3       1 UNL1        0.0000
      3 C         -13.7586  -65.6654   -6.9691 C.3       1 UNL1        0.0000
      4 C         -13.7302  -63.3914   -6.0177 C.3       1 UNL1        0.0000
      5 C         -13.7253  -62.8018   -7.3788 C.ar      1 UNL1        0.0000
      6 C         -14.6780  -61.8599   -7.6909 C.ar      1 UNL1        0.0000
      7 C         -14.7120  -61.2904   -8.9316 C.ar      1 UNL1        0.0000
      8 C         -13.7952  -61.6483   -9.8898 C.ar      1 UNL1        0.0000
      9 C         -12.8394  -62.5868   -9.5895 C.ar      1 UNL1        0.0000
     10 C         -12.8075  -63.1605   -8.3364 C.ar      1 UNL1        0.0000
     11 C         -13.8091  -61.0499  -11.2353 C.3       1 UNL1        0.0000
     12 C         -12.3695  -60.8442  -11.7057 C.3       1 UNL1        0.0000
     13 C         -14.5127  -62.0083  -12.1375 C.2       1 UNL1        0.0000
     14 O         -15.0887  -63.0062  -11.6805 O.co2     1 UNL1       -0.5000
     15 O         -14.5107  -61.7655  -13.4813 O.co2     1 UNL1       -0.5000
     16 H         -12.6480  -66.2654   -4.6059 H         1 UNL1        0.0000
     17 H         -14.1300  -65.3923   -4.2962 H         1 UNL1        0.0000
     18 H         -12.5880  -64.6441   -3.9561 H         1 UNL1        0.0000
     19 H         -12.0572  -64.6479   -6.3214 H         1 UNL1        0.0000
     20 H         -14.7830  -65.7825   -6.6825 H         1 UNL1        0.0000
     21 H         -13.2736  -66.6188   -6.9548 H         1 UNL1        0.0000
     22 H         -13.7092  -65.2543   -7.9556 H         1 UNL1        0.0000
     23 H         -13.1990  -62.7421   -5.3540 H         1 UNL1        0.0000
     24 H         -14.7460  -63.5048   -5.7013 H         1 UNL1        0.0000
     25 H         -15.3739  -61.5816   -6.9813 H         1 UNL1        0.0000
     26 H         -15.4332  -60.5851   -9.1510 H         1 UNL1        0.0000
     27 H         -12.1446  -62.8630  -10.3011 H         1 UNL1        0.0000
     28 H         -12.0878  -63.8660   -8.1145 H         1 UNL1        0.0000
     29 H         -14.3074  -60.1028  -11.2371 H         1 UNL1        0.0000
     30 H         -11.8578  -61.7841  -11.7088 H         1 UNL1        0.0000
     31 H         -11.8712  -60.1692  -11.0412 H         1 UNL1        0.0000
     32 H         -12.3725  -60.4350  -12.6940 H         1 UNL1        0.0000
@<TRIPOS>BOND
     1    1   17 1
     2    1    2 1
     3    1   16 1
     4    1   18 1
     5    2   19 1
     6    2    3 1
     7    2    4 1
     8    3   21 1
     9    3   22 1
    10    3   20 1
    11    4    5 1
    12    4   24 1
    13    4   23 1
    14    5    6 ar
    15    5   10 ar
    16    6    7 ar
    17    6   25 1
    18    7   26 1
    19    7    8 ar
    20    8    9 ar
    21    8   11 1
    22    9   10 ar
    23    9   27 1
    24   10   28 1
    25   11   29 1
    26   11   12 1
    27   11   13 1
    28   12   30 1
    29   12   31 1
    30   12   32 1
    31   13   15 ar
    32   13   14 ar
@<TRIPOS>SUBSTRUCTURE
1 UNL1 1
@<TRIPOS>COMMENT
ibuprofen
PLANTSproteinTorsions
102
4661 86.5272
5386 188.8676
6210 349.0960
5890 94.4287
4461 349.1079
1390 218.1695
2824 80.1585
4339 36.1695
2732 87.6953
4792 30.9292
3407 195.5239
5134 81.0763
6916 74.2315
7370 357.9434
6038 233.3123
7225 167.9042
3592 125.9026
2064 60.2573
2488 228.5228
1253 195.2232
2069 169.2702
2569 96.1566
3058 66.2188
1748 297.4678
1162 135.2428
1509 323.9914
560 38.2577
1627 54.5594
1941 269.0359
3631 196.3406
2381 199.5003
4221 190.0329
4687 238.8707
6983 158.9909
6668 112.4654
7305 261.9816
8693 116.1653
8404 320.8791
9055 167.1810
7052 214.4931
4708 120.1518
2652 52.3977
4332 17.7221
3011 71.1612
2257 265.5325
2778 81.1915
2057 186.0484
192 108.0023
315 130.9562
1085 222.5166
1007 164.4449
1407 200.2616
4816 45.5360
3131 275.9438
4654 139.6265
5144 264.2405
117 122.7243
6 67.7141
259 69.3925
1979 25.6568
2609 284.8763
2623 7.9616
5910 143.5680
5937 48.2955
2062 323.6089
890 289.2867
5008 237.4745
8602 246.8929
8478 85.7706
8300 131.0462
7721 122.9178
8466 224.1695
7852 52.2340
5849 27.1848
6302 40.3814
7439 201.2428
6284 348.0886
6003 51.5166
7165 276.7029
7623 164.4760
8158 213.1921
8667 117.0491
9078 343.2119
8684 106.4199
7666 148.9988
4231 247.3763
1659 45.8792
489 265.8704
238 205.1958
46 53.2117
83 205.1511
254 320.7348
1066 249.9358
2112 159.1271
4047 176.0569
5402 66.5190
2544 145.8973
4670 208.9333
4426 229.2721
5656 185.5803
7040 150.4458
6282 76.0045
PLANTSmolcadARTstart hb
PLANTSmolcadARTstart HB
LINES
PLANTSmolcadARTstart HBCH
LINES
PLANTSmolcadARTstart HB-CHO
LINES
PLANTSmolcadARTend
PLANTSmolcadARTstart HB_WATER
LINES
PLANTSmolcadARTend

PLANTSmolcadARTend

