@<TRIPOS>MOLECULE
ibuprofen_entry_00001_conf_94
32 32 1
SMALL
NO_CHARGES


@<TRIPOS>ATOM
      1 C           2.0068  -66.6217    2.0294 C.3       1 UNL1        0.0000
      2 C           1.0554  -65.5897    2.5583 C.3       1 UNL1        0.0000
      3 C          -0.0014  -65.2732    1.5486 C.3       1 UNL1        0.0000
      4 C           0.4358  -66.0956    3.8310 C.3       1 UNL1        0.0000
      5 C          -0.5784  -65.1449    4.3487 C.ar      1 UNL1        0.0000
      6 C          -1.7959  -65.6391    4.7555 C.ar      1 UNL1        0.0000
      7 C          -2.7598  -64.8011    5.2386 C.ar      1 UNL1        0.0000
      8 C          -2.5304  -63.4498    5.3268 C.ar      1 UNL1        0.0000
      9 C          -1.3188  -62.9452    4.9243 C.ar      1 UNL1        0.0000
     10 C          -0.3475  -63.7933    4.4366 C.ar      1 UNL1        0.0000
     11 C          -3.5522  -62.5239    5.8439 C.3       1 UNL1        0.0000
     12 C          -2.9724  -61.7504    7.0278 C.3       1 UNL1        0.0000
     13 C          -3.8983  -61.5851    4.7365 C.2       1 UNL1        0.0000
     14 O          -4.9455  -61.7247    4.0882 O.co2     1 UNL1       -0.5000
     15 O          -3.0372  -60.5651    4.4487 O.co2     1 UNL1       -0.5000
     16 H           2.4505  -66.2656    1.1224 H         1 UNL1        0.0000
     17 H           1.4759  -67.5299    1.8340 H         1 UNL1        0.0000
     18 H           2.7727  -66.8043    2.7536 H         1 UNL1        0.0000
     19 H           1.5923  -64.6870    2.7594 H         1 UNL1        0.0000
     20 H          -0.5581  -66.1596    1.3257 H         1 UNL1        0.0000
     21 H           0.4582  -64.9072    0.6545 H         1 UNL1        0.0000
     22 H          -0.6603  -64.5280    1.9423 H         1 UNL1        0.0000
     23 H           1.2024  -66.2229    4.5661 H         1 UNL1        0.0000
     24 H          -0.0476  -67.0276    3.6250 H         1 UNL1        0.0000
     25 H          -1.9830  -66.6523    4.6944 H         1 UNL1        0.0000
     26 H          -3.6688  -65.1870    5.5398 H         1 UNL1        0.0000
     27 H          -1.1345  -61.9315    4.9867 H         1 UNL1        0.0000
     28 H           0.5619  -63.4102    4.1345 H         1 UNL1        0.0000
     29 H          -4.4247  -63.0487    6.1734 H         1 UNL1        0.0000
     30 H          -2.0978  -61.2201    6.7132 H         1 UNL1        0.0000
     31 H          -2.7124  -62.4359    7.8075 H         1 UNL1        0.0000
     32 H          -3.7006  -61.0562    7.3911 H         1 UNL1        0.0000
@<TRIPOS>BOND
     1    1   17 1
     2    1    2 1
     3    1   16 1
     4    1   18 1
     5    2   19 1
     6    2    3 1
     7    2    4 1
     8    3   21 1
     9    3   22 1
    10    3   20 1
    11    4    5 1
    12    4   24 1
    13    4   23 1
    14    5    6 ar
    15    5   10 ar
    16    6    7 ar
    17    6   25 1
    18    7   26 1
    19    7    8 ar
    20    8    9 ar
    21    8   11 1
    22    9   10 ar
    23    9   27 1
    24   10   28 1
    25   11   29 1
    26   11   12 1
    27   11   13 1
    28   12   30 1
    29   12   31 1
    30   12   32 1
    31   13   15 ar
    32   13   14 ar
@<TRIPOS>SUBSTRUCTURE
1 UNL1 1
@<TRIPOS>COMMENT
ibuprofen
PLANTSproteinTorsions
102
4661 47.8770
5386 117.3187
6210 101.0289
5890 132.3828
4461 114.6887
1390 204.2789
2824 321.0919
4339 341.6466
2732 44.4754
4792 221.4495
3407 243.6464
5134 148.0723
6916 214.0262
7370 65.1219
6038 232.4689
7225 282.8993
3592 239.7048
2064 343.2791
2488 34.9201
1253 190.0563
2069 268.3510
2569 331.7531
3058 135.3994
1748 125.0458
1162 284.0544
1509 71.9863
560 108.9602
1627 107.9506
1941 85.9569
3631 84.6290
2381 73.6864
4221 122.2379
4687 211.0488
6983 224.3820
6668 284.5886
7305 341.8311
8693 218.7353
8404 105.9625
9055 222.6298
7052 105.7996
4708 90.8110
2652 210.4757
4332 100.6193
3011 115.9648
2257 38.5728
2778 289.0442
2057 5.6380
192 197.8252
315 334.8772
1085 97.5405
1007 347.3494
1407 270.4839
4816 124.0408
3131 268.6231
4654 280.9099
5144 116.9272
117 59.9287
6 94.6034
259 234.6717
1979 172.9537
2609 131.8814
2623 128.7628
5910 18.8253
5937 184.5653
2062 70.6365
890 63.2687
5008 55.8981
8602 330.7542
8478 121.0338
8300 75.9380
7721 279.8127
8466 125.0150
7852 265.2316
5849 137.1066
6302 162.5239
7439 98.9311
6284 23.9517
6003 135.0783
7165 131.3970
7623 181.3104
8158 40.8983
8667 311.6031
9078 166.6535
8684 249.5293
7666 107.4688
4231 150.8847
1659 17.7381
489 87.5771
238 214.3269
46 104.2254
83 210.4443
254 187.2743
1066 259.1229
2112 246.7230
4047 301.9921
5402 246.0243
2544 163.6605
4670 44.6786
4426 236.4695
5656 146.0540
7040 217.6907
6282 98.5177
PLANTSmolcadARTstart hb
PLANTSmolcadARTstart HB
LINES
-3.03721 -60.5651 4.44865 -2.56311 -59.7095 2.71701 0 255 0 5
PLANTSmolcadARTstart HBCH
LINES
PLANTSmolcadARTstart HB-CHO
LINES
PLANTSmolcadARTend
PLANTSmolcadARTstart HB_WATER
LINES
PLANTSmolcadARTend

PLANTSmolcadARTend

