@<TRIPOS>MOLECULE
ibuprofen_entry_00001_conf_63
32 32 1
SMALL
NO_CHARGES


@<TRIPOS>ATOM
      1 C         -12.1624  -43.1490   -0.4141 C.3       1 UNL1        0.0000
      2 C         -12.6800  -41.7421   -0.4664 C.3       1 UNL1        0.0000
      3 C         -12.1388  -41.0200   -1.6589 C.3       1 UNL1        0.0000
      4 C         -14.1825  -41.7697   -0.5021 C.3       1 UNL1        0.0000
      5 C         -14.7434  -40.3971   -0.5410 C.ar      1 UNL1        0.0000
      6 C         -14.6381  -39.6115    0.5833 C.ar      1 UNL1        0.0000
      7 C         -15.1403  -38.3417    0.5934 C.ar      1 UNL1        0.0000
      8 C         -15.7594  -37.8266   -0.5192 C.ar      1 UNL1        0.0000
      9 C         -15.8698  -38.6011   -1.6473 C.ar      1 UNL1        0.0000
     10 C         -15.3624  -39.8828   -1.6547 C.ar      1 UNL1        0.0000
     11 C         -16.3095  -36.4606   -0.5354 C.3       1 UNL1        0.0000
     12 C         -17.4921  -36.4096   -1.5025 C.3       1 UNL1        0.0000
     13 C         -16.7661  -36.1520    0.8516 C.2       1 UNL1        0.0000
     14 O         -16.4214  -35.1038    1.4163 O.co2     1 UNL1       -0.5000
     15 O         -17.5739  -37.0487    1.4905 O.co2     1 UNL1       -0.5000
     16 H         -11.0922  -43.1341   -0.3887 H         1 UNL1        0.0000
     17 H         -12.4911  -43.6827   -1.2813 H         1 UNL1        0.0000
     18 H         -12.5335  -43.6325    0.4650 H         1 UNL1        0.0000
     19 H         -12.3554  -41.2156    0.4061 H         1 UNL1        0.0000
     20 H         -12.4475  -41.5242   -2.5510 H         1 UNL1        0.0000
     21 H         -11.0701  -41.0035   -1.6109 H         1 UNL1        0.0000
     22 H         -12.5113  -40.0172   -1.6692 H         1 UNL1        0.0000
     23 H         -14.5435  -42.2699    0.3718 H         1 UNL1        0.0000
     24 H         -14.4905  -42.2867   -1.3868 H         1 UNL1        0.0000
     25 H         -14.1761  -39.9854    1.4271 H         1 UNL1        0.0000
     26 H         -15.0538  -37.7644    1.4448 H         1 UNL1        0.0000
     27 H         -16.3322  -38.2244   -2.4897 H         1 UNL1        0.0000
     28 H         -15.4478  -40.4623   -2.5044 H         1 UNL1        0.0000
     29 H         -15.5775  -35.7478   -0.8536 H         1 UNL1        0.0000
     30 H         -18.2333  -37.1184   -1.1968 H         1 UNL1        0.0000
     31 H         -17.1550  -36.6495   -2.4895 H         1 UNL1        0.0000
     32 H         -17.9137  -35.4265   -1.4984 H         1 UNL1        0.0000
@<TRIPOS>BOND
     1    1   17 1
     2    1    2 1
     3    1   16 1
     4    1   18 1
     5    2   19 1
     6    2    3 1
     7    2    4 1
     8    3   21 1
     9    3   22 1
    10    3   20 1
    11    4    5 1
    12    4   24 1
    13    4   23 1
    14    5    6 ar
    15    5   10 ar
    16    6    7 ar
    17    6   25 1
    18    7   26 1
    19    7    8 ar
    20    8    9 ar
    21    8   11 1
    22    9   10 ar
    23    9   27 1
    24   10   28 1
    25   11   29 1
    26   11   12 1
    27   11   13 1
    28   12   30 1
    29   12   31 1
    30   12   32 1
    31   13   15 ar
    32   13   14 ar
@<TRIPOS>SUBSTRUCTURE
1 UNL1 1
@<TRIPOS>COMMENT
ibuprofen
PLANTSproteinTorsions
102
4661 257.3931
5386 111.1664
6210 125.2829
5890 242.8766
4461 10.5469
1390 44.2799
2824 355.4062
4339 320.3334
2732 225.1165
4792 183.5426
3407 51.3043
5134 147.0158
6916 180.1167
7370 101.0033
6038 56.5264
7225 258.9857
3592 9.3413
2064 96.7460
2488 72.1750
1253 149.4378
2069 172.6659
2569 232.7880
3058 287.3362
1748 105.1586
1162 203.9707
1509 126.6679
560 147.9077
1627 22.6651
1941 87.1138
3631 347.5923
2381 84.3129
4221 238.8099
4687 72.6756
6983 128.7375
6668 72.8407
7305 333.1788
8693 231.6464
8404 108.4448
9055 246.4846
7052 235.5867
4708 102.7593
2652 188.8201
4332 102.1370
3011 39.0131
2257 126.1818
2778 91.2725
2057 279.7575
192 81.5408
315 99.8863
1085 267.1123
1007 217.4290
1407 65.4276
4816 152.9662
3131 71.8440
4654 258.1960
5144 120.5626
117 58.5805
6 40.6503
259 245.8920
1979 31.9820
2609 235.0810
2623 100.8903
5910 281.9611
5937 89.0672
2062 292.5146
890 96.6552
5008 140.3938
8602 287.7186
8478 215.5368
8300 78.8733
7721 111.8925
8466 127.3672
7852 295.4752
5849 100.1231
6302 36.2635
7439 230.0930
6284 140.3396
6003 59.5748
7165 83.5848
7623 110.6956
8158 188.7694
8667 208.8627
9078 131.9261
8684 188.9285
7666 140.0353
4231 138.9760
1659 130.9377
489 128.1075
238 156.1825
46 171.3529
83 280.4310
254 236.3597
1066 113.4876
2112 263.6385
4047 51.9061
5402 199.7227
2544 220.1013
4670 315.7393
4426 258.0722
5656 172.6834
7040 199.1846
6282 219.2030
PLANTSmolcadARTstart hb
PLANTSmolcadARTstart HB
LINES
PLANTSmolcadARTstart HBCH
LINES
PLANTSmolcadARTstart HB-CHO
LINES
PLANTSmolcadARTend
PLANTSmolcadARTstart HB_WATER
LINES
PLANTSmolcadARTend

PLANTSmolcadARTend

