@<TRIPOS>MOLECULE
ibuprofen_entry_00001_conf_95
32 32 1
SMALL
NO_CHARGES


@<TRIPOS>ATOM
      1 C         -14.4677  -57.7374  -10.1942 C.3       1 UNL1        0.0000
      2 C         -13.9159  -59.0888  -10.5394 C.3       1 UNL1        0.0000
      3 C         -12.5824  -59.2991   -9.8960 C.3       1 UNL1        0.0000
      4 C         -14.8884  -60.1466  -10.0983 C.3       1 UNL1        0.0000
      5 C         -14.2977  -61.5019  -10.2185 C.ar      1 UNL1        0.0000
      6 C         -13.6687  -62.0448   -9.1222 C.ar      1 UNL1        0.0000
      7 C         -13.1103  -63.2893   -9.1868 C.ar      1 UNL1        0.0000
      8 C         -13.1671  -64.0209  -10.3479 C.ar      1 UNL1        0.0000
      9 C         -13.7928  -63.4896  -11.4483 C.ar      1 UNL1        0.0000
     10 C         -14.3553  -62.2329  -11.3805 C.ar      1 UNL1        0.0000
     11 C         -12.5734  -65.3651  -10.4448 C.3       1 UNL1        0.0000
     12 C         -13.6910  -66.3942  -10.6126 C.3       1 UNL1        0.0000
     13 C         -11.6856  -65.3702  -11.6445 C.2       1 UNL1        0.0000
     14 O         -10.8581  -64.4656  -11.8274 O.co2     1 UNL1       -0.5000
     15 O         -11.8014  -66.3935  -12.5413 O.co2     1 UNL1       -0.5000
     16 H         -13.7779  -56.9804  -10.5066 H         1 UNL1        0.0000
     17 H         -14.6146  -57.6713   -9.1365 H         1 UNL1        0.0000
     18 H         -15.4027  -57.5962  -10.6943 H         1 UNL1        0.0000
     19 H         -13.7785  -59.1523  -11.5981 H         1 UNL1        0.0000
     20 H         -12.6870  -59.2413   -8.8325 H         1 UNL1        0.0000
     21 H         -11.9029  -58.5427  -10.2286 H         1 UNL1        0.0000
     22 H         -12.2036  -60.2628  -10.1650 H         1 UNL1        0.0000
     23 H         -15.7647  -60.0921  -10.7093 H         1 UNL1        0.0000
     24 H         -15.1336  -59.9739   -9.0712 H         1 UNL1        0.0000
     25 H         -13.6176  -61.5064   -8.2431 H         1 UNL1        0.0000
     26 H         -12.6414  -63.6832   -8.3557 H         1 UNL1        0.0000
     27 H         -13.8425  -64.0305  -12.3260 H         1 UNL1        0.0000
     28 H         -14.8245  -61.8366  -12.2099 H         1 UNL1        0.0000
     29 H         -12.0133  -65.6097   -9.5663 H         1 UNL1        0.0000
     30 H         -14.2607  -66.1621  -11.4883 H         1 UNL1        0.0000
     31 H         -14.3300  -66.3684   -9.7544 H         1 UNL1        0.0000
     32 H         -13.2649  -67.3703  -10.7111 H         1 UNL1        0.0000
@<TRIPOS>BOND
     1    1   17 1
     2    1    2 1
     3    1   16 1
     4    1   18 1
     5    2   19 1
     6    2    3 1
     7    2    4 1
     8    3   21 1
     9    3   22 1
    10    3   20 1
    11    4    5 1
    12    4   24 1
    13    4   23 1
    14    5    6 ar
    15    5   10 ar
    16    6    7 ar
    17    6   25 1
    18    7   26 1
    19    7    8 ar
    20    8    9 ar
    21    8   11 1
    22    9   10 ar
    23    9   27 1
    24   10   28 1
    25   11   29 1
    26   11   12 1
    27   11   13 1
    28   12   30 1
    29   12   31 1
    30   12   32 1
    31   13   15 ar
    32   13   14 ar
@<TRIPOS>SUBSTRUCTURE
1 UNL1 1
@<TRIPOS>COMMENT
ibuprofen
PLANTSproteinTorsions
102
4661 88.1423
5386 196.9634
6210 94.3838
5890 201.7936
4461 137.3904
1390 54.7899
2824 274.7561
4339 8.5101
2732 72.5399
4792 199.3572
3407 117.7410
5134 10.2158
6916 72.6600
7370 258.1428
6038 63.2369
7225 25.4657
3592 39.6511
2064 246.2379
2488 96.1849
1253 77.5503
2069 241.4250
2569 221.4562
3058 201.3908
1748 46.9333
1162 46.0502
1509 15.2925
560 264.2953
1627 232.7996
1941 201.9030
3631 164.8094
2381 181.1049
4221 29.3468
4687 3.2693
6983 71.0452
6668 53.0952
7305 228.5870
8693 98.4922
8404 50.5590
9055 62.2512
7052 202.8233
4708 254.0272
2652 77.0283
4332 30.1370
3011 207.1180
2257 268.6296
2778 182.3405
2057 153.6777
192 194.9206
315 133.1308
1085 105.9362
1007 21.8769
1407 195.6420
4816 176.0159
3131 21.4583
4654 112.2688
5144 350.1077
117 171.8329
6 178.4417
259 224.1871
1979 217.3635
2609 149.2318
2623 19.6881
5910 197.5441
5937 320.5958
2062 262.1344
890 67.3831
5008 292.5369
8602 107.2432
8478 22.8504
8300 153.6378
7721 194.8696
8466 229.3171
7852 69.0935
5849 232.1217
6302 163.3398
7439 150.4149
6284 137.7946
6003 115.4548
7165 150.8528
7623 90.1622
8158 293.6290
8667 80.8802
9078 143.7297
8684 216.9941
7666 123.5687
4231 229.2800
1659 109.0948
489 310.6768
238 143.3476
46 161.7585
83 181.9663
254 210.2748
1066 271.6541
2112 98.3630
4047 174.9359
5402 244.1047
2544 30.0295
4670 169.6094
4426 259.4617
5656 116.0166
7040 154.2731
6282 248.2127
PLANTSmolcadARTstart hb
PLANTSmolcadARTstart HB
LINES
PLANTSmolcadARTstart HBCH
LINES
PLANTSmolcadARTstart HB-CHO
LINES
PLANTSmolcadARTend
PLANTSmolcadARTstart HB_WATER
LINES
PLANTSmolcadARTend

PLANTSmolcadARTend

