@<TRIPOS>MOLECULE
ibuprofen_entry_00001_conf_28
32 32 1
SMALL
NO_CHARGES


@<TRIPOS>ATOM
      1 C          -0.0358  -61.2923   -1.1272 C.3       1 UNL1        0.0000
      2 C          -0.5331  -60.0587   -1.8207 C.3       1 UNL1        0.0000
      3 C          -0.3753  -58.8563   -0.9457 C.3       1 UNL1        0.0000
      4 C           0.2212  -59.8782   -3.1083 C.3       1 UNL1        0.0000
      5 C          -0.3308  -58.7517   -3.8999 C.ar      1 UNL1        0.0000
      6 C           0.5439  -57.9266   -4.5680 C.ar      1 UNL1        0.0000
      7 C           0.0809  -56.8770   -5.3088 C.ar      1 UNL1        0.0000
      8 C          -1.2665  -56.6268   -5.3997 C.ar      1 UNL1        0.0000
      9 C          -2.1490  -57.4438   -4.7376 C.ar      1 UNL1        0.0000
     10 C          -1.6790  -58.5025   -3.9902 C.ar      1 UNL1        0.0000
     11 C          -1.7926  -55.5021   -6.1915 C.3       1 UNL1        0.0000
     12 C          -0.6970  -54.4485   -6.3524 C.3       1 UNL1        0.0000
     13 C          -2.1829  -56.0456   -7.5256 C.2       1 UNL1        0.0000
     14 O          -3.0880  -55.5175   -8.1876 O.co2     1 UNL1       -0.5000
     15 O          -1.5224  -57.1399   -8.0062 O.co2     1 UNL1       -0.5000
     16 H          -0.5704  -61.4248   -0.2090 H         1 UNL1        0.0000
     17 H           1.0087  -61.1887   -0.9198 H         1 UNL1        0.0000
     18 H          -0.1924  -62.1426   -1.7571 H         1 UNL1        0.0000
     19 H          -1.5753  -60.1708   -2.0327 H         1 UNL1        0.0000
     20 H           0.6604  -58.7169   -0.7152 H         1 UNL1        0.0000
     21 H          -0.9255  -59.0002   -0.0395 H         1 UNL1        0.0000
     22 H          -0.7465  -57.9920   -1.4554 H         1 UNL1        0.0000
     23 H           0.1502  -60.7771   -3.6837 H         1 UNL1        0.0000
     24 H           1.2422  -59.6597   -2.8746 H         1 UNL1        0.0000
     25 H           1.5593  -58.1019   -4.5084 H         1 UNL1        0.0000
     26 H           0.7498  -56.2665   -5.8044 H         1 UNL1        0.0000
     27 H          -3.1639  -57.2662   -4.7993 H         1 UNL1        0.0000
     28 H          -2.3454  -59.1143   -3.4935 H         1 UNL1        0.0000
     29 H          -2.6355  -55.0476   -5.7136 H         1 UNL1        0.0000
     30 H           0.1538  -54.8890   -6.8293 H         1 UNL1        0.0000
     31 H          -0.4140  -54.0796   -5.3884 H         1 UNL1        0.0000
     32 H          -1.0641  -53.6409   -6.9500 H         1 UNL1        0.0000
@<TRIPOS>BOND
     1    1   17 1
     2    1    2 1
     3    1   16 1
     4    1   18 1
     5    2   19 1
     6    2    3 1
     7    2    4 1
     8    3   21 1
     9    3   22 1
    10    3   20 1
    11    4    5 1
    12    4   24 1
    13    4   23 1
    14    5    6 ar
    15    5   10 ar
    16    6    7 ar
    17    6   25 1
    18    7   26 1
    19    7    8 ar
    20    8    9 ar
    21    8   11 1
    22    9   10 ar
    23    9   27 1
    24   10   28 1
    25   11   29 1
    26   11   12 1
    27   11   13 1
    28   12   30 1
    29   12   31 1
    30   12   32 1
    31   13   15 ar
    32   13   14 ar
@<TRIPOS>SUBSTRUCTURE
1 UNL1 1
@<TRIPOS>COMMENT
ibuprofen
PLANTSproteinTorsions
102
4661 195.6949
5386 232.9813
6210 29.4188
5890 44.8200
4461 230.1065
1390 100.8042
2824 138.8460
4339 346.1982
2732 233.5163
4792 211.3542
3407 117.6297
5134 94.0767
6916 26.0288
7370 259.2273
6038 4.2116
7225 174.0737
3592 200.0196
2064 170.1812
2488 29.8874
1253 6.1930
2069 12.0344
2569 141.0079
3058 291.4739
1748 258.0012
1162 37.2795
1509 4.1510
560 118.6703
1627 30.4569
1941 202.6069
3631 14.4137
2381 40.5214
4221 34.5843
4687 172.5666
6983 48.2715
6668 84.0129
7305 145.2396
8693 32.0427
8404 17.3393
9055 26.2632
7052 273.4669
4708 167.7407
2652 72.0199
4332 109.9504
3011 335.8211
2257 308.5776
2778 28.2980
2057 203.1965
192 212.6503
315 153.4670
1085 4.3230
1007 195.6172
1407 165.0494
4816 285.9579
3131 298.7545
4654 290.2619
5144 158.8312
117 89.5924
6 19.8194
259 284.8812
1979 342.6031
2609 229.1651
2623 38.2243
5910 101.5072
5937 266.3603
2062 71.1819
890 298.3897
5008 97.8488
8602 293.6508
8478 86.6332
8300 156.2094
7721 114.4985
8466 250.5977
7852 230.1721
5849 245.2657
6302 42.6206
7439 144.1034
6284 212.3986
6003 93.1467
7165 210.8512
7623 358.0583
8158 224.9662
8667 297.1922
9078 177.5705
8684 82.6138
7666 114.5946
4231 198.1966
1659 113.3197
489 93.9116
238 178.3479
46 238.1884
83 245.9571
254 268.6860
1066 71.0761
2112 246.9671
4047 278.8547
5402 245.5221
2544 32.0136
4670 93.8549
4426 276.3887
5656 316.4001
7040 145.3713
6282 268.0963
PLANTSmolcadARTstart hb
PLANTSmolcadARTstart HB
LINES
PLANTSmolcadARTstart HBCH
LINES
PLANTSmolcadARTstart HB-CHO
LINES
PLANTSmolcadARTend
PLANTSmolcadARTstart HB_WATER
LINES
PLANTSmolcadARTend

PLANTSmolcadARTend

