@<TRIPOS>MOLECULE
ibuprofen_entry_00001_conf_18
32 32 1
SMALL
NO_CHARGES


@<TRIPOS>ATOM
      1 C         -40.9121  -55.2268    7.6184 C.3       1 UNL1        0.0000
      2 C         -41.1028  -56.6133    7.0788 C.3       1 UNL1        0.0000
      3 C         -42.4036  -56.7262    6.3497 C.3       1 UNL1        0.0000
      4 C         -39.9554  -56.9509    6.1683 C.3       1 UNL1        0.0000
      5 C         -40.0455  -58.3516    5.6886 C.ar      1 UNL1        0.0000
      6 C         -39.5940  -58.6435    4.4225 C.ar      1 UNL1        0.0000
      7 C         -39.6574  -59.9190    3.9389 C.ar      1 UNL1        0.0000
      8 C         -40.1732  -60.9329    4.7084 C.ar      1 UNL1        0.0000
      9 C         -40.6264  -60.6537    5.9739 C.ar      1 UNL1        0.0000
     10 C         -40.5615  -59.3651    6.4596 C.ar      1 UNL1        0.0000
     11 C         -40.2532  -62.3169    4.2116 C.3       1 UNL1        0.0000
     12 C         -41.0208  -62.3299    2.8899 C.3       1 UNL1        0.0000
     13 C         -38.8543  -62.7911    3.9982 C.2       1 UNL1        0.0000
     14 O         -38.5075  -63.2826    2.9144 O.co2     1 UNL1       -0.5000
     15 O         -37.9589  -62.6734    5.0226 O.co2     1 UNL1       -0.5000
     16 H         -41.7275  -54.9819    8.2676 H         1 UNL1        0.0000
     17 H         -40.8801  -54.5294    6.8076 H         1 UNL1        0.0000
     18 H         -39.9942  -55.1807    8.1656 H         1 UNL1        0.0000
     19 H         -41.1260  -57.3069    7.8925 H         1 UNL1        0.0000
     20 H         -42.4112  -56.0422    5.5267 H         1 UNL1        0.0000
     21 H         -43.2071  -56.4910    7.0157 H         1 UNL1        0.0000
     22 H         -42.5232  -57.7247    5.9845 H         1 UNL1        0.0000
     23 H         -39.0370  -56.8227    6.7015 H         1 UNL1        0.0000
     24 H         -39.9932  -56.2994    5.3204 H         1 UNL1        0.0000
     25 H         -39.2044  -57.8916    3.8323 H         1 UNL1        0.0000
     26 H         -39.3148  -60.1224    2.9864 H         1 UNL1        0.0000
     27 H         -41.0152  -61.4077    6.5618 H         1 UNL1        0.0000
     28 H         -40.9036  -59.1589    7.4112 H         1 UNL1        0.0000
     29 H         -40.7600  -62.9535    4.9068 H         1 UNL1        0.0000
     30 H         -40.5253  -61.6965    2.1838 H         1 UNL1        0.0000
     31 H         -42.0160  -61.9716    3.0531 H         1 UNL1        0.0000
     32 H         -41.0589  -63.3289    2.5096 H         1 UNL1        0.0000
@<TRIPOS>BOND
     1    1   17 1
     2    1    2 1
     3    1   16 1
     4    1   18 1
     5    2   19 1
     6    2    3 1
     7    2    4 1
     8    3   21 1
     9    3   22 1
    10    3   20 1
    11    4    5 1
    12    4   24 1
    13    4   23 1
    14    5    6 ar
    15    5   10 ar
    16    6    7 ar
    17    6   25 1
    18    7   26 1
    19    7    8 ar
    20    8    9 ar
    21    8   11 1
    22    9   10 ar
    23    9   27 1
    24   10   28 1
    25   11   29 1
    26   11   12 1
    27   11   13 1
    28   12   30 1
    29   12   31 1
    30   12   32 1
    31   13   15 ar
    32   13   14 ar
@<TRIPOS>SUBSTRUCTURE
1 UNL1 1
@<TRIPOS>COMMENT
ibuprofen
PLANTSproteinTorsions
102
4661 213.2243
5386 166.2130
6210 14.0325
5890 37.0595
4461 143.3060
1390 138.2242
2824 62.7782
4339 239.5367
2732 133.0621
4792 53.4218
3407 22.7490
5134 38.2510
6916 29.0783
7370 239.9102
6038 23.2822
7225 195.0836
3592 244.7617
2064 188.1872
2488 26.4499
1253 202.4787
2069 297.5542
2569 28.4707
3058 142.2790
1748 236.7911
1162 80.8369
1509 65.4100
560 136.0367
1627 142.8191
1941 37.2778
3631 162.4162
2381 15.2536
4221 36.4799
4687 198.9102
6983 252.5430
6668 89.1376
7305 216.4020
8693 127.0591
8404 231.2216
9055 142.5686
7052 47.2128
4708 233.6968
2652 61.2982
4332 301.2220
3011 312.5367
2257 325.9812
2778 235.3731
2057 130.1441
192 244.6231
315 212.0678
1085 118.9028
1007 352.0462
1407 161.3474
4816 159.2946
3131 238.6289
4654 214.2770
5144 82.7475
117 182.5124
6 276.7594
259 299.8520
1979 273.7466
2609 96.4731
2623 151.0271
5910 257.9117
5937 200.5660
2062 55.8012
890 268.5039
5008 267.8242
8602 87.8808
8478 65.0503
8300 217.6070
7721 131.0183
8466 167.0924
7852 268.3042
5849 130.6949
6302 41.7685
7439 143.5544
6284 294.4917
6003 168.5600
7165 111.7186
7623 200.2612
8158 247.1811
8667 256.1192
9078 115.2312
8684 261.2168
7666 204.2065
4231 7.8225
1659 256.4761
489 110.6619
238 131.7741
46 110.4719
83 265.6324
254 185.7360
1066 266.1441
2112 207.4371
4047 62.2563
5402 48.9666
2544 218.2222
4670 282.0369
4426 145.7698
5656 264.6109
7040 69.9926
6282 241.6054
PLANTSmolcadARTstart hb
PLANTSmolcadARTstart HB
LINES
-38.5075 -63.2826 2.91442 -37.4194 -64.1414 1.59578 0 255 0 5
PLANTSmolcadARTstart HBCH
LINES
PLANTSmolcadARTstart HB-CHO
LINES
-37.9589 -62.6734 5.02255 -37.486 -61.093 6.901 0 255 255 5
PLANTSmolcadARTend
PLANTSmolcadARTstart HB_WATER
LINES
PLANTSmolcadARTend

PLANTSmolcadARTend

