@<TRIPOS>MOLECULE
ibuprofen_entry_00001_conf_98
32 32 1
SMALL
NO_CHARGES


@<TRIPOS>ATOM
      1 C          -0.9113  -66.3106    6.3139 C.3       1 UNL1        0.0000
      2 C          -1.3769  -67.0825    5.1150 C.3       1 UNL1        0.0000
      3 C          -2.7859  -67.5494    5.2971 C.3       1 UNL1        0.0000
      4 C          -1.2614  -66.2142    3.8934 C.3       1 UNL1        0.0000
      5 C          -1.8462  -64.8722    4.1321 C.ar      1 UNL1        0.0000
      6 C          -1.0282  -63.7708    4.0309 C.ar      1 UNL1        0.0000
      7 C          -1.5231  -62.5158    4.2425 C.ar      1 UNL1        0.0000
      8 C          -2.8466  -62.3311    4.5600 C.ar      1 UNL1        0.0000
      9 C          -3.6726  -63.4228    4.6631 C.ar      1 UNL1        0.0000
     10 C          -3.1705  -64.6887    4.4494 C.ar      1 UNL1        0.0000
     11 C          -3.4060  -60.9890    4.7931 C.3       1 UNL1        0.0000
     12 C          -4.8174  -60.9277    4.2098 C.3       1 UNL1        0.0000
     13 C          -3.4508  -60.7797    6.2702 C.2       1 UNL1        0.0000
     14 O          -2.9579  -61.6116    7.0458 O.co2     1 UNL1       -0.5000
     15 O          -4.0470  -59.6506    6.7544 O.co2     1 UNL1       -0.5000
     16 H          -0.9920  -66.9253    7.1868 H         1 UNL1        0.0000
     17 H          -1.5189  -65.4382    6.4348 H         1 UNL1        0.0000
     18 H           0.1086  -66.0192    6.1758 H         1 UNL1        0.0000
     19 H          -0.7615  -67.9487    4.9941 H         1 UNL1        0.0000
     20 H          -3.4285  -66.7026    5.4210 H         1 UNL1        0.0000
     21 H          -2.8457  -68.1718    6.1652 H         1 UNL1        0.0000
     22 H          -3.0920  -68.1064    4.4365 H         1 UNL1        0.0000
     23 H          -1.7793  -66.6816    3.0825 H         1 UNL1        0.0000
     24 H          -0.2241  -66.0950    3.6596 H         1 UNL1        0.0000
     25 H          -0.0313  -63.8942    3.7938 H         1 UNL1        0.0000
     26 H          -0.8966  -61.6990    4.1632 H         1 UNL1        0.0000
     27 H          -4.6692  -63.2963    4.9002 H         1 UNL1        0.0000
     28 H          -3.7944  -65.5070    4.5283 H         1 UNL1        0.0000
     29 H          -2.8111  -60.2309    4.3276 H         1 UNL1        0.0000
     30 H          -5.4248  -61.6813    4.6662 H         1 UNL1        0.0000
     31 H          -4.7735  -61.0964    3.1538 H         1 UNL1        0.0000
     32 H          -5.2401  -59.9636    4.3999 H         1 UNL1        0.0000
@<TRIPOS>BOND
     1    1   17 1
     2    1    2 1
     3    1   16 1
     4    1   18 1
     5    2   19 1
     6    2    3 1
     7    2    4 1
     8    3   21 1
     9    3   22 1
    10    3   20 1
    11    4    5 1
    12    4   24 1
    13    4   23 1
    14    5    6 ar
    15    5   10 ar
    16    6    7 ar
    17    6   25 1
    18    7   26 1
    19    7    8 ar
    20    8    9 ar
    21    8   11 1
    22    9   10 ar
    23    9   27 1
    24   10   28 1
    25   11   29 1
    26   11   12 1
    27   11   13 1
    28   12   30 1
    29   12   31 1
    30   12   32 1
    31   13   15 ar
    32   13   14 ar
@<TRIPOS>SUBSTRUCTURE
1 UNL1 1
@<TRIPOS>COMMENT
ibuprofen
PLANTSproteinTorsions
102
4661 192.4485
5386 45.2019
6210 255.1559
5890 356.3252
4461 209.3012
1390 21.2022
2824 102.4581
4339 53.5670
2732 239.8426
4792 235.4241
3407 222.9928
5134 6.6312
6916 187.4371
7370 4.1045
6038 211.7424
7225 158.0861
3592 145.5336
2064 80.0824
2488 64.5786
1253 67.7302
2069 230.9531
2569 204.1362
3058 308.5574
1748 61.2740
1162 133.7149
1509 25.2987
560 68.0505
1627 341.7458
1941 196.6302
3631 158.3753
2381 16.7263
4221 161.6321
4687 69.0261
6983 140.9654
6668 57.6914
7305 56.7323
8693 124.9844
8404 22.3402
9055 86.2866
7052 55.0151
4708 140.1925
2652 202.1215
4332 31.2076
3011 333.4356
2257 222.3792
2778 88.8240
2057 109.4367
192 27.7408
315 183.9528
1085 214.5794
1007 107.9557
1407 244.2065
4816 70.1945
3131 293.0934
4654 178.9427
5144 169.7537
117 11.5827
6 266.2571
259 289.4644
1979 128.5602
2609 258.1993
2623 89.8038
5910 194.6442
5937 176.5368
2062 268.6775
890 237.9550
5008 94.4106
8602 233.5702
8478 157.4883
8300 40.0923
7721 26.9924
8466 241.0143
7852 81.0038
5849 137.6122
6302 207.2283
7439 82.6719
6284 156.4441
6003 34.0724
7165 217.5327
7623 149.8523
8158 220.6088
8667 44.9401
9078 270.6545
8684 110.4764
7666 175.7598
4231 60.7529
1659 161.7197
489 153.9058
238 229.5939
46 199.8078
83 125.8433
254 132.4086
1066 239.2810
2112 193.6912
4047 301.9396
5402 80.9884
2544 327.2649
4670 165.1907
4426 153.4037
5656 158.6385
7040 247.9442
6282 158.1303
PLANTSmolcadARTstart hb
PLANTSmolcadARTstart HB
LINES
PLANTSmolcadARTstart HBCH
LINES
PLANTSmolcadARTstart HB-CHO
LINES
PLANTSmolcadARTend
PLANTSmolcadARTstart HB_WATER
LINES
PLANTSmolcadARTend

PLANTSmolcadARTend

