@<TRIPOS>MOLECULE
ibuprofen_entry_00001_conf_64
32 32 1
SMALL
NO_CHARGES


@<TRIPOS>ATOM
      1 C         -14.1939  -33.5913   -1.2109 C.3       1 UNL1        0.0000
      2 C         -15.2163  -34.3102   -0.3815 C.3       1 UNL1        0.0000
      3 C         -16.5575  -33.6615   -0.5104 C.3       1 UNL1        0.0000
      4 C         -15.2808  -35.7482   -0.8146 C.3       1 UNL1        0.0000
      5 C         -16.2173  -36.5229    0.0356 C.ar      1 UNL1        0.0000
      6 C         -16.4643  -36.0802    1.3144 C.ar      1 UNL1        0.0000
      7 C         -17.3190  -36.7616    2.1328 C.ar      1 UNL1        0.0000
      8 C         -17.9472  -37.9013    1.6934 C.ar      1 UNL1        0.0000
      9 C         -17.7089  -38.3523    0.4189 C.ar      1 UNL1        0.0000
     10 C         -16.8453  -37.6628   -0.4052 C.ar      1 UNL1        0.0000
     11 C         -18.8734  -38.6551    2.5551 C.3       1 UNL1        0.0000
     12 C         -20.0227  -39.1931    1.7032 C.3       1 UNL1        0.0000
     13 C         -18.1018  -39.7856    3.1502 C.2       1 UNL1        0.0000
     14 O         -18.0201  -39.9226    4.3794 O.co2     1 UNL1       -0.5000
     15 O         -17.4844  -40.6703    2.3130 O.co2     1 UNL1       -0.5000
     16 H         -14.1447  -32.5661   -0.9059 H         1 UNL1        0.0000
     17 H         -14.4709  -33.6433   -2.2430 H         1 UNL1        0.0000
     18 H         -13.2375  -34.0505   -1.0741 H         1 UNL1        0.0000
     19 H         -14.9305  -34.2621    0.6479 H         1 UNL1        0.0000
     20 H         -16.8722  -33.6939   -1.5328 H         1 UNL1        0.0000
     21 H         -16.4931  -32.6429   -0.1898 H         1 UNL1        0.0000
     22 H         -17.2668  -34.1830    0.0976 H         1 UNL1        0.0000
     23 H         -14.3045  -36.1792   -0.7412 H         1 UNL1        0.0000
     24 H         -15.6330  -35.7821   -1.8244 H         1 UNL1        0.0000
     25 H         -15.9989  -35.2257    1.6587 H         1 UNL1        0.0000
     26 H         -17.4941  -36.4170    3.0901 H         1 UNL1        0.0000
     27 H         -18.1759  -39.2071    0.0773 H         1 UNL1        0.0000
     28 H         -16.6682  -38.0052   -1.3625 H         1 UNL1        0.0000
     29 H         -19.2814  -38.0360    3.3268 H         1 UNL1        0.0000
     30 H         -19.6296  -39.8148    0.9259 H         1 UNL1        0.0000
     31 H         -20.5570  -38.3739    1.2685 H         1 UNL1        0.0000
     32 H         -20.6850  -39.7650    2.3184 H         1 UNL1        0.0000
@<TRIPOS>BOND
     1    1   17 1
     2    1    2 1
     3    1   16 1
     4    1   18 1
     5    2   19 1
     6    2    3 1
     7    2    4 1
     8    3   21 1
     9    3   22 1
    10    3   20 1
    11    4    5 1
    12    4   24 1
    13    4   23 1
    14    5    6 ar
    15    5   10 ar
    16    6    7 ar
    17    6   25 1
    18    7   26 1
    19    7    8 ar
    20    8    9 ar
    21    8   11 1
    22    9   10 ar
    23    9   27 1
    24   10   28 1
    25   11   29 1
    26   11   12 1
    27   11   13 1
    28   12   30 1
    29   12   31 1
    30   12   32 1
    31   13   15 ar
    32   13   14 ar
@<TRIPOS>SUBSTRUCTURE
1 UNL1 1
@<TRIPOS>COMMENT
ibuprofen
PLANTSproteinTorsions
102
4661 22.4589
5386 358.5974
6210 250.3629
5890 6.1533
4461 52.7840
1390 40.3435
2824 190.9704
4339 295.4746
2732 141.5593
4792 23.5630
3407 309.2140
5134 142.8476
6916 17.0557
7370 323.1155
6038 183.1973
7225 124.4364
3592 192.5260
2064 241.5233
2488 83.6384
1253 34.8547
2069 209.0309
2569 85.2628
3058 266.6337
1748 191.7022
1162 168.3548
1509 334.7542
560 239.1583
1627 119.9295
1941 358.3146
3631 97.8081
2381 176.1646
4221 63.9970
4687 24.7161
6983 264.1856
6668 49.3114
7305 119.4429
8693 58.6402
8404 245.6370
9055 51.0714
7052 312.2492
4708 91.0000
2652 297.7206
4332 170.3166
3011 5.3073
2257 256.0782
2778 37.7779
2057 249.4239
192 252.2395
315 334.6191
1085 17.1683
1007 46.7780
1407 170.0614
4816 358.1035
3131 231.1118
4654 351.4206
5144 196.2883
117 345.4568
6 69.3368
259 164.5686
1979 10.6416
2609 19.2829
2623 24.2795
5910 351.0967
5937 32.0617
2062 267.3740
890 118.2504
5008 217.9461
8602 294.7658
8478 223.8173
8300 130.8667
7721 51.2477
8466 106.1600
7852 149.5168
5849 127.0416
6302 285.3404
7439 229.4487
6284 98.8675
6003 200.7603
7165 271.1584
7623 263.4260
8158 117.9886
8667 163.5928
9078 184.7666
8684 234.4812
7666 226.3285
4231 285.7762
1659 76.3819
489 187.6381
238 148.4848
46 194.5655
83 150.3935
254 118.9045
1066 253.9885
2112 118.5362
4047 137.7366
5402 250.6002
2544 121.5945
4670 171.5822
4426 117.4107
5656 146.2382
7040 352.0462
6282 268.8189
PLANTSmolcadARTstart hb
PLANTSmolcadARTstart HB
LINES
PLANTSmolcadARTstart HBCH
LINES
-18.0201 -39.9226 4.37943 -15.985 -40.236 4.868 255 0 0 5
-18.0201 -39.9226 4.37943 -17.42 -41.962 5.124 255 0 0 5
PLANTSmolcadARTstart HB-CHO
LINES
PLANTSmolcadARTend
PLANTSmolcadARTstart HB_WATER
LINES
PLANTSmolcadARTend

PLANTSmolcadARTend

