@<TRIPOS>MOLECULE
ibuprofen_entry_00001_conf_76
32 32 1
SMALL
NO_CHARGES


@<TRIPOS>ATOM
      1 C         -24.4252  -38.2992    1.3239 C.3       1 UNL1        0.0000
      2 C         -25.0156  -36.9206    1.3553 C.3       1 UNL1        0.0000
      3 C         -25.3519  -36.5177    2.7557 C.3       1 UNL1        0.0000
      4 C         -24.0408  -35.9520    0.7462 C.3       1 UNL1        0.0000
      5 C         -22.6759  -36.1499    1.2921 C.ar      1 UNL1        0.0000
      6 C         -22.3545  -35.5564    2.4907 C.ar      1 UNL1        0.0000
      7 C         -21.1100  -35.7110    3.0312 C.ar      1 UNL1        0.0000
      8 C         -20.1572  -36.4621    2.3873 C.ar      1 UNL1        0.0000
      9 C         -20.4667  -37.0597    1.1907 C.ar      1 UNL1        0.0000
     10 C         -21.7237  -36.9017    0.6471 C.ar      1 UNL1        0.0000
     11 C         -18.8078  -36.6451    2.9478 C.3       1 UNL1        0.0000
     12 C         -18.5547  -38.1368    3.1645 C.3       1 UNL1        0.0000
     13 C         -17.8386  -36.0985    1.9530 C.2       1 UNL1        0.0000
     14 O         -17.3319  -36.8302    1.0902 O.co2     1 UNL1       -0.5000
     15 O         -17.5183  -34.7723    2.0103 O.co2     1 UNL1       -0.5000
     16 H         -25.1163  -38.9927    1.7572 H         1 UNL1        0.0000
     17 H         -23.5125  -38.3094    1.8822 H         1 UNL1        0.0000
     18 H         -24.2272  -38.5787    0.3105 H         1 UNL1        0.0000
     19 H         -25.9230  -36.9140    0.7894 H         1 UNL1        0.0000
     20 H         -24.4612  -36.5147    3.3491 H         1 UNL1        0.0000
     21 H         -26.0522  -37.2133    3.1683 H         1 UNL1        0.0000
     22 H         -25.7814  -35.5379    2.7525 H         1 UNL1        0.0000
     23 H         -24.3608  -34.9538    0.9594 H         1 UNL1        0.0000
     24 H         -24.0110  -36.1209   -0.3099 H         1 UNL1        0.0000
     25 H         -23.0600  -34.9885    2.9857 H         1 UNL1        0.0000
     26 H         -20.8837  -35.2591    3.9314 H         1 UNL1        0.0000
     27 H         -19.7592  -37.6273    0.6981 H         1 UNL1        0.0000
     28 H         -21.9525  -37.3521   -0.2528 H         1 UNL1        0.0000
     29 H         -18.7022  -36.1412    3.8860 H         1 UNL1        0.0000
     30 H         -18.6572  -38.6547    2.2336 H         1 UNL1        0.0000
     31 H         -19.2665  -38.5201    3.8659 H         1 UNL1        0.0000
     32 H         -17.5656  -38.2788    3.5460 H         1 UNL1        0.0000
@<TRIPOS>BOND
     1    1   17 1
     2    1    2 1
     3    1   16 1
     4    1   18 1
     5    2   19 1
     6    2    3 1
     7    2    4 1
     8    3   21 1
     9    3   22 1
    10    3   20 1
    11    4    5 1
    12    4   24 1
    13    4   23 1
    14    5    6 ar
    15    5   10 ar
    16    6    7 ar
    17    6   25 1
    18    7   26 1
    19    7    8 ar
    20    8    9 ar
    21    8   11 1
    22    9   10 ar
    23    9   27 1
    24   10   28 1
    25   11   29 1
    26   11   12 1
    27   11   13 1
    28   12   30 1
    29   12   31 1
    30   12   32 1
    31   13   15 ar
    32   13   14 ar
@<TRIPOS>SUBSTRUCTURE
1 UNL1 1
@<TRIPOS>COMMENT
ibuprofen
PLANTSproteinTorsions
102
4661 115.0158
5386 215.5795
6210 122.2247
5890 58.3618
4461 183.7775
1390 132.5277
2824 161.1161
4339 267.9550
2732 189.8370
4792 165.9049
3407 337.9252
5134 342.8307
6916 244.5740
7370 133.6430
6038 247.7501
7225 133.4614
3592 197.0514
2064 187.5982
2488 254.9008
1253 218.6205
2069 197.8480
2569 77.6726
3058 182.6108
1748 98.0691
1162 60.9064
1509 17.0059
560 192.8983
1627 298.7555
1941 291.7339
3631 170.2974
2381 111.1944
4221 276.9555
4687 210.2750
6983 192.5919
6668 13.6150
7305 189.3056
8693 116.7317
8404 147.7017
9055 111.5374
7052 39.9350
4708 233.8508
2652 33.4429
4332 167.8759
3011 252.2409
2257 217.2280
2778 33.1805
2057 126.4250
192 243.6216
315 207.6242
1085 355.6490
1007 92.5933
1407 34.9905
4816 160.4682
3131 268.8971
4654 303.8015
5144 105.4070
117 44.4603
6 109.8184
259 138.9623
1979 308.6823
2609 76.6808
2623 230.0474
5910 294.3447
5937 324.8555
2062 120.0914
890 40.7617
5008 134.1923
8602 112.7799
8478 206.1934
8300 229.0688
7721 120.7541
8466 168.4274
7852 227.4292
5849 187.7182
6302 261.2354
7439 40.7952
6284 109.0190
6003 248.5394
7165 247.8275
7623 286.4784
8158 240.9203
8667 205.4247
9078 151.0759
8684 299.9144
7666 79.6755
4231 79.2485
1659 13.1748
489 242.3036
238 191.9222
46 202.2681
83 217.7900
254 263.8340
1066 46.4398
2112 186.4068
4047 313.6453
5402 144.6806
2544 117.3493
4670 193.2988
4426 193.9199
5656 186.4849
7040 274.0959
6282 75.7492
PLANTSmolcadARTstart hb
PLANTSmolcadARTstart HB
LINES
PLANTSmolcadARTstart HBCH
LINES
PLANTSmolcadARTstart HB-CHO
LINES
PLANTSmolcadARTend
PLANTSmolcadARTstart HB_WATER
LINES
PLANTSmolcadARTend

PLANTSmolcadARTend

