@<TRIPOS>MOLECULE
ibuprofen_entry_00001_conf_97
32 32 1
SMALL
NO_CHARGES


@<TRIPOS>ATOM
      1 C           4.3896  -65.1553   -3.8458 C.3       1 UNL1        0.0000
      2 C           3.5433  -63.9296   -3.6685 C.3       1 UNL1        0.0000
      3 C           2.4446  -63.8906   -4.6823 C.3       1 UNL1        0.0000
      4 C           2.9780  -63.9172   -2.2757 C.3       1 UNL1        0.0000
      5 C           2.0374  -62.7856   -2.0887 C.ar      1 UNL1        0.0000
      6 C           0.6907  -63.0556   -2.0121 C.ar      1 UNL1        0.0000
      7 C          -0.2119  -62.0453   -1.8406 C.ar      1 UNL1        0.0000
      8 C           0.2091  -60.7417   -1.7414 C.ar      1 UNL1        0.0000
      9 C           1.5507  -60.4603   -1.8158 C.ar      1 UNL1        0.0000
     10 C           2.4599  -61.4819   -1.9894 C.ar      1 UNL1        0.0000
     11 C          -0.7428  -59.6335   -1.5561 C.3       1 UNL1        0.0000
     12 C          -0.1103  -58.5777   -0.6497 C.3       1 UNL1        0.0000
     13 C          -1.0160  -59.0559   -2.9049 C.2       1 UNL1        0.0000
     14 O          -2.1779  -58.8574   -3.2884 O.co2     1 UNL1       -0.5000
     15 O           0.0412  -58.7486   -3.7128 O.co2     1 UNL1       -0.5000
     16 H           4.7943  -65.1685   -4.8369 H         1 UNL1        0.0000
     17 H           3.7899  -66.0283   -3.6939 H         1 UNL1        0.0000
     18 H           5.1883  -65.1424   -3.1344 H         1 UNL1        0.0000
     19 H           4.1490  -63.0603   -3.8134 H         1 UNL1        0.0000
     20 H           1.8187  -64.7504   -4.5627 H         1 UNL1        0.0000
     21 H           2.8666  -63.8913   -5.6654 H         1 UNL1        0.0000
     22 H           1.8622  -63.0038   -4.5444 H         1 UNL1        0.0000
     23 H           3.7800  -63.8242   -1.5740 H         1 UNL1        0.0000
     24 H           2.4439  -64.8310   -2.1190 H         1 UNL1        0.0000
     25 H           0.3594  -64.0303   -2.0858 H         1 UNL1        0.0000
     26 H          -1.2195  -62.2637   -1.7853 H         1 UNL1        0.0000
     27 H           1.8791  -59.4846   -1.7416 H         1 UNL1        0.0000
     28 H           3.4676  -61.2665   -2.0454 H         1 UNL1        0.0000
     29 H          -1.6524  -59.9705   -1.1043 H         1 UNL1        0.0000
     30 H           0.8018  -58.2310   -1.0890 H         1 UNL1        0.0000
     31 H           0.0966  -59.0088    0.3078 H         1 UNL1        0.0000
     32 H          -0.7862  -57.7569   -0.5332 H         1 UNL1        0.0000
@<TRIPOS>BOND
     1    1   17 1
     2    1    2 1
     3    1   16 1
     4    1   18 1
     5    2   19 1
     6    2    3 1
     7    2    4 1
     8    3   21 1
     9    3   22 1
    10    3   20 1
    11    4    5 1
    12    4   24 1
    13    4   23 1
    14    5    6 ar
    15    5   10 ar
    16    6    7 ar
    17    6   25 1
    18    7   26 1
    19    7    8 ar
    20    8    9 ar
    21    8   11 1
    22    9   10 ar
    23    9   27 1
    24   10   28 1
    25   11   29 1
    26   11   12 1
    27   11   13 1
    28   12   30 1
    29   12   31 1
    30   12   32 1
    31   13   15 ar
    32   13   14 ar
@<TRIPOS>SUBSTRUCTURE
1 UNL1 1
@<TRIPOS>COMMENT
ibuprofen
PLANTSproteinTorsions
102
4661 48.0318
5386 347.2928
6210 352.4638
5890 14.2814
4461 17.8912
1390 85.5170
2824 39.8939
4339 207.5487
2732 224.0580
4792 332.0390
3407 171.7936
5134 332.6903
6916 357.5512
7370 2.5375
6038 191.9297
7225 291.1387
3592 59.8991
2064 215.3419
2488 74.9116
1253 207.0210
2069 164.9236
2569 293.8478
3058 263.4865
1748 140.8193
1162 77.5065
1509 200.5523
560 343.8463
1627 4.0657
1941 304.9539
3631 21.6936
2381 310.2561
4221 13.2756
4687 238.9597
6983 137.6553
6668 162.7363
7305 248.3293
8693 211.0409
8404 230.9206
9055 15.2203
7052 323.7269
4708 256.2796
2652 133.7027
4332 38.4652
3011 181.4709
2257 243.2094
2778 198.4301
2057 255.7456
192 33.7879
315 286.1239
1085 183.2039
1007 207.7999
1407 307.8840
4816 242.7796
3131 79.6556
4654 266.5776
5144 271.3967
117 92.0735
6 107.2674
259 229.4627
1979 264.0536
2609 152.7782
2623 128.6004
5910 125.1222
5937 155.6341
2062 265.4385
890 262.5718
5008 194.7454
8602 88.6261
8478 227.0977
8300 78.4686
7721 38.9582
8466 266.2147
7852 268.8092
5849 131.0584
6302 146.1803
7439 226.4306
6284 156.6892
6003 128.1060
7165 277.5431
7623 70.7368
8158 101.3887
8667 168.0042
9078 245.4410
8684 53.3873
7666 24.7280
4231 157.9529
1659 110.7633
489 141.5883
238 247.2704
46 125.8127
83 262.8911
254 141.8702
1066 244.1084
2112 279.8297
4047 183.3699
5402 254.3416
2544 266.2599
4670 167.0503
4426 253.4355
5656 126.5885
7040 194.8624
6282 274.5407
PLANTSmolcadARTstart hb
PLANTSmolcadARTstart HB
LINES
-2.17792 -58.8574 -3.28841 -4.327 -58.47 -3.95 0 255 0 5
PLANTSmolcadARTstart HBCH
LINES
PLANTSmolcadARTstart HB-CHO
LINES
PLANTSmolcadARTend
PLANTSmolcadARTstart HB_WATER
LINES
PLANTSmolcadARTend

PLANTSmolcadARTend

