@<TRIPOS>MOLECULE
ibuprofen_entry_00001_conf_19
32 32 1
SMALL
NO_CHARGES


@<TRIPOS>ATOM
      1 C         -46.0058  -64.8900    1.2268 C.3       1 UNL1        0.0000
      2 C         -45.3197  -65.5665    0.0771 C.3       1 UNL1        0.0000
      3 C         -46.3127  -66.0059   -0.9511 C.3       1 UNL1        0.0000
      4 C         -44.3179  -64.6214   -0.5253 C.3       1 UNL1        0.0000
      5 C         -43.3894  -64.0957    0.5051 C.ar      1 UNL1        0.0000
      6 C         -43.5764  -62.8131    0.9659 C.ar      1 UNL1        0.0000
      7 C         -42.7459  -62.2873    1.9138 C.ar      1 UNL1        0.0000
      8 C         -41.7093  -63.0300    2.4239 C.ar      1 UNL1        0.0000
      9 C         -41.5133  -64.3114    1.9720 C.ar      1 UNL1        0.0000
     10 C         -42.3528  -64.8398    1.0147 C.ar      1 UNL1        0.0000
     11 C         -40.7991  -62.4875    3.4467 C.3       1 UNL1        0.0000
     12 C         -40.9646  -63.2881    4.7381 C.3       1 UNL1        0.0000
     13 C         -39.4090  -62.6363    2.9243 C.2       1 UNL1        0.0000
     14 O         -38.8082  -63.7169    3.0132 O.co2     1 UNL1       -0.5000
     15 O         -38.8077  -61.5562    2.3441 O.co2     1 UNL1       -0.5000
     16 H         -46.7207  -65.5597    1.6590 H         1 UNL1        0.0000
     17 H         -46.5064  -64.0115    0.8768 H         1 UNL1        0.0000
     18 H         -45.2803  -64.6180    1.9643 H         1 UNL1        0.0000
     19 H         -44.8145  -66.4391    0.4336 H         1 UNL1        0.0000
     20 H         -46.8362  -65.1521   -1.3285 H         1 UNL1        0.0000
     21 H         -47.0106  -66.6835   -0.5059 H         1 UNL1        0.0000
     22 H         -45.8028  -66.4951   -1.7545 H         1 UNL1        0.0000
     23 H         -44.8377  -63.8030   -0.9772 H         1 UNL1        0.0000
     24 H         -43.7464  -65.1546   -1.2559 H         1 UNL1        0.0000
     25 H         -44.3508  -62.2428    0.5913 H         1 UNL1        0.0000
     26 H         -42.8989  -61.3230    2.2496 H         1 UNL1        0.0000
     27 H         -40.7381  -64.8795    2.3487 H         1 UNL1        0.0000
     28 H         -42.2021  -65.8033    0.6771 H         1 UNL1        0.0000
     29 H         -41.0111  -61.4591    3.6531 H         1 UNL1        0.0000
     30 H         -40.7558  -64.3202    4.5470 H         1 UNL1        0.0000
     31 H         -41.9694  -63.1874    5.0927 H         1 UNL1        0.0000
     32 H         -40.2864  -62.9166    5.4772 H         1 UNL1        0.0000
@<TRIPOS>BOND
     1    1   17 1
     2    1    2 1
     3    1   16 1
     4    1   18 1
     5    2   19 1
     6    2    3 1
     7    2    4 1
     8    3   21 1
     9    3   22 1
    10    3   20 1
    11    4    5 1
    12    4   24 1
    13    4   23 1
    14    5    6 ar
    15    5   10 ar
    16    6    7 ar
    17    6   25 1
    18    7   26 1
    19    7    8 ar
    20    8    9 ar
    21    8   11 1
    22    9   10 ar
    23    9   27 1
    24   10   28 1
    25   11   29 1
    26   11   12 1
    27   11   13 1
    28   12   30 1
    29   12   31 1
    30   12   32 1
    31   13   15 ar
    32   13   14 ar
@<TRIPOS>SUBSTRUCTURE
1 UNL1 1
@<TRIPOS>COMMENT
ibuprofen
PLANTSproteinTorsions
102
4661 83.1124
5386 174.2658
6210 8.0835
5890 210.0022
4461 332.9175
1390 35.6657
2824 104.5707
4339 66.8914
2732 195.6526
4792 205.0668
3407 20.5718
5134 17.5315
6916 82.9258
7370 245.5653
6038 243.8030
7225 207.0349
3592 104.5265
2064 214.0154
2488 3.7344
1253 355.5565
2069 101.0170
2569 79.1098
3058 227.1879
1748 68.1762
1162 276.7609
1509 128.3735
560 96.7133
1627 190.9672
1941 21.0672
3631 351.2800
2381 154.1089
4221 347.0034
4687 300.0712
6983 5.4499
6668 171.6682
7305 134.8168
8693 71.7636
8404 57.4286
9055 61.5960
7052 84.4900
4708 344.9171
2652 184.5804
4332 298.4132
3011 298.8957
2257 58.6360
2778 94.3969
2057 126.8151
192 88.4252
315 208.4849
1085 357.1851
1007 164.0504
1407 156.6295
4816 220.0354
3131 193.2662
4654 256.2642
5144 26.9668
117 250.7582
6 161.0278
259 115.9204
1979 52.2426
2609 25.3207
2623 274.9713
5910 111.7087
5937 53.9742
2062 96.1397
890 71.7485
5008 267.3969
8602 217.2890
8478 143.1108
8300 196.9288
7721 72.6899
8466 36.5719
7852 280.8877
5849 42.0766
6302 17.2990
7439 161.5844
6284 169.3150
6003 35.5165
7165 277.3345
7623 201.9770
8158 246.1971
8667 53.1459
9078 226.5428
8684 91.0483
7666 301.1373
4231 13.3340
1659 215.1938
489 6.8500
238 42.1616
46 191.1060
83 250.4535
254 201.9060
1066 257.2562
2112 170.0119
4047 283.9459
5402 300.1650
2544 268.9371
4670 343.9579
4426 228.5237
5656 172.1663
7040 221.7307
6282 124.6241
PLANTSmolcadARTstart hb
PLANTSmolcadARTstart HB
LINES
-38.8082 -63.7169 3.01323 -37.4497 -64.1182 1.56979 0 255 0 5
-38.8077 -61.5562 2.3441 -36.922 -60.916 1.735 0 255 0 5
PLANTSmolcadARTstart HBCH
LINES
PLANTSmolcadARTstart HB-CHO
LINES
PLANTSmolcadARTend
PLANTSmolcadARTstart HB_WATER
LINES
PLANTSmolcadARTend

PLANTSmolcadARTend

