@<TRIPOS>MOLECULE
ibuprofen_entry_00001_conf_80
32 32 1
SMALL
NO_CHARGES


@<TRIPOS>ATOM
      1 C         -13.5604  -44.1648   -9.4920 C.3       1 UNL1        0.0000
      2 C         -14.8322  -44.8640   -9.1131 C.3       1 UNL1        0.0000
      3 C         -15.9744  -43.9000   -9.0619 C.3       1 UNL1        0.0000
      4 C         -15.1084  -45.9586  -10.1056 C.3       1 UNL1        0.0000
      5 C         -16.3671  -46.6728   -9.7800 C.ar      1 UNL1        0.0000
      6 C         -16.5619  -47.1070   -8.4894 C.ar      1 UNL1        0.0000
      7 C         -17.7053  -47.7690   -8.1441 C.ar      1 UNL1        0.0000
      8 C         -18.6810  -48.0128   -9.0795 C.ar      1 UNL1        0.0000
      9 C         -18.4979  -47.5835  -10.3706 C.ar      1 UNL1        0.0000
     10 C         -17.3425  -46.9158  -10.7167 C.ar      1 UNL1        0.0000
     11 C         -19.9233  -48.7241   -8.7340 C.3       1 UNL1        0.0000
     12 C         -21.1106  -47.9845   -9.3500 C.3       1 UNL1        0.0000
     13 C         -19.8197  -50.0979   -9.3079 C.2       1 UNL1        0.0000
     14 O         -20.2075  -50.3366  -10.4608 O.co2     1 UNL1       -0.5000
     15 O         -19.2878  -51.0919   -8.5372 O.co2     1 UNL1       -0.5000
     16 H         -13.3597  -43.3838   -8.7877 H         1 UNL1        0.0000
     17 H         -13.6619  -43.7447  -10.4708 H         1 UNL1        0.0000
     18 H         -12.7530  -44.8665   -9.4864 H         1 UNL1        0.0000
     19 H         -14.7226  -45.2887   -8.1378 H         1 UNL1        0.0000
     20 H         -16.1100  -43.4568  -10.0266 H         1 UNL1        0.0000
     21 H         -15.7630  -43.1347   -8.3450 H         1 UNL1        0.0000
     22 H         -16.8668  -44.4178   -8.7789 H         1 UNL1        0.0000
     23 H         -14.2975  -46.6561  -10.0911 H         1 UNL1        0.0000
     24 H         -15.2099  -45.5185  -11.0755 H         1 UNL1        0.0000
     25 H         -15.8372  -46.9317   -7.7758 H         1 UNL1        0.0000
     26 H         -17.8369  -48.0890   -7.1714 H         1 UNL1        0.0000
     27 H         -19.2245  -47.7601  -11.0820 H         1 UNL1        0.0000
     28 H         -17.2082  -46.5951  -11.6884 H         1 UNL1        0.0000
     29 H         -20.0642  -48.7731   -7.6743 H         1 UNL1        0.0000
     30 H         -20.9833  -47.9273  -10.4110 H         1 UNL1        0.0000
     31 H         -21.1634  -46.9958   -8.9435 H         1 UNL1        0.0000
     32 H         -22.0140  -48.5114   -9.1257 H         1 UNL1        0.0000
@<TRIPOS>BOND
     1    1   17 1
     2    1    2 1
     3    1   16 1
     4    1   18 1
     5    2   19 1
     6    2    3 1
     7    2    4 1
     8    3   21 1
     9    3   22 1
    10    3   20 1
    11    4    5 1
    12    4   24 1
    13    4   23 1
    14    5    6 ar
    15    5   10 ar
    16    6    7 ar
    17    6   25 1
    18    7   26 1
    19    7    8 ar
    20    8    9 ar
    21    8   11 1
    22    9   10 ar
    23    9   27 1
    24   10   28 1
    25   11   29 1
    26   11   12 1
    27   11   13 1
    28   12   30 1
    29   12   31 1
    30   12   32 1
    31   13   15 ar
    32   13   14 ar
@<TRIPOS>SUBSTRUCTURE
1 UNL1 1
@<TRIPOS>COMMENT
ibuprofen
PLANTSproteinTorsions
102
4661 29.7137
5386 334.6758
6210 37.4184
5890 16.3100
4461 344.5040
1390 29.4475
2824 13.9655
4339 117.1519
2732 73.9382
4792 23.5091
3407 338.3031
5134 107.9988
6916 140.7548
7370 117.7910
6038 288.3702
7225 220.7963
3592 141.8992
2064 7.1935
2488 110.5034
1253 304.5674
2069 242.4405
2569 127.8785
3058 268.9277
1748 192.1371
1162 151.7826
1509 175.9871
560 137.5055
1627 163.0392
1941 77.0392
3631 132.0628
2381 212.1089
4221 125.3311
4687 134.8767
6983 200.4330
6668 283.9965
7305 109.7854
8693 63.2391
8404 305.1524
9055 58.7293
7052 70.1070
4708 211.5580
2652 41.9137
4332 77.8929
3011 239.7813
2257 260.5065
2778 159.0967
2057 231.1689
192 39.0499
315 59.3762
1085 313.2426
1007 47.3072
1407 2.8843
4816 352.6560
3131 50.7496
4654 170.5410
5144 221.1977
117 12.1424
6 68.2813
259 112.3257
1979 11.2730
2609 72.6359
2623 54.0054
5910 272.0351
5937 30.5170
2062 79.1551
890 119.1817
5008 169.5311
8602 27.6365
8478 247.8699
8300 193.3948
7721 330.8305
8466 12.5016
7852 239.9790
5849 62.3235
6302 220.2837
7439 220.3561
6284 35.8322
6003 194.7268
7165 185.8644
7623 299.8921
8158 113.7499
8667 153.9291
9078 210.8845
8684 52.0861
7666 19.5140
4231 170.0161
1659 270.4553
489 120.2352
238 35.3254
46 189.9459
83 65.5690
254 183.2785
1066 151.9335
2112 109.6891
4047 305.7947
5402 242.8233
2544 210.1627
4670 178.2932
4426 289.7491
5656 74.1643
7040 292.3355
6282 278.4940
PLANTSmolcadARTstart hb
PLANTSmolcadARTstart HB
LINES
-20.2075 -50.3366 -10.4608 -22.179 -50.933 -10.369 0 255 0 5
-20.2075 -50.3366 -10.4608 -21.5772 -50.1502 -11.6267 0 255 0 5
PLANTSmolcadARTstart HBCH
LINES
PLANTSmolcadARTstart HB-CHO
LINES
PLANTSmolcadARTend
PLANTSmolcadARTstart HB_WATER
LINES
PLANTSmolcadARTend

PLANTSmolcadARTend

