@<TRIPOS>MOLECULE
ibuprofen_entry_00001_conf_86
32 32 1
SMALL
NO_CHARGES


@<TRIPOS>ATOM
      1 C         -14.4714  -47.6955    2.7897 C.3       1 UNL1        0.0000
      2 C         -14.4503  -46.7382    1.6351 C.3       1 UNL1        0.0000
      3 C         -14.3026  -47.4704    0.3395 C.3       1 UNL1        0.0000
      4 C         -15.7160  -45.9274    1.6427 C.3       1 UNL1        0.0000
      5 C         -15.6799  -44.8669    0.6062 C.ar      1 UNL1        0.0000
      6 C         -15.2975  -43.5984    0.9763 C.ar      1 UNL1        0.0000
      7 C         -15.2499  -42.5907    0.0559 C.ar      1 UNL1        0.0000
      8 C         -15.5831  -42.8261   -1.2556 C.ar      1 UNL1        0.0000
      9 C         -15.9657  -44.0883   -1.6366 C.ar      1 UNL1        0.0000
     10 C         -16.0133  -45.1037   -0.7055 C.ar      1 UNL1        0.0000
     11 C         -15.5403  -41.7578   -2.2682 C.3       1 UNL1        0.0000
     12 C         -16.2654  -40.5262   -1.7262 C.3       1 UNL1        0.0000
     13 C         -14.1029  -41.4407   -2.5151 C.2       1 UNL1        0.0000
     14 O         -13.5269  -40.5540   -1.8682 O.co2     1 UNL1       -0.5000
     15 O         -13.4305  -42.1476   -3.4705 O.co2     1 UNL1       -0.5000
     16 H         -13.5715  -48.2755    2.7881 H         1 UNL1        0.0000
     17 H         -15.3155  -48.3467    2.6980 H         1 UNL1        0.0000
     18 H         -14.5409  -47.1473    3.7056 H         1 UNL1        0.0000
     19 H         -13.6097  -46.0848    1.7357 H         1 UNL1        0.0000
     20 H         -15.1315  -48.1347    0.2092 H         1 UNL1        0.0000
     21 H         -13.3931  -48.0338    0.3502 H         1 UNL1        0.0000
     22 H         -14.2782  -46.7682   -0.4673 H         1 UNL1        0.0000
     23 H         -15.8337  -45.4726    2.6037 H         1 UNL1        0.0000
     24 H         -16.5372  -46.5799    1.4312 H         1 UNL1        0.0000
     25 H         -15.0449  -43.4064    1.9584 H         1 UNL1        0.0000
     26 H         -14.9611  -41.6438    0.3490 H         1 UNL1        0.0000
     27 H         -16.2175  -44.2774   -2.6196 H         1 UNL1        0.0000
     28 H         -16.3020  -46.0512   -0.9956 H         1 UNL1        0.0000
     29 H         -16.0161  -42.0613   -3.1775 H         1 UNL1        0.0000
     30 H         -15.8004  -40.2108   -0.8155 H         1 UNL1        0.0000
     31 H         -17.2899  -40.7713   -1.5370 H         1 UNL1        0.0000
     32 H         -16.2143  -39.7369   -2.4463 H         1 UNL1        0.0000
@<TRIPOS>BOND
     1    1   17 1
     2    1    2 1
     3    1   16 1
     4    1   18 1
     5    2   19 1
     6    2    3 1
     7    2    4 1
     8    3   21 1
     9    3   22 1
    10    3   20 1
    11    4    5 1
    12    4   24 1
    13    4   23 1
    14    5    6 ar
    15    5   10 ar
    16    6    7 ar
    17    6   25 1
    18    7   26 1
    19    7    8 ar
    20    8    9 ar
    21    8   11 1
    22    9   10 ar
    23    9   27 1
    24   10   28 1
    25   11   29 1
    26   11   12 1
    27   11   13 1
    28   12   30 1
    29   12   31 1
    30   12   32 1
    31   13   15 ar
    32   13   14 ar
@<TRIPOS>SUBSTRUCTURE
1 UNL1 1
@<TRIPOS>COMMENT
ibuprofen
PLANTSproteinTorsions
102
4661 150.4202
5386 53.9487
6210 165.3997
5890 20.9166
4461 199.4721
1390 104.0533
2824 124.4937
4339 96.0560
2732 137.1998
4792 13.8507
3407 13.0182
5134 154.7600
6916 106.8777
7370 183.4252
6038 83.0952
7225 147.7350
3592 172.9819
2064 325.5641
2488 136.9344
1253 138.6248
2069 247.0667
2569 208.6667
3058 216.6946
1748 84.0729
1162 196.8518
1509 216.8870
560 114.3402
1627 63.7820
1941 110.6821
3631 125.9716
2381 133.0436
4221 87.3182
4687 112.7307
6983 201.3208
6668 79.7420
7305 102.6085
8693 113.4076
8404 221.3396
9055 116.4462
7052 223.0562
4708 17.1802
2652 104.8471
4332 117.8805
3011 332.3103
2257 253.7288
2778 143.2477
2057 62.3154
192 20.2484
315 256.7211
1085 23.0424
1007 154.0194
1407 184.6991
4816 18.6495
3131 191.6570
4654 190.8607
5144 149.6732
117 153.9572
6 172.9817
259 174.0458
1979 18.5945
2609 15.6131
2623 249.0147
5910 193.2286
5937 15.2552
2062 261.8538
890 204.3505
5008 253.8215
8602 102.9908
8478 264.1317
8300 94.7815
7721 108.8731
8466 274.2346
7852 158.8587
5849 1.5192
6302 19.5261
7439 161.7818
6284 114.8271
6003 176.6015
7165 249.4459
7623 271.6125
8158 48.5349
8667 267.4448
9078 161.6595
8684 49.7622
7666 171.8080
4231 74.6410
1659 271.8067
489 210.5640
238 275.3552
46 271.3405
83 131.1827
254 197.0004
1066 115.4984
2112 116.4862
4047 27.1214
5402 266.4831
2544 263.5504
4670 217.6073
4426 235.8836
5656 172.9872
7040 267.8166
6282 231.8663
PLANTSmolcadARTstart hb
PLANTSmolcadARTstart HB
LINES
PLANTSmolcadARTstart HBCH
LINES
-13.5269 -40.554 -1.86822 -13.084 -39.387 -3.151 255 0 0 5
-13.4305 -42.1476 -3.47054 -12.228 -40.893 -4.598 255 0 0 5
PLANTSmolcadARTstart HB-CHO
LINES
PLANTSmolcadARTend
PLANTSmolcadARTstart HB_WATER
LINES
PLANTSmolcadARTend

PLANTSmolcadARTend

