@<TRIPOS>MOLECULE
ibuprofen_entry_00001_conf_31
32 32 1
SMALL
NO_CHARGES


@<TRIPOS>ATOM
      1 C         -13.0071  -52.1521    4.0094 C.3       1 UNL1        0.0000
      2 C         -13.8386  -52.7544    2.9159 C.3       1 UNL1        0.0000
      3 C         -14.0190  -51.7865    1.7902 C.3       1 UNL1        0.0000
      4 C         -13.1773  -54.0136    2.4294 C.3       1 UNL1        0.0000
      5 C         -13.9017  -54.5858    1.2683 C.ar      1 UNL1        0.0000
      6 C         -15.2698  -54.4522    1.2158 C.ar      1 UNL1        0.0000
      7 C         -15.9782  -54.9633    0.1662 C.ar      1 UNL1        0.0000
      8 C         -15.3369  -55.6198   -0.8557 C.ar      1 UNL1        0.0000
      9 C         -13.9718  -55.7587   -0.8144 C.ar      1 UNL1        0.0000
     10 C         -13.2590  -55.2422    0.2466 C.ar      1 UNL1        0.0000
     11 C         -16.0765  -56.1804   -1.9991 C.3       1 UNL1        0.0000
     12 C         -15.9210  -55.2482   -3.2003 C.3       1 UNL1        0.0000
     13 C         -15.4772  -57.5133   -2.3019 C.2       1 UNL1        0.0000
     14 O         -15.0310  -58.2310   -1.3951 O.co2     1 UNL1       -0.5000
     15 O         -15.4288  -57.9303   -3.6014 O.co2     1 UNL1       -0.5000
     16 H         -13.4744  -51.2544    4.3589 H         1 UNL1        0.0000
     17 H         -12.0325  -51.9230    3.6319 H         1 UNL1        0.0000
     18 H         -12.9228  -52.8482    4.8172 H         1 UNL1        0.0000
     19 H         -14.8086  -52.9887    3.3004 H         1 UNL1        0.0000
     20 H         -13.0628  -51.5318    1.3827 H         1 UNL1        0.0000
     21 H         -14.4981  -50.9019    2.1541 H         1 UNL1        0.0000
     22 H         -14.6236  -52.2326    1.0286 H         1 UNL1        0.0000
     23 H         -13.1667  -54.7313    3.2225 H         1 UNL1        0.0000
     24 H         -12.1802  -53.7757    2.1228 H         1 UNL1        0.0000
     25 H         -15.7654  -53.9619    1.9769 H         1 UNL1        0.0000
     26 H         -17.0046  -54.8552    0.1411 H         1 UNL1        0.0000
     27 H         -13.4788  -56.2493   -1.5770 H         1 UNL1        0.0000
     28 H         -12.2329  -55.3490    0.2744 H         1 UNL1        0.0000
     29 H         -17.1188  -56.2822   -1.7789 H         1 UNL1        0.0000
     30 H         -14.8823  -55.1362   -3.4326 H         1 UNL1        0.0000
     31 H         -16.3386  -54.2914   -2.9645 H         1 UNL1        0.0000
     32 H         -16.4333  -55.6635   -4.0425 H         1 UNL1        0.0000
@<TRIPOS>BOND
     1    1   17 1
     2    1    2 1
     3    1   16 1
     4    1   18 1
     5    2   19 1
     6    2    3 1
     7    2    4 1
     8    3   21 1
     9    3   22 1
    10    3   20 1
    11    4    5 1
    12    4   24 1
    13    4   23 1
    14    5    6 ar
    15    5   10 ar
    16    6    7 ar
    17    6   25 1
    18    7   26 1
    19    7    8 ar
    20    8    9 ar
    21    8   11 1
    22    9   10 ar
    23    9   27 1
    24   10   28 1
    25   11   29 1
    26   11   12 1
    27   11   13 1
    28   12   30 1
    29   12   31 1
    30   12   32 1
    31   13   15 ar
    32   13   14 ar
@<TRIPOS>SUBSTRUCTURE
1 UNL1 1
@<TRIPOS>COMMENT
ibuprofen
PLANTSproteinTorsions
102
4661 157.0288
5386 13.4957
6210 316.3899
5890 16.3393
4461 339.4921
1390 120.0505
2824 165.1566
4339 18.1208
2732 245.3607
4792 48.7402
3407 87.1443
5134 241.2214
6916 73.4860
7370 202.3377
6038 143.6170
7225 177.6554
3592 107.6530
2064 91.2006
2488 55.4168
1253 36.8301
2069 252.9718
2569 269.0605
3058 304.4048
1748 83.4315
1162 177.6802
1509 2.9899
560 321.5155
1627 61.1718
1941 97.8948
3631 125.4570
2381 136.4382
4221 350.1633
4687 149.5165
6983 245.7588
6668 63.1350
7305 173.0926
8693 168.0420
8404 66.9820
9055 308.8374
7052 170.2812
4708 284.3091
2652 106.5488
4332 248.4539
3011 243.3161
2257 254.6350
2778 151.4012
2057 99.7298
192 0.7482
315 47.1788
1085 204.1862
1007 249.6593
1407 249.8186
4816 93.9052
3131 108.3011
4654 113.1274
5144 158.2313
117 133.6622
6 86.9868
259 191.6984
1979 26.2546
2609 18.7227
2623 157.0827
5910 117.3169
5937 114.1353
2062 115.7840
890 159.0573
5008 223.0862
8602 37.2041
8478 55.4197
8300 135.5947
7721 130.1420
8466 244.1281
7852 156.3621
5849 317.2245
6302 125.1430
7439 52.9808
6284 86.4517
6003 186.4966
7165 137.4180
7623 346.9219
8158 83.3428
8667 296.5212
9078 120.2201
8684 18.4174
7666 70.6130
4231 272.7440
1659 331.5642
489 107.8569
238 117.6170
46 64.2387
83 253.0134
254 156.8508
1066 216.3943
2112 337.7342
4047 257.3692
5402 256.9621
2544 163.0348
4670 259.7153
4426 244.4207
5656 150.6264
7040 264.0351
6282 283.0396
PLANTSmolcadARTstart hb
PLANTSmolcadARTstart HB
LINES
-15.4288 -57.9303 -3.60141 -16.5905 -58.2958 -5.09989 0 255 0 5
PLANTSmolcadARTstart HBCH
LINES
PLANTSmolcadARTstart HB-CHO
LINES
PLANTSmolcadARTend
PLANTSmolcadARTstart HB_WATER
LINES
PLANTSmolcadARTend

PLANTSmolcadARTend

