@<TRIPOS>MOLECULE
ibuprofen_entry_00001_conf_75
32 32 1
SMALL
NO_CHARGES


@<TRIPOS>ATOM
      1 C         -14.4851  -55.3762   -0.5395 C.3       1 UNL1        0.0000
      2 C         -13.8817  -55.0688    0.7989 C.3       1 UNL1        0.0000
      3 C         -14.9172  -55.1305    1.8762 C.3       1 UNL1        0.0000
      4 C         -12.7720  -56.0442    1.0759 C.3       1 UNL1        0.0000
      5 C         -13.1628  -57.4235    0.6953 C.ar      1 UNL1        0.0000
      6 C         -12.2564  -58.1984    0.0094 C.ar      1 UNL1        0.0000
      7 C         -12.5729  -59.4738   -0.3618 C.ar      1 UNL1        0.0000
      8 C         -13.8020  -60.0055   -0.0567 C.ar      1 UNL1        0.0000
      9 C         -14.7145  -59.2418    0.6280 C.ar      1 UNL1        0.0000
     10 C         -14.3927  -57.9544    1.0012 C.ar      1 UNL1        0.0000
     11 C         -14.1689  -61.3779   -0.4449 C.3       1 UNL1        0.0000
     12 C         -13.3695  -61.7771   -1.6849 C.3       1 UNL1        0.0000
     13 C         -13.8201  -62.2689    0.7004 C.2       1 UNL1        0.0000
     14 O         -12.9158  -61.9638    1.4913 O.co2     1 UNL1       -0.5000
     15 O         -14.5178  -63.4316    0.8625 O.co2     1 UNL1       -0.5000
     16 H         -15.2765  -54.6838   -0.7410 H         1 UNL1        0.0000
     17 H         -14.8756  -56.3724   -0.5348 H         1 UNL1        0.0000
     18 H         -13.7345  -55.2903   -1.2967 H         1 UNL1        0.0000
     19 H         -13.4861  -54.0754    0.7862 H         1 UNL1        0.0000
     20 H         -15.3334  -56.1157    1.9143 H         1 UNL1        0.0000
     21 H         -15.6928  -54.4243    1.6659 H         1 UNL1        0.0000
     22 H         -14.4673  -54.8969    2.8183 H         1 UNL1        0.0000
     23 H         -12.5404  -56.0225    2.1200 H         1 UNL1        0.0000
     24 H         -11.9195  -55.7611    0.4946 H         1 UNL1        0.0000
     25 H         -11.3291  -57.8120   -0.2274 H         1 UNL1        0.0000
     26 H         -11.8820  -60.0429   -0.8763 H         1 UNL1        0.0000
     27 H         -15.6410  -59.6310    0.8636 H         1 UNL1        0.0000
     28 H         -15.0815  -57.3831    1.5153 H         1 UNL1        0.0000
     29 H         -15.2119  -61.4545   -0.6720 H         1 UNL1        0.0000
     30 H         -12.3230  -61.7050   -1.4729 H         1 UNL1        0.0000
     31 H         -13.6155  -61.1204   -2.4934 H         1 UNL1        0.0000
     32 H         -13.6112  -62.7832   -1.9561 H         1 UNL1        0.0000
@<TRIPOS>BOND
     1    1   17 1
     2    1    2 1
     3    1   16 1
     4    1   18 1
     5    2   19 1
     6    2    3 1
     7    2    4 1
     8    3   21 1
     9    3   22 1
    10    3   20 1
    11    4    5 1
    12    4   24 1
    13    4   23 1
    14    5    6 ar
    15    5   10 ar
    16    6    7 ar
    17    6   25 1
    18    7   26 1
    19    7    8 ar
    20    8    9 ar
    21    8   11 1
    22    9   10 ar
    23    9   27 1
    24   10   28 1
    25   11   29 1
    26   11   12 1
    27   11   13 1
    28   12   30 1
    29   12   31 1
    30   12   32 1
    31   13   15 ar
    32   13   14 ar
@<TRIPOS>SUBSTRUCTURE
1 UNL1 1
@<TRIPOS>COMMENT
ibuprofen
PLANTSproteinTorsions
102
4661 212.4438
5386 38.7015
6210 45.8523
5890 15.6061
4461 5.7576
1390 358.8127
2824 242.2703
4339 5.3719
2732 302.0108
4792 27.6892
3407 104.7021
5134 182.7371
6916 354.0085
7370 192.2653
6038 347.1674
7225 186.1254
3592 121.8552
2064 249.4341
2488 186.3885
1253 195.4464
2069 59.6348
2569 92.4178
3058 355.3855
1748 35.5479
1162 120.5724
1509 358.5053
560 139.5454
1627 25.9316
1941 150.5917
3631 39.7154
2381 27.1516
4221 6.1575
4687 124.6803
6983 72.9704
6668 55.1738
7305 111.4100
8693 86.5787
8404 108.8708
9055 49.4527
7052 103.6512
4708 139.4683
2652 105.6468
4332 19.1770
3011 10.3681
2257 167.5490
2778 46.4956
2057 37.2535
192 193.5017
315 98.7491
1085 169.2690
1007 244.4155
1407 316.0715
4816 158.5134
3131 168.9708
4654 226.4648
5144 169.0880
117 135.6128
6 24.7877
259 236.4714
1979 145.6442
2609 55.1705
2623 84.4622
5910 173.6796
5937 34.1968
2062 37.4803
890 286.3651
5008 251.7919
8602 105.6421
8478 343.0760
8300 176.2664
7721 133.1855
8466 190.1503
7852 248.0873
5849 264.1622
6302 57.6726
7439 56.9859
6284 68.7432
6003 124.0413
7165 257.4527
7623 171.4827
8158 255.7398
8667 113.9355
9078 211.5787
8684 170.8040
7666 23.9554
4231 74.9172
1659 97.6890
489 256.4995
238 257.4315
46 167.7939
83 174.8772
254 83.3609
1066 271.8631
2112 94.6738
4047 223.1287
5402 232.2488
2544 131.4080
4670 234.8564
4426 75.4194
5656 193.9401
7040 27.9100
6282 221.0656
PLANTSmolcadARTstart hb
PLANTSmolcadARTstart HB
LINES
PLANTSmolcadARTstart HBCH
LINES
PLANTSmolcadARTstart HB-CHO
LINES
PLANTSmolcadARTend
PLANTSmolcadARTstart HB_WATER
LINES
PLANTSmolcadARTend

PLANTSmolcadARTend

