@<TRIPOS>MOLECULE
ibuprofen_entry_00001_conf_70
32 32 1
SMALL
NO_CHARGES


@<TRIPOS>ATOM
      1 C         -17.3367  -37.0993    1.3550 C.3       1 UNL1        0.0000
      2 C         -16.5483  -38.3695    1.2320 C.3       1 UNL1        0.0000
      3 C         -17.4577  -39.5501    1.1067 C.3       1 UNL1        0.0000
      4 C         -15.6399  -38.2731    0.0383 C.3       1 UNL1        0.0000
      5 C         -14.8407  -39.5115   -0.1290 C.ar      1 UNL1        0.0000
      6 C         -14.6882  -40.0299   -1.3940 C.ar      1 UNL1        0.0000
      7 C         -13.9614  -41.1682   -1.5956 C.ar      1 UNL1        0.0000
      8 C         -13.3696  -41.8155   -0.5385 C.ar      1 UNL1        0.0000
      9 C         -13.5145  -41.3071    0.7284 C.ar      1 UNL1        0.0000
     10 C         -14.2491  -40.1580    0.9293 C.ar      1 UNL1        0.0000
     11 C         -12.5805  -43.0444   -0.7278 C.3       1 UNL1        0.0000
     12 C         -12.7623  -43.9478    0.4916 C.3       1 UNL1        0.0000
     13 C         -13.1033  -43.7208   -1.9512 C.2       1 UNL1        0.0000
     14 O         -12.4882  -43.6567   -3.0255 O.co2     1 UNL1       -0.5000
     15 O         -14.2763  -44.4146   -1.8659 O.co2     1 UNL1       -0.5000
     16 H         -17.9856  -37.1636    2.2042 H         1 UNL1        0.0000
     17 H         -17.9206  -36.9545    0.4702 H         1 UNL1        0.0000
     18 H         -16.6665  -36.2750    1.4797 H         1 UNL1        0.0000
     19 H         -15.9607  -38.5053    2.1151 H         1 UNL1        0.0000
     20 H         -18.0610  -39.4435    0.2292 H         1 UNL1        0.0000
     21 H         -18.0894  -39.6064    1.9684 H         1 UNL1        0.0000
     22 H         -16.8748  -40.4441    1.0322 H         1 UNL1        0.0000
     23 H         -14.9763  -37.4445    0.1704 H         1 UNL1        0.0000
     24 H         -16.2423  -38.1381   -0.8356 H         1 UNL1        0.0000
     25 H         -15.1278  -39.5548   -2.1980 H         1 UNL1        0.0000
     26 H         -13.8561  -41.5453   -2.5509 H         1 UNL1        0.0000
     27 H         -13.0736  -41.7843    1.5305 H         1 UNL1        0.0000
     28 H         -14.3562  -39.7790    1.8832 H         1 UNL1        0.0000
     29 H         -11.5386  -42.8270   -0.8391 H         1 UNL1        0.0000
     30 H         -13.8009  -44.1739    0.6160 H         1 UNL1        0.0000
     31 H         -12.3999  -43.4449    1.3641 H         1 UNL1        0.0000
     32 H         -12.2132  -44.8546    0.3483 H         1 UNL1        0.0000
@<TRIPOS>BOND
     1    1   17 1
     2    1    2 1
     3    1   16 1
     4    1   18 1
     5    2   19 1
     6    2    3 1
     7    2    4 1
     8    3   21 1
     9    3   22 1
    10    3   20 1
    11    4    5 1
    12    4   24 1
    13    4   23 1
    14    5    6 ar
    15    5   10 ar
    16    6    7 ar
    17    6   25 1
    18    7   26 1
    19    7    8 ar
    20    8    9 ar
    21    8   11 1
    22    9   10 ar
    23    9   27 1
    24   10   28 1
    25   11   29 1
    26   11   12 1
    27   11   13 1
    28   12   30 1
    29   12   31 1
    30   12   32 1
    31   13   15 ar
    32   13   14 ar
@<TRIPOS>SUBSTRUCTURE
1 UNL1 1
@<TRIPOS>COMMENT
ibuprofen
PLANTSproteinTorsions
102
4661 26.8738
5386 154.5899
6210 254.3856
5890 253.9114
4461 17.6413
1390 210.5314
2824 186.2131
4339 5.9505
2732 346.4591
4792 338.3584
3407 233.0574
5134 105.0580
6916 231.2081
7370 84.3128
6038 223.4906
7225 149.7426
3592 237.0193
2064 230.3144
2488 104.6365
1253 138.1210
2069 185.3944
2569 350.9305
3058 291.4243
1748 175.0850
1162 143.3102
1509 168.0536
560 46.3110
1627 2.7585
1941 338.0148
3631 38.8303
2381 110.6115
4221 17.0635
4687 302.0689
6983 12.9636
6668 65.7807
7305 240.9173
8693 230.0110
8404 275.5807
9055 67.9839
7052 119.4421
4708 352.7192
2652 337.9278
4332 58.0918
3011 23.1134
2257 129.9398
2778 220.0035
2057 125.4248
192 194.4822
315 73.8444
1085 63.3662
1007 152.4981
1407 100.8200
4816 162.5376
3131 268.8947
4654 197.8012
5144 293.1658
117 146.2760
6 111.5270
259 218.6188
1979 229.6727
2609 134.7288
2623 95.6677
5910 42.0314
5937 165.5214
2062 277.4227
890 320.4525
5008 115.7343
8602 316.7777
8478 267.8692
8300 302.7923
7721 138.4204
8466 152.8202
7852 305.0314
5849 205.7985
6302 35.2632
7439 228.5721
6284 114.8866
6003 306.3018
7165 149.8890
7623 147.4585
8158 237.5957
8667 137.6348
9078 155.8647
8684 264.5473
7666 142.7534
4231 98.1515
1659 213.1733
489 147.5191
238 227.1458
46 87.6412
83 283.3218
254 237.2218
1066 272.6916
2112 114.3787
4047 326.0655
5402 190.5282
2544 140.2546
4670 121.7801
4426 231.4716
5656 115.0692
7040 181.4428
6282 211.4253
PLANTSmolcadARTstart hb
PLANTSmolcadARTstart HB
LINES
PLANTSmolcadARTstart HBCH
LINES
PLANTSmolcadARTstart HB-CHO
LINES
PLANTSmolcadARTend
PLANTSmolcadARTstart HB_WATER
LINES
PLANTSmolcadARTend

PLANTSmolcadARTend

