@<TRIPOS>MOLECULE
ibuprofen_entry_00001_conf_05
32 32 1
SMALL
NO_CHARGES


@<TRIPOS>ATOM
      1 C         -14.7939  -65.1042   -1.0087 C.3       1 UNL1        0.0000
      2 C         -14.6615  -63.7113   -0.4680 C.3       1 UNL1        0.0000
      3 C         -14.7451  -63.7100    1.0251 C.3       1 UNL1        0.0000
      4 C         -13.3541  -63.1266   -0.9247 C.3       1 UNL1        0.0000
      5 C         -13.1517  -61.7663   -0.3691 C.ar      1 UNL1        0.0000
      6 C         -13.4622  -60.6815   -1.1559 C.ar      1 UNL1        0.0000
      7 C         -13.2917  -59.4107   -0.6862 C.ar      1 UNL1        0.0000
      8 C         -12.8072  -59.1933    0.5805 C.ar      1 UNL1        0.0000
      9 C         -12.4944  -60.2682    1.3751 C.ar      1 UNL1        0.0000
     10 C         -12.6670  -61.5501    0.8983 C.ar      1 UNL1        0.0000
     11 C         -12.6138  -57.8335    1.1118 C.3       1 UNL1        0.0000
     12 C         -12.4069  -56.8664   -0.0536 C.3       1 UNL1        0.0000
     13 C         -13.8510  -57.4737    1.8649 C.2       1 UNL1        0.0000
     14 O         -13.8871  -56.4648    2.5842 O.co2     1 UNL1       -0.5000
     15 O         -14.9476  -58.2789    1.7472 O.co2     1 UNL1       -0.5000
     16 H         -15.7240  -65.5248   -0.6856 H         1 UNL1        0.0000
     17 H         -13.9860  -65.7056   -0.6475 H         1 UNL1        0.0000
     18 H         -14.7676  -65.0752   -2.0776 H         1 UNL1        0.0000
     19 H         -15.4666  -63.1126   -0.8382 H         1 UNL1        0.0000
     20 H         -13.9498  -64.3027    1.4270 H         1 UNL1        0.0000
     21 H         -15.6846  -64.1211    1.3298 H         1 UNL1        0.0000
     22 H         -14.6601  -62.7068    1.3871 H         1 UNL1        0.0000
     23 H         -13.3503  -63.0716   -1.9930 H         1 UNL1        0.0000
     24 H         -12.5619  -63.7560   -0.5767 H         1 UNL1        0.0000
     25 H         -13.8266  -60.8294   -2.1102 H         1 UNL1        0.0000
     26 H         -13.5291  -58.6067   -1.2888 H         1 UNL1        0.0000
     27 H         -12.1303  -60.1172    2.3291 H         1 UNL1        0.0000
     28 H         -12.4303  -62.3557    1.4984 H         1 UNL1        0.0000
     29 H         -11.7591  -57.7822    1.7537 H         1 UNL1        0.0000
     30 H         -13.2548  -56.9070   -0.7053 H         1 UNL1        0.0000
     31 H         -11.5271  -57.1454   -0.5955 H         1 UNL1        0.0000
     32 H         -12.2931  -55.8722    0.3243 H         1 UNL1        0.0000
@<TRIPOS>BOND
     1    1   17 1
     2    1    2 1
     3    1   16 1
     4    1   18 1
     5    2   19 1
     6    2    3 1
     7    2    4 1
     8    3   21 1
     9    3   22 1
    10    3   20 1
    11    4    5 1
    12    4   24 1
    13    4   23 1
    14    5    6 ar
    15    5   10 ar
    16    6    7 ar
    17    6   25 1
    18    7   26 1
    19    7    8 ar
    20    8    9 ar
    21    8   11 1
    22    9   10 ar
    23    9   27 1
    24   10   28 1
    25   11   29 1
    26   11   12 1
    27   11   13 1
    28   12   30 1
    29   12   31 1
    30   12   32 1
    31   13   15 ar
    32   13   14 ar
@<TRIPOS>SUBSTRUCTURE
1 UNL1 1
@<TRIPOS>COMMENT
ibuprofen
PLANTSproteinTorsions
102
4661 292.4233
5386 235.6067
6210 124.6992
5890 270.3309
4461 230.7619
1390 269.4299
2824 43.2534
4339 109.6019
2732 208.5374
4792 21.0580
3407 196.7072
5134 87.4133
6916 43.4999
7370 98.9268
6038 115.0996
7225 124.0225
3592 146.3046
2064 188.7455
2488 122.6364
1253 117.0193
2069 168.1435
2569 20.1879
3058 198.0011
1748 168.4891
1162 174.1802
1509 150.9400
560 197.7791
1627 234.4572
1941 100.2058
3631 334.0848
2381 122.0866
4221 2.2063
4687 136.9410
6983 260.0499
6668 59.5795
7305 58.8795
8693 226.8437
8404 253.3445
9055 280.3034
7052 63.0035
4708 54.6014
2652 218.6974
4332 51.8915
3011 188.7110
2257 96.3665
2778 201.6197
2057 19.3898
192 283.1686
315 234.8371
1085 204.5382
1007 350.7714
1407 238.1600
4816 207.9238
3131 45.6412
4654 310.4373
5144 174.6131
117 262.9222
6 163.8578
259 357.3057
1979 113.0054
2609 104.5387
2623 41.5955
5910 114.0961
5937 292.2671
2062 127.3733
890 86.2984
5008 20.3154
8602 236.7664
8478 28.7305
8300 44.6401
7721 172.5025
8466 200.6015
7852 79.5479
5849 107.5190
6302 305.6581
7439 202.9880
6284 149.3605
6003 193.0850
7165 213.6988
7623 307.7838
8158 246.0401
8667 301.9107
9078 103.0619
8684 53.9203
7666 46.0518
4231 90.4005
1659 324.6171
489 235.5872
238 152.0333
46 296.8746
83 236.2350
254 114.6400
1066 244.6360
2112 28.0017
4047 129.2898
5402 136.1445
2544 223.9038
4670 170.4897
4426 227.8198
5656 108.4090
7040 94.1696
6282 108.5122
PLANTSmolcadARTstart hb
PLANTSmolcadARTstart HB
LINES
-14.9476 -58.2789 1.74724 -16.346 -59.843 1.833 0 255 0 5
PLANTSmolcadARTstart HBCH
LINES
PLANTSmolcadARTstart HB-CHO
LINES
PLANTSmolcadARTend
PLANTSmolcadARTstart HB_WATER
LINES
PLANTSmolcadARTend

PLANTSmolcadARTend

