@<TRIPOS>MOLECULE
ibuprofen_entry_00001_conf_01
32 32 1
SMALL
NO_CHARGES


@<TRIPOS>ATOM
      1 C         -12.6107  -61.4428    0.8444 C.3       1 UNL1        0.0000
      2 C         -12.5694  -60.0064    1.2746 C.3       1 UNL1        0.0000
      3 C         -11.2904  -59.3597    0.8477 C.3       1 UNL1        0.0000
      4 C         -13.7493  -59.2817    0.6895 C.3       1 UNL1        0.0000
      5 C         -13.8654  -57.9107    1.2438 C.ar      1 UNL1        0.0000
      6 C         -14.8723  -57.6482    2.1435 C.ar      1 UNL1        0.0000
      7 C         -15.0175  -56.4006    2.6794 C.ar      1 UNL1        0.0000
      8 C         -14.1606  -55.3859    2.3294 C.ar      1 UNL1        0.0000
      9 C         -13.1516  -55.6363    1.4328 C.ar      1 UNL1        0.0000
     10 C         -13.0073  -56.8965    0.8930 C.ar      1 UNL1        0.0000
     11 C         -14.2947  -54.0317    2.8922 C.3       1 UNL1        0.0000
     12 C         -12.9634  -53.6164    3.5179 C.3       1 UNL1        0.0000
     13 C         -14.6400  -53.1170    1.7645 C.2       1 UNL1        0.0000
     14 O         -14.2044  -51.9571    1.7300 O.co2     1 UNL1       -0.5000
     15 O         -15.4482  -53.5825    0.7670 O.co2     1 UNL1       -0.5000
     16 H         -11.7717  -61.9630    1.2589 H         1 UNL1        0.0000
     17 H         -12.5717  -61.4968   -0.2235 H         1 UNL1        0.0000
     18 H         -13.5167  -61.8927    1.1921 H         1 UNL1        0.0000
     19 H         -12.6167  -59.9577    2.3419 H         1 UNL1        0.0000
     20 H         -11.2135  -59.3925   -0.2192 H         1 UNL1        0.0000
     21 H         -10.4642  -59.8836    1.2805 H         1 UNL1        0.0000
     22 H         -11.2782  -58.3411    1.1748 H         1 UNL1        0.0000
     23 H         -14.6414  -59.8267    0.9161 H         1 UNL1        0.0000
     24 H         -13.6107  -59.2085   -0.3689 H         1 UNL1        0.0000
     25 H         -15.5243  -58.4006    2.4154 H         1 UNL1        0.0000
     26 H         -15.7783  -56.2189    3.3533 H         1 UNL1        0.0000
     27 H         -12.5009  -54.8818    1.1629 H         1 UNL1        0.0000
     28 H         -12.2479  -57.0808    0.2189 H         1 UNL1        0.0000
     29 H         -15.0526  -53.9949    3.6468 H         1 UNL1        0.0000
     30 H         -12.1945  -53.6487    2.7742 H         1 UNL1        0.0000
     31 H         -12.7187  -54.2898    4.3130 H         1 UNL1        0.0000
     32 H         -13.0459  -52.6225    3.9045 H         1 UNL1        0.0000
@<TRIPOS>BOND
     1    1   17 1
     2    1    2 1
     3    1   16 1
     4    1   18 1
     5    2   19 1
     6    2    3 1
     7    2    4 1
     8    3   21 1
     9    3   22 1
    10    3   20 1
    11    4    5 1
    12    4   24 1
    13    4   23 1
    14    5    6 ar
    15    5   10 ar
    16    6    7 ar
    17    6   25 1
    18    7   26 1
    19    7    8 ar
    20    8    9 ar
    21    8   11 1
    22    9   10 ar
    23    9   27 1
    24   10   28 1
    25   11   29 1
    26   11   12 1
    27   11   13 1
    28   12   30 1
    29   12   31 1
    30   12   32 1
    31   13   15 ar
    32   13   14 ar
@<TRIPOS>SUBSTRUCTURE
1 UNL1 1
@<TRIPOS>COMMENT
ibuprofen
PLANTSproteinTorsions
102
4661 118.8188
5386 356.2730
6210 214.0771
5890 30.9814
4461 172.8282
1390 162.9398
2824 297.0513
4339 51.4256
2732 195.2216
4792 2.7197
3407 6.8216
5134 18.2539
6916 95.3784
7370 217.1414
6038 61.2427
7225 186.4819
3592 153.8771
2064 294.3451
2488 120.7732
1253 72.8189
2069 328.2906
2569 185.3074
3058 0.7509
1748 73.3972
1162 176.6551
1509 223.4721
560 347.8964
1627 0.2716
1941 23.5465
3631 113.5662
2381 71.7688
4221 65.2983
4687 124.6926
6983 117.8335
6668 93.3756
7305 228.0053
8693 29.7122
8404 79.5948
9055 109.9972
7052 103.8037
4708 105.2068
2652 120.2677
4332 54.7752
3011 325.4084
2257 267.8948
2778 169.8528
2057 112.5015
192 16.2952
315 171.5259
1085 190.7332
1007 145.6320
1407 214.6251
4816 3.7310
3131 82.7068
4654 93.6743
5144 119.7247
117 51.5555
6 231.3098
259 126.4458
1979 152.2314
2609 343.5519
2623 117.0908
5910 251.0533
5937 122.4156
2062 292.0369
890 350.8595
5008 175.8551
8602 62.4707
8478 270.2015
8300 129.3580
7721 50.0628
8466 34.3078
7852 166.8760
5849 105.9623
6302 307.5010
7439 120.3664
6284 107.2449
6003 265.1445
7165 196.2646
7623 262.7324
8158 216.5070
8667 177.0946
9078 103.1877
8684 59.8922
7666 219.3494
4231 223.0899
1659 141.5329
489 221.2634
238 269.5622
46 181.4143
83 193.8238
254 54.2157
1066 129.1914
2112 271.2211
4047 156.2524
5402 193.0869
2544 264.2083
4670 271.8574
4426 244.8811
5656 152.6885
7040 161.3067
6282 115.8152
PLANTSmolcadARTstart hb
PLANTSmolcadARTstart HB
LINES
-14.2044 -51.9571 1.72996 -13.532 -51.995 -0.043 0 255 0 5
PLANTSmolcadARTstart HBCH
LINES
PLANTSmolcadARTstart HB-CHO
LINES
PLANTSmolcadARTend
PLANTSmolcadARTstart HB_WATER
LINES
PLANTSmolcadARTend

PLANTSmolcadARTend

