@<TRIPOS>MOLECULE
ibuprofen_entry_00001_conf_06
32 32 1
SMALL
NO_CHARGES


@<TRIPOS>ATOM
      1 C         -14.8065  -58.5515   -2.9602 C.3       1 UNL1        0.0000
      2 C         -14.7711  -57.4161   -1.9806 C.3       1 UNL1        0.0000
      3 C         -15.9648  -56.5310   -2.1486 C.3       1 UNL1        0.0000
      4 C         -14.7162  -57.9703   -0.5844 C.3       1 UNL1        0.0000
      5 C         -14.4784  -56.8959    0.4102 C.ar      1 UNL1        0.0000
      6 C         -15.4530  -56.6388    1.3464 C.ar      1 UNL1        0.0000
      7 C         -15.2775  -55.6588    2.2811 C.ar      1 UNL1        0.0000
      8 C         -14.1246  -54.9126    2.3028 C.ar      1 UNL1        0.0000
      9 C         -13.1448  -55.1606    1.3738 C.ar      1 UNL1        0.0000
     10 C         -13.3245  -56.1502    0.4311 C.ar      1 UNL1        0.0000
     11 C         -13.9097  -53.8501    3.2997 C.3       1 UNL1        0.0000
     12 C         -12.5707  -54.0840    3.9986 C.3       1 UNL1        0.0000
     13 C         -13.8854  -52.5522    2.5633 C.2       1 UNL1        0.0000
     14 O         -13.1601  -51.6204    2.9404 O.co2     1 UNL1       -0.5000
     15 O         -14.6798  -52.4084    1.4620 O.co2     1 UNL1       -0.5000
     16 H         -14.8459  -58.1613   -3.9565 H         1 UNL1        0.0000
     17 H         -15.6726  -59.1529   -2.7784 H         1 UNL1        0.0000
     18 H         -13.9264  -59.1485   -2.8454 H         1 UNL1        0.0000
     19 H         -13.8998  -56.8230   -2.1614 H         1 UNL1        0.0000
     20 H         -16.8557  -57.0974   -1.9733 H         1 UNL1        0.0000
     21 H         -15.9814  -56.1402   -3.1443 H         1 UNL1        0.0000
     22 H         -15.9123  -55.7234   -1.4488 H         1 UNL1        0.0000
     23 H         -13.9225  -58.6848   -0.5231 H         1 UNL1        0.0000
     24 H         -15.6566  -58.4318   -0.3662 H         1 UNL1        0.0000
     25 H         -16.3250  -57.1909    1.3419 H         1 UNL1        0.0000
     26 H         -16.0182  -55.4775    2.9771 H         1 UNL1        0.0000
     27 H         -12.2737  -54.6069    1.3810 H         1 UNL1        0.0000
     28 H         -12.5859  -56.3334   -0.2660 H         1 UNL1        0.0000
     29 H         -14.6839  -53.8445    4.0385 H         1 UNL1        0.0000
     30 H         -11.7857  -54.0925    3.2712 H         1 UNL1        0.0000
     31 H         -12.5949  -55.0250    4.5079 H         1 UNL1        0.0000
     32 H         -12.3956  -53.3001    4.7050 H         1 UNL1        0.0000
@<TRIPOS>BOND
     1    1   17 1
     2    1    2 1
     3    1   16 1
     4    1   18 1
     5    2   19 1
     6    2    3 1
     7    2    4 1
     8    3   21 1
     9    3   22 1
    10    3   20 1
    11    4    5 1
    12    4   24 1
    13    4   23 1
    14    5    6 ar
    15    5   10 ar
    16    6    7 ar
    17    6   25 1
    18    7   26 1
    19    7    8 ar
    20    8    9 ar
    21    8   11 1
    22    9   10 ar
    23    9   27 1
    24   10   28 1
    25   11   29 1
    26   11   12 1
    27   11   13 1
    28   12   30 1
    29   12   31 1
    30   12   32 1
    31   13   15 ar
    32   13   14 ar
@<TRIPOS>SUBSTRUCTURE
1 UNL1 1
@<TRIPOS>COMMENT
ibuprofen
PLANTSproteinTorsions
102
4661 273.2050
5386 123.7584
6210 184.2680
5890 237.7886
4461 112.7236
1390 143.2311
2824 347.5822
4339 112.7697
2732 218.9009
4792 291.8485
3407 170.9644
5134 6.9511
6916 112.0733
7370 137.5703
6038 117.5126
7225 278.3967
3592 101.2817
2064 66.9390
2488 230.2572
1253 131.1843
2069 292.3297
2569 197.4527
3058 85.9544
1748 323.0117
1162 294.9111
1509 337.1846
560 283.2149
1627 269.2486
1941 111.1114
3631 80.9001
2381 153.6267
4221 48.4181
4687 115.1962
6983 69.7232
6668 80.4940
7305 186.8580
8693 172.9612
8404 216.8296
9055 14.9459
7052 346.5729
4708 336.9250
2652 355.8559
4332 108.7852
3011 217.8793
2257 178.6059
2778 120.5005
2057 83.1780
192 9.6714
315 81.9578
1085 152.9999
1007 104.7900
1407 8.6323
4816 41.3413
3131 196.4089
4654 168.6583
5144 192.9171
117 164.0962
6 192.1623
259 28.3742
1979 44.8049
2609 12.4968
2623 227.6496
5910 198.4801
5937 58.8377
2062 137.8654
890 218.0388
5008 227.2266
8602 128.1082
8478 22.3896
8300 179.9677
7721 74.1514
8466 231.5434
7852 230.4629
5849 191.7958
6302 259.6797
7439 155.4335
6284 333.0140
6003 206.5677
7165 188.2118
7623 49.4157
8158 265.6018
8667 130.0369
9078 245.5125
8684 26.5171
7666 100.0906
4231 51.2208
1659 99.3979
489 179.8949
238 252.3413
46 328.1438
83 97.0226
254 166.2818
1066 40.9759
2112 266.7242
4047 217.9552
5402 310.4981
2544 248.5482
4670 140.8731
4426 205.0218
5656 223.7757
7040 251.1938
6282 212.7790
PLANTSmolcadARTstart hb
PLANTSmolcadARTstart HB
LINES
-13.1601 -51.6204 2.94045 -11.703 -51.222 1.922 0 255 0 5
-14.6798 -52.4084 1.46196 -13.532 -51.995 -0.043 0 255 0 5
PLANTSmolcadARTstart HBCH
LINES
PLANTSmolcadARTstart HB-CHO
LINES
PLANTSmolcadARTend
PLANTSmolcadARTstart HB_WATER
LINES
PLANTSmolcadARTend

PLANTSmolcadARTend

