@<TRIPOS>MOLECULE
ibuprofen_entry_00001_conf_78
32 32 1
SMALL
NO_CHARGES


@<TRIPOS>ATOM
      1 C         -39.3223  -62.7559    2.0720 C.3       1 UNL1        0.0000
      2 C         -40.2024  -62.8001    3.2859 C.3       1 UNL1        0.0000
      3 C         -39.5722  -62.0670    4.4269 C.3       1 UNL1        0.0000
      4 C         -41.5398  -62.2029    2.9480 C.3       1 UNL1        0.0000
      5 C         -42.2637  -63.0351    1.9563 C.ar      1 UNL1        0.0000
      6 C         -43.2443  -62.4449    1.1932 C.ar      1 UNL1        0.0000
      7 C         -43.9370  -63.1723    0.2680 C.ar      1 UNL1        0.0000
      8 C         -43.6664  -64.5061    0.0831 C.ar      1 UNL1        0.0000
      9 C         -42.6895  -65.1057    0.8385 C.ar      1 UNL1        0.0000
     10 C         -41.9920  -64.3693    1.7721 C.ar      1 UNL1        0.0000
     11 C         -44.3981  -65.3135   -0.9076 C.3       1 UNL1        0.0000
     12 C         -45.0412  -64.3821   -1.9347 C.3       1 UNL1        0.0000
     13 C         -43.4025  -66.2039   -1.5735 C.2       1 UNL1        0.0000
     14 O         -42.7005  -65.7875   -2.5064 O.co2     1 UNL1       -0.5000
     15 O         -43.2780  -67.4913   -1.1352 O.co2     1 UNL1       -0.5000
     16 H         -38.3680  -63.1803    2.3082 H         1 UNL1        0.0000
     17 H         -39.1937  -61.7403    1.7611 H         1 UNL1        0.0000
     18 H         -39.7764  -63.3166    1.2823 H         1 UNL1        0.0000
     19 H         -40.3341  -63.8176    3.5876 H         1 UNL1        0.0000
     20 H         -39.4270  -61.0421    4.1551 H         1 UNL1        0.0000
     21 H         -38.6268  -62.5115    4.6576 H         1 UNL1        0.0000
     22 H         -40.2110  -62.1215    5.2834 H         1 UNL1        0.0000
     23 H         -41.3928  -61.2243    2.5418 H         1 UNL1        0.0000
     24 H         -42.1252  -62.1558    3.8424 H         1 UNL1        0.0000
     25 H         -43.4591  -61.4436    1.3215 H         1 UNL1        0.0000
     26 H         -44.6703  -62.7152   -0.2970 H         1 UNL1        0.0000
     27 H         -42.4768  -66.1073    0.7077 H         1 UNL1        0.0000
     28 H         -41.2586  -64.8237    2.3385 H         1 UNL1        0.0000
     29 H         -45.1681  -65.8959   -0.4458 H         1 UNL1        0.0000
     30 H         -44.2824  -63.7922   -2.4053 H         1 UNL1        0.0000
     31 H         -45.7396  -63.7376   -1.4423 H         1 UNL1        0.0000
     32 H         -45.5516  -64.9638   -2.6731 H         1 UNL1        0.0000
@<TRIPOS>BOND
     1    1   17 1
     2    1    2 1
     3    1   16 1
     4    1   18 1
     5    2   19 1
     6    2    3 1
     7    2    4 1
     8    3   21 1
     9    3   22 1
    10    3   20 1
    11    4    5 1
    12    4   24 1
    13    4   23 1
    14    5    6 ar
    15    5   10 ar
    16    6    7 ar
    17    6   25 1
    18    7   26 1
    19    7    8 ar
    20    8    9 ar
    21    8   11 1
    22    9   10 ar
    23    9   27 1
    24   10   28 1
    25   11   29 1
    26   11   12 1
    27   11   13 1
    28   12   30 1
    29   12   31 1
    30   12   32 1
    31   13   15 ar
    32   13   14 ar
@<TRIPOS>SUBSTRUCTURE
1 UNL1 1
@<TRIPOS>COMMENT
ibuprofen
PLANTSproteinTorsions
102
4661 263.1273
5386 190.8727
6210 299.5625
5890 83.5073
4461 71.9320
1390 5.7771
2824 269.6961
4339 202.1179
2732 69.5712
4792 49.2747
3407 357.8557
5134 141.9100
6916 285.9713
7370 268.4054
6038 212.6060
7225 162.5316
3592 267.2713
2064 122.6874
2488 32.0843
1253 81.2350
2069 28.5854
2569 341.6760
3058 154.5128
1748 67.7108
1162 204.6893
1509 202.8496
560 152.9201
1627 95.0678
1941 129.3245
3631 66.9043
2381 48.7737
4221 305.6691
4687 24.1585
6983 299.2759
6668 45.9356
7305 18.1180
8693 283.2108
8404 259.2570
9055 170.3042
7052 66.5163
4708 179.3657
2652 187.2324
4332 247.4525
3011 180.7834
2257 301.1194
2778 23.3167
2057 120.1245
192 180.0088
315 270.9404
1085 280.2042
1007 38.9440
1407 88.1623
4816 297.9441
3131 132.3254
4654 108.3949
5144 158.3949
117 187.4273
6 292.0461
259 238.4843
1979 105.2744
2609 128.8860
2623 44.1348
5910 151.1104
5937 263.2524
2062 237.2556
890 175.0130
5008 31.8623
8602 150.6789
8478 183.8139
8300 21.6048
7721 349.9821
8466 57.8613
7852 339.4082
5849 4.5686
6302 323.4935
7439 291.4382
6284 260.7648
6003 4.5919
7165 140.6458
7623 130.6808
8158 53.7495
8667 347.1258
9078 32.9080
8684 87.0741
7666 189.8676
4231 171.4259
1659 312.1646
489 316.7347
238 222.1630
46 157.3015
83 11.0854
254 280.3790
1066 126.3209
2112 326.6316
4047 122.4280
5402 126.3048
2544 100.4356
4670 43.6248
4426 192.8495
5656 231.7122
7040 37.2771
6282 354.4933
PLANTSmolcadARTstart hb
PLANTSmolcadARTstart HB
LINES
PLANTSmolcadARTstart HBCH
LINES
PLANTSmolcadARTstart HB-CHO
LINES
PLANTSmolcadARTend
PLANTSmolcadARTstart HB_WATER
LINES
PLANTSmolcadARTend

PLANTSmolcadARTend

