@<TRIPOS>MOLECULE
ibuprofen_entry_00001_conf_41
32 32 1
SMALL
NO_CHARGES


@<TRIPOS>ATOM
      1 C         -12.9949  -65.5160   -6.5726 C.3       1 UNL1        0.0000
      2 C         -11.6414  -65.4818   -7.2183 C.3       1 UNL1        0.0000
      3 C         -10.8534  -66.7034   -6.8673 C.3       1 UNL1        0.0000
      4 C         -11.8078  -65.3700   -8.7081 C.3       1 UNL1        0.0000
      5 C         -12.5189  -64.1214   -9.0762 C.ar      1 UNL1        0.0000
      6 C         -12.4480  -63.0473   -8.2197 C.ar      1 UNL1        0.0000
      7 C         -13.0870  -61.8777   -8.5174 C.ar      1 UNL1        0.0000
      8 C         -13.8117  -61.7534   -9.6775 C.ar      1 UNL1        0.0000
      9 C         -13.8891  -62.8185  -10.5402 C.ar      1 UNL1        0.0000
     10 C         -13.2434  -63.9982  -10.2371 C.ar      1 UNL1        0.0000
     11 C         -14.5102  -60.5038  -10.0229 C.3       1 UNL1        0.0000
     12 C         -15.1014  -59.8940   -8.7521 C.3       1 UNL1        0.0000
     13 C         -13.4971  -59.5802  -10.6129 C.2       1 UNL1        0.0000
     14 O         -13.8395  -58.6605  -11.3702 O.co2     1 UNL1       -0.5000
     15 O         -12.1805  -59.7669  -10.3026 O.co2     1 UNL1       -0.5000
     16 H         -12.8811  -65.5958   -5.5109 H         1 UNL1        0.0000
     17 H         -13.5429  -66.3597   -6.9369 H         1 UNL1        0.0000
     18 H         -13.5246  -64.6171   -6.8081 H         1 UNL1        0.0000
     19 H         -11.1010  -64.6326   -6.8569 H         1 UNL1        0.0000
     20 H         -11.3698  -67.5731   -7.2170 H         1 UNL1        0.0000
     21 H         -10.7385  -66.7605   -5.8052 H         1 UNL1        0.0000
     22 H          -9.8894  -66.6517   -7.3285 H         1 UNL1        0.0000
     23 H         -12.3701  -66.2090   -9.0606 H         1 UNL1        0.0000
     24 H         -10.8367  -65.3517   -9.1567 H         1 UNL1        0.0000
     25 H         -11.9077  -63.1262   -7.3439 H         1 UNL1        0.0000
     26 H         -13.0247  -61.0804   -7.8645 H         1 UNL1        0.0000
     27 H         -14.4300  -62.7365  -11.4155 H         1 UNL1        0.0000
     28 H         -13.3043  -64.7969  -10.8878 H         1 UNL1        0.0000
     29 H         -15.3042  -60.6789  -10.7187 H         1 UNL1        0.0000
     30 H         -14.3181  -59.7134   -8.0456 H         1 UNL1        0.0000
     31 H         -15.8129  -60.5728   -8.3296 H         1 UNL1        0.0000
     32 H         -15.5869  -58.9716   -8.9919 H         1 UNL1        0.0000
@<TRIPOS>BOND
     1    1   17 1
     2    1    2 1
     3    1   16 1
     4    1   18 1
     5    2   19 1
     6    2    3 1
     7    2    4 1
     8    3   21 1
     9    3   22 1
    10    3   20 1
    11    4    5 1
    12    4   24 1
    13    4   23 1
    14    5    6 ar
    15    5   10 ar
    16    6    7 ar
    17    6   25 1
    18    7   26 1
    19    7    8 ar
    20    8    9 ar
    21    8   11 1
    22    9   10 ar
    23    9   27 1
    24   10   28 1
    25   11   29 1
    26   11   12 1
    27   11   13 1
    28   12   30 1
    29   12   31 1
    30   12   32 1
    31   13   15 ar
    32   13   14 ar
@<TRIPOS>SUBSTRUCTURE
1 UNL1 1
@<TRIPOS>COMMENT
ibuprofen
PLANTSproteinTorsions
102
4661 55.3504
5386 238.8346
6210 253.1918
5890 184.8860
4461 6.3889
1390 12.1063
2824 108.7496
4339 154.2743
2732 109.7250
4792 354.0604
3407 218.2966
5134 55.6317
6916 149.7851
7370 27.5748
6038 223.8936
7225 123.1038
3592 66.6053
2064 40.9476
2488 127.7380
1253 188.0056
2069 224.7645
2569 286.4266
3058 54.6392
1748 200.3323
1162 146.2713
1509 45.7322
560 50.0091
1627 184.0992
1941 117.9019
3631 268.8705
2381 159.5593
4221 327.6731
4687 28.1966
6983 14.8630
6668 90.3975
7305 206.9987
8693 260.2219
8404 10.7560
9055 107.2515
7052 298.2722
4708 117.9930
2652 219.7964
4332 241.1444
3011 177.9479
2257 128.9313
2778 226.0473
2057 125.2395
192 85.0446
315 0.9318
1085 188.7422
1007 118.6621
1407 47.7283
4816 288.3968
3131 69.0115
4654 140.1314
5144 35.0817
117 249.7303
6 133.2981
259 233.0826
1979 231.6165
2609 236.9168
2623 38.5864
5910 33.8162
5937 110.6585
2062 223.0696
890 121.9477
5008 52.4915
8602 45.5130
8478 219.8264
8300 86.1260
7721 75.9477
8466 112.5250
7852 172.5628
5849 72.3790
6302 167.2325
7439 203.3607
6284 145.3620
6003 281.5646
7165 233.0088
7623 266.1461
8158 145.7287
8667 144.5332
9078 288.2034
8684 107.7153
7666 211.5013
4231 63.0954
1659 203.1945
489 21.0269
238 84.7809
46 255.3399
83 143.2333
254 78.5541
1066 208.9021
2112 122.4565
4047 188.1079
5402 16.3673
2544 112.9262
4670 229.2712
4426 214.8426
5656 80.5619
7040 8.9539
6282 169.0979
PLANTSmolcadARTstart hb
PLANTSmolcadARTstart HB
LINES
PLANTSmolcadARTstart HBCH
LINES
PLANTSmolcadARTstart HB-CHO
LINES
PLANTSmolcadARTend
PLANTSmolcadARTstart HB_WATER
LINES
PLANTSmolcadARTend

PLANTSmolcadARTend

