@<TRIPOS>MOLECULE
ibuprofen_entry_00001_conf_55
32 32 1
SMALL
NO_CHARGES


@<TRIPOS>ATOM
      1 C         -15.1675  -56.3705   -1.5564 C.3       1 UNL1        0.0000
      2 C         -14.8920  -57.8381   -1.4139 C.3       1 UNL1        0.0000
      3 C         -14.4775  -58.4311   -2.7228 C.3       1 UNL1        0.0000
      4 C         -13.8211  -58.0412   -0.3788 C.3       1 UNL1        0.0000
      5 C         -13.6457  -59.4800   -0.0637 C.ar      1 UNL1        0.0000
      6 C         -14.6460  -60.3567   -0.4144 C.ar      1 UNL1        0.0000
      7 C         -14.5279  -61.6900   -0.1439 C.ar      1 UNL1        0.0000
      8 C         -13.4080  -62.1790    0.4832 C.ar      1 UNL1        0.0000
      9 C         -12.4030  -61.3135    0.8374 C.ar      1 UNL1        0.0000
     10 C         -12.5248  -59.9680    0.5635 C.ar      1 UNL1        0.0000
     11 C         -13.2551  -63.6119    0.7866 C.3       1 UNL1        0.0000
     12 C         -14.1817  -63.9791    1.9453 C.3       1 UNL1        0.0000
     13 C         -13.6430  -64.3671   -0.4409 C.2       1 UNL1        0.0000
     14 O         -12.8195  -64.5827   -1.3419 O.co2     1 UNL1       -0.5000
     15 O         -14.9269  -64.8183   -0.5546 O.co2     1 UNL1       -0.5000
     16 H         -15.9298  -56.2210   -2.2932 H         1 UNL1        0.0000
     17 H         -14.2736  -55.8674   -1.8610 H         1 UNL1        0.0000
     18 H         -15.4965  -55.9772   -0.6177 H         1 UNL1        0.0000
     19 H         -15.7861  -58.3347   -1.1017 H         1 UNL1        0.0000
     20 H         -13.5822  -57.9533   -3.0627 H         1 UNL1        0.0000
     21 H         -15.2550  -58.2842   -3.4428 H         1 UNL1        0.0000
     22 H         -14.2979  -59.4785   -2.5998 H         1 UNL1        0.0000
     23 H         -14.0946  -57.5190    0.5138 H         1 UNL1        0.0000
     24 H         -12.8983  -57.6647   -0.7681 H         1 UNL1        0.0000
     25 H         -15.4937  -60.0037   -0.8856 H         1 UNL1        0.0000
     26 H         -15.2872  -62.3356   -0.4131 H         1 UNL1        0.0000
     27 H         -11.5563  -61.6696    1.3083 H         1 UNL1        0.0000
     28 H         -11.7674  -59.3203    0.8318 H         1 UNL1        0.0000
     29 H         -12.2493  -63.8474    1.0662 H         1 UNL1        0.0000
     30 H         -15.1926  -63.7486    1.6802 H         1 UNL1        0.0000
     31 H         -13.9044  -63.4186    2.8139 H         1 UNL1        0.0000
     32 H         -14.0957  -65.0249    2.1529 H         1 UNL1        0.0000
@<TRIPOS>BOND
     1    1   17 1
     2    1    2 1
     3    1   16 1
     4    1   18 1
     5    2   19 1
     6    2    3 1
     7    2    4 1
     8    3   21 1
     9    3   22 1
    10    3   20 1
    11    4    5 1
    12    4   24 1
    13    4   23 1
    14    5    6 ar
    15    5   10 ar
    16    6    7 ar
    17    6   25 1
    18    7   26 1
    19    7    8 ar
    20    8    9 ar
    21    8   11 1
    22    9   10 ar
    23    9   27 1
    24   10   28 1
    25   11   29 1
    26   11   12 1
    27   11   13 1
    28   12   30 1
    29   12   31 1
    30   12   32 1
    31   13   15 ar
    32   13   14 ar
@<TRIPOS>SUBSTRUCTURE
1 UNL1 1
@<TRIPOS>COMMENT
ibuprofen
PLANTSproteinTorsions
102
4661 9.9514
5386 183.6974
6210 127.1898
5890 14.9686
4461 126.5381
1390 201.6994
2824 160.7006
4339 328.0528
2732 146.0589
4792 104.7473
3407 335.8467
5134 358.6164
6916 27.3056
7370 125.0127
6038 229.1338
7225 193.5518
3592 153.3156
2064 69.2470
2488 19.5047
1253 0.5760
2069 172.4978
2569 25.6687
3058 139.1388
1748 79.9730
1162 117.9510
1509 105.0063
560 243.3980
1627 294.8077
1941 211.8299
3631 193.6843
2381 9.6794
4221 173.4197
4687 204.2831
6983 159.2462
6668 100.4977
7305 255.7380
8693 123.5266
8404 111.6538
9055 315.4362
7052 248.4658
4708 295.0177
2652 117.9091
4332 250.9332
3011 216.4477
2257 271.0772
2778 316.7585
2057 179.3172
192 69.0362
315 260.6419
1085 128.8080
1007 168.5902
1407 143.8963
4816 166.4502
3131 194.6229
4654 245.7151
5144 208.9968
117 199.5148
6 239.7821
259 212.1415
1979 314.8512
2609 142.5125
2623 138.3188
5910 254.2253
5937 46.7506
2062 230.3922
890 32.8066
5008 308.5048
8602 164.3373
8478 206.6541
8300 170.0144
7721 267.7813
8466 51.6817
7852 98.3080
5849 62.0448
6302 206.4461
7439 147.4865
6284 137.7280
6003 260.2477
7165 276.1950
7623 268.1746
8158 251.4650
8667 266.0470
9078 257.2706
8684 313.7029
7666 214.9654
4231 24.4062
1659 197.9286
489 123.3518
238 141.9276
46 206.9967
83 254.2464
254 278.2997
1066 104.6342
2112 172.8416
4047 215.4655
5402 171.4114
2544 9.3308
4670 66.2158
4426 179.9470
5656 222.1477
7040 43.4380
6282 234.7022
PLANTSmolcadARTstart hb
PLANTSmolcadARTstart HB
LINES
PLANTSmolcadARTstart HBCH
LINES
PLANTSmolcadARTstart HB-CHO
LINES
PLANTSmolcadARTend
PLANTSmolcadARTstart HB_WATER
LINES
PLANTSmolcadARTend

PLANTSmolcadARTend

