@<TRIPOS>MOLECULE
ibuprofen_entry_00001_conf_20
32 32 1
SMALL
NO_CHARGES


@<TRIPOS>ATOM
      1 C         -14.5074  -62.1528  -10.8062 C.3       1 UNL1        0.0000
      2 C         -13.9274  -60.8961  -10.2278 C.3       1 UNL1        0.0000
      3 C         -14.8261  -60.3311   -9.1745 C.3       1 UNL1        0.0000
      4 C         -12.5689  -61.1959   -9.6584 C.3       1 UNL1        0.0000
      5 C         -12.6026  -62.4037   -8.7980 C.ar      1 UNL1        0.0000
      6 C         -13.2496  -62.3302   -7.5863 C.ar      1 UNL1        0.0000
      7 C         -13.3056  -63.4170   -6.7614 C.ar      1 UNL1        0.0000
      8 C         -12.7169  -64.6028   -7.1272 C.ar      1 UNL1        0.0000
      9 C         -12.0689  -64.6881   -8.3345 C.ar      1 UNL1        0.0000
     10 C         -12.0134  -63.5895   -9.1652 C.ar      1 UNL1        0.0000
     11 C         -12.7624  -65.7898   -6.2568 C.3       1 UNL1        0.0000
     12 C         -13.6036  -66.8727   -6.9321 C.3       1 UNL1        0.0000
     13 C         -11.3580  -66.2639   -6.0828 C.2       1 UNL1        0.0000
     14 O         -10.7161  -65.9889   -5.0586 O.co2     1 UNL1       -0.5000
     15 O         -10.7899  -67.0093   -7.0760 O.co2     1 UNL1       -0.5000
     16 H         -15.4755  -61.9440  -11.2130 H         1 UNL1        0.0000
     17 H         -14.5954  -62.8920  -10.0377 H         1 UNL1        0.0000
     18 H         -13.8660  -62.5173  -11.5808 H         1 UNL1        0.0000
     19 H         -13.8342  -60.1637  -11.0014 H         1 UNL1        0.0000
     20 H         -14.9396  -61.0430   -8.3836 H         1 UNL1        0.0000
     21 H         -15.7837  -60.1167   -9.6006 H         1 UNL1        0.0000
     22 H         -14.3988  -59.4309   -8.7852 H         1 UNL1        0.0000
     23 H         -12.2426  -60.3607   -9.0751 H         1 UNL1        0.0000
     24 H         -11.8943  -61.3762  -10.4691 H         1 UNL1        0.0000
     25 H         -13.6960  -61.4456   -7.2976 H         1 UNL1        0.0000
     26 H         -13.7946  -63.3462   -5.8549 H         1 UNL1        0.0000
     27 H         -11.6235  -65.5743   -8.6206 H         1 UNL1        0.0000
     28 H         -11.5249  -63.6573  -10.0718 H         1 UNL1        0.0000
     29 H         -13.1988  -65.5617   -5.3067 H         1 UNL1        0.0000
     30 H         -13.1790  -67.1114   -7.8850 H         1 UNL1        0.0000
     31 H         -14.6031  -66.5143   -7.0669 H         1 UNL1        0.0000
     32 H         -13.6182  -67.7479   -6.3173 H         1 UNL1        0.0000
@<TRIPOS>BOND
     1    1   17 1
     2    1    2 1
     3    1   16 1
     4    1   18 1
     5    2   19 1
     6    2    3 1
     7    2    4 1
     8    3   21 1
     9    3   22 1
    10    3   20 1
    11    4    5 1
    12    4   24 1
    13    4   23 1
    14    5    6 ar
    15    5   10 ar
    16    6    7 ar
    17    6   25 1
    18    7   26 1
    19    7    8 ar
    20    8    9 ar
    21    8   11 1
    22    9   10 ar
    23    9   27 1
    24   10   28 1
    25   11   29 1
    26   11   12 1
    27   11   13 1
    28   12   30 1
    29   12   31 1
    30   12   32 1
    31   13   15 ar
    32   13   14 ar
@<TRIPOS>SUBSTRUCTURE
1 UNL1 1
@<TRIPOS>COMMENT
ibuprofen
PLANTSproteinTorsions
102
4661 95.9528
5386 329.1426
6210 71.8214
5890 4.8249
4461 131.9451
1390 357.7812
2824 233.3992
4339 171.0461
2732 233.0386
4792 318.1935
3407 22.2397
5134 345.1299
6916 24.4061
7370 26.0165
6038 55.5418
7225 290.5752
3592 165.9323
2064 48.7840
2488 172.6857
1253 357.9855
2069 168.9761
2569 206.3434
3058 284.3169
1748 174.9537
1162 11.7893
1509 10.2579
560 108.8519
1627 220.2494
1941 272.9875
3631 264.4435
2381 187.3377
4221 274.0953
4687 323.3715
6983 94.9413
6668 247.7314
7305 122.6736
8693 298.7538
8404 21.3289
9055 35.7691
7052 85.8771
4708 256.7545
2652 79.1518
4332 243.9979
3011 70.9896
2257 284.9207
2778 198.3253
2057 34.3092
192 164.6950
315 175.8097
1085 92.6549
1007 91.8896
1407 155.5645
4816 224.6139
3131 337.5801
4654 158.8471
5144 132.4837
117 187.3930
6 24.9157
259 223.3030
1979 265.9958
2609 319.7571
2623 85.2360
5910 123.1440
5937 279.8356
2062 237.1567
890 41.4199
5008 296.9797
8602 108.9029
8478 337.5457
8300 325.1909
7721 334.5425
8466 246.5144
7852 267.5238
5849 268.3289
6302 204.1767
7439 75.7509
6284 133.6673
6003 237.5443
7165 279.3090
7623 288.5381
8158 17.2413
8667 143.9588
9078 202.5453
8684 312.9016
7666 106.9682
4231 320.8919
1659 229.3099
489 287.4503
238 34.1004
46 154.4636
83 166.7361
254 294.7955
1066 152.7205
2112 202.6487
4047 320.7152
5402 189.1964
2544 12.0115
4670 174.2151
4426 46.3001
5656 105.9251
7040 122.2631
6282 73.1702
PLANTSmolcadARTstart hb
PLANTSmolcadARTstart HB
LINES
-10.7161 -65.9889 -5.05863 -8.818 -65.623 -5.671 0 255 0 5
PLANTSmolcadARTstart HBCH
LINES
PLANTSmolcadARTstart HB-CHO
LINES
PLANTSmolcadARTend
PLANTSmolcadARTstart HB_WATER
LINES
PLANTSmolcadARTend

PLANTSmolcadARTend

