@<TRIPOS>MOLECULE
ibuprofen_entry_00001_conf_100
32 32 1
SMALL
NO_CHARGES


@<TRIPOS>ATOM
      1 C          -0.1040  -63.4819   -0.6352 C.3       1 UNL1        0.0000
      2 C           1.0110  -62.5989   -0.1586 C.3       1 UNL1        0.0000
      3 C           0.5191  -61.2090    0.0917 C.3       1 UNL1        0.0000
      4 C           1.6031  -63.1836    1.0932 C.3       1 UNL1        0.0000
      5 C           0.5556  -63.4468    2.1098 C.ar      1 UNL1        0.0000
      6 C           0.1805  -62.4226    2.9481 C.ar      1 UNL1        0.0000
      7 C          -0.7795  -62.6192    3.8991 C.ar      1 UNL1        0.0000
      8 C          -1.3876  -63.8432    4.0353 C.ar      1 UNL1        0.0000
      9 C          -1.0219  -64.8726    3.2040 C.ar      1 UNL1        0.0000
     10 C          -0.0521  -64.6717    2.2450 C.ar      1 UNL1        0.0000
     11 C          -2.4256  -64.0822    5.0522 C.3       1 UNL1        0.0000
     12 C          -3.4106  -65.1255    4.5253 C.3       1 UNL1        0.0000
     13 C          -1.7377  -64.5954    6.2732 C.2       1 UNL1        0.0000
     14 O          -1.0228  -65.6068    6.2230 O.co2     1 UNL1       -0.5000
     15 O          -1.9104  -63.9282    7.4522 O.co2     1 UNL1       -0.5000
     16 H          -0.5291  -63.0690   -1.5269 H         1 UNL1        0.0000
     17 H          -0.8571  -63.5460    0.1222 H         1 UNL1        0.0000
     18 H           0.2790  -64.4590   -0.8418 H         1 UNL1        0.0000
     19 H           1.7643  -62.5447   -0.9157 H         1 UNL1        0.0000
     20 H          -0.2384  -61.2299    0.8474 H         1 UNL1        0.0000
     21 H           0.1099  -60.8077   -0.8116 H         1 UNL1        0.0000
     22 H           1.3322  -60.5955    0.4189 H         1 UNL1        0.0000
     23 H           2.3162  -62.4958    1.4966 H         1 UNL1        0.0000
     24 H           2.0737  -64.1115    0.8437 H         1 UNL1        0.0000
     25 H           0.6292  -61.4975    2.8580 H         1 UNL1        0.0000
     26 H          -1.0502  -61.8408    4.5210 H         1 UNL1        0.0000
     27 H          -1.4725  -65.7966    3.2963 H         1 UNL1        0.0000
     28 H           0.2206  -65.4481    1.6221 H         1 UNL1        0.0000
     29 H          -2.9657  -63.1864    5.2780 H         1 UNL1        0.0000
     30 H          -2.8841  -66.0282    4.2945 H         1 UNL1        0.0000
     31 H          -3.8840  -64.7529    3.6407 H         1 UNL1        0.0000
     32 H          -4.1520  -65.3240    5.2703 H         1 UNL1        0.0000
@<TRIPOS>BOND
     1    1   17 1
     2    1    2 1
     3    1   16 1
     4    1   18 1
     5    2   19 1
     6    2    3 1
     7    2    4 1
     8    3   21 1
     9    3   22 1
    10    3   20 1
    11    4    5 1
    12    4   24 1
    13    4   23 1
    14    5    6 ar
    15    5   10 ar
    16    6    7 ar
    17    6   25 1
    18    7   26 1
    19    7    8 ar
    20    8    9 ar
    21    8   11 1
    22    9   10 ar
    23    9   27 1
    24   10   28 1
    25   11   29 1
    26   11   12 1
    27   11   13 1
    28   12   30 1
    29   12   31 1
    30   12   32 1
    31   13   15 ar
    32   13   14 ar
@<TRIPOS>SUBSTRUCTURE
1 UNL1 1
@<TRIPOS>COMMENT
ibuprofen
PLANTSproteinTorsions
102
4661 357.0093
5386 104.7105
6210 10.7235
5890 25.5420
4461 358.7801
1390 179.5932
2824 358.9743
4339 93.5381
2732 27.7255
4792 6.5938
3407 239.0111
5134 141.7620
6916 148.7229
7370 30.8187
6038 218.6970
7225 350.8146
3592 159.0408
2064 3.3388
2488 211.4481
1253 177.5501
2069 211.1973
2569 2.9280
3058 229.7374
1748 109.3308
1162 17.2704
1509 125.5438
560 175.6397
1627 120.7247
1941 313.9383
3631 34.4553
2381 76.0354
4221 69.3615
4687 62.2539
6983 144.0952
6668 66.8759
7305 221.5991
8693 120.2858
8404 306.1404
9055 31.6435
7052 222.7601
4708 59.1317
2652 17.1372
4332 63.4862
3011 252.3818
2257 17.4500
2778 257.9935
2057 139.5982
192 311.6955
315 77.3601
1085 59.0592
1007 119.9688
1407 231.9222
4816 288.1222
3131 72.3689
4654 127.0558
5144 341.5691
117 242.7337
6 22.4189
259 7.7660
1979 264.1460
2609 149.7254
2623 60.7617
5910 75.5846
5937 137.6606
2062 61.5391
890 94.2859
5008 115.0898
8602 314.4186
8478 213.2271
8300 113.6765
7721 42.0951
8466 57.6216
7852 226.4431
5849 196.1170
6302 108.6700
7439 232.9964
6284 261.9382
6003 46.7286
7165 295.0272
7623 218.6742
8158 339.9877
8667 147.0336
9078 125.7535
8684 260.5692
7666 153.2187
4231 262.6707
1659 129.2158
489 114.4534
238 283.1181
46 89.0179
83 273.7525
254 275.7515
1066 122.4376
2112 281.5794
4047 196.3069
5402 187.5394
2544 282.6465
4670 96.7252
4426 110.0037
5656 278.2877
7040 259.2947
6282 243.1069
PLANTSmolcadARTstart hb
PLANTSmolcadARTstart HB
LINES
PLANTSmolcadARTstart HBCH
LINES
PLANTSmolcadARTstart HB-CHO
LINES
PLANTSmolcadARTend
PLANTSmolcadARTstart HB_WATER
LINES
PLANTSmolcadARTend

PLANTSmolcadARTend

