@<TRIPOS>MOLECULE
ibuprofen_entry_00001_conf_54
32 32 1
SMALL
NO_CHARGES


@<TRIPOS>ATOM
      1 C         -15.6634  -29.5552    5.0978 C.3       1 UNL1        0.0000
      2 C         -15.9683  -30.5027    6.2200 C.3       1 UNL1        0.0000
      3 C         -16.8231  -31.6337    5.7440 C.3       1 UNL1        0.0000
      4 C         -14.6787  -31.0199    6.7936 C.3       1 UNL1        0.0000
      5 C         -14.9250  -31.8845    7.9734 C.ar      1 UNL1        0.0000
      6 C         -14.2464  -33.0774    8.0677 C.ar      1 UNL1        0.0000
      7 C         -14.4417  -33.9054    9.1359 C.ar      1 UNL1        0.0000
      8 C         -15.3193  -33.5616   10.1350 C.ar      1 UNL1        0.0000
      9 C         -16.0017  -32.3734   10.0519 C.ar      1 UNL1        0.0000
     10 C         -15.8031  -31.5394    8.9723 C.ar      1 UNL1        0.0000
     11 C         -15.5486  -34.4359   11.2976 C.3       1 UNL1        0.0000
     12 C         -14.4922  -35.5405   11.3084 C.3       1 UNL1        0.0000
     13 C         -15.4189  -33.5887   12.5195 C.2       1 UNL1        0.0000
     14 O         -16.3629  -32.8867   12.9100 O.co2     1 UNL1       -0.5000
     15 O         -14.2366  -33.6005   13.2029 O.co2     1 UNL1       -0.5000
     16 H         -16.5795  -29.1844    4.6859 H         1 UNL1        0.0000
     17 H         -15.1124  -30.0680    4.3374 H         1 UNL1        0.0000
     18 H         -15.0828  -28.7376    5.4699 H         1 UNL1        0.0000
     19 H         -16.5119  -29.9834    6.9805 H         1 UNL1        0.0000
     20 H         -16.3049  -32.1748    4.9798 H         1 UNL1        0.0000
     21 H         -17.7384  -31.2465    5.3479 H         1 UNL1        0.0000
     22 H         -17.0370  -32.2891    6.5621 H         1 UNL1        0.0000
     23 H         -14.0706  -30.1909    7.0891 H         1 UNL1        0.0000
     24 H         -14.1843  -31.6020    6.0443 H         1 UNL1        0.0000
     25 H         -13.5843  -33.3494    7.3242 H         1 UNL1        0.0000
     26 H         -13.9252  -34.7975    9.1924 H         1 UNL1        0.0000
     27 H         -16.6631  -32.1039   10.7971 H         1 UNL1        0.0000
     28 H         -16.3183  -30.6471    8.9131 H         1 UNL1        0.0000
     29 H         -16.5169  -34.8901   11.2607 H         1 UNL1        0.0000
     30 H         -13.5172  -35.1009   11.3450 H         1 UNL1        0.0000
     31 H         -14.5845  -36.1296   10.4196 H         1 UNL1        0.0000
     32 H         -14.6365  -36.1633   12.1660 H         1 UNL1        0.0000
@<TRIPOS>BOND
     1    1   17 1
     2    1    2 1
     3    1   16 1
     4    1   18 1
     5    2   19 1
     6    2    3 1
     7    2    4 1
     8    3   21 1
     9    3   22 1
    10    3   20 1
    11    4    5 1
    12    4   24 1
    13    4   23 1
    14    5    6 ar
    15    5   10 ar
    16    6    7 ar
    17    6   25 1
    18    7   26 1
    19    7    8 ar
    20    8    9 ar
    21    8   11 1
    22    9   10 ar
    23    9   27 1
    24   10   28 1
    25   11   29 1
    26   11   12 1
    27   11   13 1
    28   12   30 1
    29   12   31 1
    30   12   32 1
    31   13   15 ar
    32   13   14 ar
@<TRIPOS>SUBSTRUCTURE
1 UNL1 1
@<TRIPOS>COMMENT
ibuprofen
PLANTSproteinTorsions
102
4661 10.5940
5386 165.0330
6210 191.8177
5890 8.5371
4461 57.7981
1390 128.4178
2824 52.0974
4339 15.3849
2732 182.5562
4792 85.8802
3407 336.9454
5134 251.4109
6916 250.2364
7370 242.7924
6038 18.1626
7225 156.0041
3592 18.0467
2064 266.0598
2488 170.2831
1253 200.9614
2069 296.5331
2569 70.3286
3058 182.8284
1748 169.2298
1162 84.6317
1509 309.1077
560 249.5093
1627 347.6931
1941 98.4146
3631 168.2525
2381 21.0784
4221 136.9178
4687 203.3254
6983 254.2139
6668 344.9120
7305 193.1852
8693 62.5431
8404 162.0033
9055 105.9131
7052 188.3535
4708 72.3229
2652 82.7782
4332 86.9808
3011 283.8942
2257 9.5472
2778 236.2350
2057 47.9355
192 263.7194
315 212.3851
1085 212.3668
1007 318.9752
1407 116.9857
4816 54.9247
3131 251.3796
4654 197.1790
5144 148.0945
117 71.8815
6 190.6565
259 217.3506
1979 215.9153
2609 153.6724
2623 228.5364
5910 251.4048
5937 202.3986
2062 61.1952
890 20.7149
5008 258.6393
8602 280.1325
8478 244.4871
8300 170.7145
7721 260.6503
8466 24.1744
7852 90.7411
5849 335.8813
6302 69.6641
7439 132.6502
6284 287.8867
6003 91.9532
7165 249.5574
7623 201.7527
8158 103.8232
8667 219.0499
9078 301.8297
8684 260.7629
7666 203.8245
4231 8.2597
1659 232.2801
489 167.6496
238 148.1208
46 115.2507
83 235.7285
254 105.2007
1066 73.4653
2112 212.9957
4047 163.2050
5402 165.7204
2544 266.0629
4670 267.4719
4426 273.2761
5656 269.7373
7040 265.3033
6282 117.5697
PLANTSmolcadARTstart hb
PLANTSmolcadARTstart HB
LINES
PLANTSmolcadARTstart HBCH
LINES
PLANTSmolcadARTstart HB-CHO
LINES
PLANTSmolcadARTend
PLANTSmolcadARTstart HB_WATER
LINES
PLANTSmolcadARTend

PLANTSmolcadARTend

