@<TRIPOS>MOLECULE
ibuprofen_entry_00001_conf_85
32 32 1
SMALL
NO_CHARGES


@<TRIPOS>ATOM
      1 C          -1.2100  -36.8097   -1.8319 C.3       1 UNL1        0.0000
      2 C          -0.4013  -37.8414   -1.1028 C.3       1 UNL1        0.0000
      3 C          -0.4191  -37.5874    0.3709 C.3       1 UNL1        0.0000
      4 C          -0.9498  -39.2066   -1.4106 C.3       1 UNL1        0.0000
      5 C          -0.3743  -40.2322   -0.5066 C.ar      1 UNL1        0.0000
      6 C           0.7907  -40.8601   -0.8816 C.ar      1 UNL1        0.0000
      7 C           1.3565  -41.8109   -0.0811 C.ar      1 UNL1        0.0000
      8 C           0.7721  -42.1567    1.1128 C.ar      1 UNL1        0.0000
      9 C          -0.3905  -41.5363    1.4978 C.ar      1 UNL1        0.0000
     10 C          -0.9598  -40.5772    0.6876 C.ar      1 UNL1        0.0000
     11 C           1.3610  -43.1783    1.9950 C.3       1 UNL1        0.0000
     12 C           1.4660  -44.4979    1.2309 C.3       1 UNL1        0.0000
     13 C           2.7205  -42.6981    2.3806 C.2       1 UNL1        0.0000
     14 O           3.7073  -42.9459    1.6725 O.co2     1 UNL1       -0.5000
     15 O           2.8589  -41.9777    3.5324 O.co2     1 UNL1       -0.5000
     16 H          -0.8229  -35.8352   -1.6153 H         1 UNL1        0.0000
     17 H          -2.2304  -36.8665   -1.5149 H         1 UNL1        0.0000
     18 H          -1.1523  -36.9906   -2.8846 H         1 UNL1        0.0000
     19 H           0.6156  -37.7856   -1.4290 H         1 UNL1        0.0000
     20 H          -1.4265  -37.6367    0.7287 H         1 UNL1        0.0000
     21 H          -0.0176  -36.6160    0.5700 H         1 UNL1        0.0000
     22 H           0.1724  -38.3272    0.8683 H         1 UNL1        0.0000
     23 H          -0.7108  -39.4591   -2.4222 H         1 UNL1        0.0000
     24 H          -2.0100  -39.1856   -1.2676 H         1 UNL1        0.0000
     25 H           1.2409  -40.6111   -1.7763 H         1 UNL1        0.0000
     26 H           2.2310  -42.2735   -0.3763 H         1 UNL1        0.0000
     27 H          -0.8383  -41.7872    2.3932 H         1 UNL1        0.0000
     28 H          -1.8341  -40.1133    0.9801 H         1 UNL1        0.0000
     29 H           0.7606  -43.3356    2.8668 H         1 UNL1        0.0000
     30 H           2.0643  -44.3560    0.3550 H         1 UNL1        0.0000
     31 H           0.4870  -44.8224    0.9452 H         1 UNL1        0.0000
     32 H           1.9185  -45.2375    1.8574 H         1 UNL1        0.0000
@<TRIPOS>BOND
     1    1   17 1
     2    1    2 1
     3    1   16 1
     4    1   18 1
     5    2   19 1
     6    2    3 1
     7    2    4 1
     8    3   21 1
     9    3   22 1
    10    3   20 1
    11    4    5 1
    12    4   24 1
    13    4   23 1
    14    5    6 ar
    15    5   10 ar
    16    6    7 ar
    17    6   25 1
    18    7   26 1
    19    7    8 ar
    20    8    9 ar
    21    8   11 1
    22    9   10 ar
    23    9   27 1
    24   10   28 1
    25   11   29 1
    26   11   12 1
    27   11   13 1
    28   12   30 1
    29   12   31 1
    30   12   32 1
    31   13   15 ar
    32   13   14 ar
@<TRIPOS>SUBSTRUCTURE
1 UNL1 1
@<TRIPOS>COMMENT
ibuprofen
PLANTSproteinTorsions
102
4661 183.3982
5386 222.3675
6210 24.0101
5890 349.8931
4461 213.8909
1390 109.0577
2824 287.6662
4339 269.5492
2732 164.7857
4792 249.1597
3407 208.0000
5134 38.4296
6916 89.7506
7370 109.0617
6038 50.5243
7225 263.0896
3592 174.0840
2064 42.4124
2488 162.7925
1253 238.7908
2069 170.6954
2569 17.5370
3058 279.3395
1748 224.2260
1162 47.1845
1509 318.3939
560 234.9665
1627 308.4147
1941 120.5089
3631 47.8995
2381 29.1621
4221 179.6587
4687 60.1219
6983 83.9425
6668 257.7066
7305 340.3618
8693 310.4322
8404 19.2305
9055 99.1252
7052 216.8987
4708 23.8318
2652 82.0276
4332 354.1853
3011 341.4923
2257 313.1900
2778 23.5854
2057 52.5892
192 281.3958
315 67.1715
1085 358.2755
1007 166.2037
1407 149.7986
4816 91.0860
3131 189.9725
4654 162.6815
5144 294.4075
117 222.6946
6 313.3720
259 136.5401
1979 135.0749
2609 1.8323
2623 345.6994
5910 187.3414
5937 239.6640
2062 63.8844
890 48.9574
5008 45.3406
8602 220.5771
8478 346.1718
8300 26.2284
7721 349.7694
8466 61.6819
7852 232.4655
5849 347.8209
6302 66.6028
7439 20.1537
6284 192.7744
6003 8.2981
7165 237.8012
7623 320.5149
8158 177.5706
8667 100.7067
9078 40.0149
8684 1.7137
7666 113.0706
4231 22.2276
1659 240.7455
489 103.0950
238 183.5263
46 239.2767
83 113.7728
254 52.3330
1066 131.9209
2112 209.7442
4047 9.8244
5402 96.3068
2544 346.1804
4670 145.9138
4426 76.8841
5656 259.5265
7040 257.9753
6282 265.5518
PLANTSmolcadARTstart hb
PLANTSmolcadARTstart HB
LINES
PLANTSmolcadARTstart HBCH
LINES
PLANTSmolcadARTstart HB-CHO
LINES
PLANTSmolcadARTend
PLANTSmolcadARTstart HB_WATER
LINES
PLANTSmolcadARTend

PLANTSmolcadARTend

