@<TRIPOS>MOLECULE
ibuprofen_entry_00001_conf_82
32 32 1
SMALL
NO_CHARGES


@<TRIPOS>ATOM
      1 C           0.0811  -72.3717    5.7620 C.3       1 UNL1        0.0000
      2 C           0.1409  -70.9930    5.1743 C.3       1 UNL1        0.0000
      3 C           0.8389  -71.0081    3.8518 C.3       1 UNL1        0.0000
      4 C          -1.2560  -70.4573    5.0287 C.3       1 UNL1        0.0000
      5 C          -1.2440  -69.0372    4.6008 C.ar      1 UNL1        0.0000
      6 C          -0.1395  -68.2713    4.8937 C.ar      1 UNL1        0.0000
      7 C          -0.0846  -66.9591    4.5196 C.ar      1 UNL1        0.0000
      8 C          -1.1314  -66.3810    3.8440 C.ar      1 UNL1        0.0000
      9 C          -2.2387  -67.1357    3.5456 C.ar      1 UNL1        0.0000
     10 C          -2.2918  -68.4600    3.9248 C.ar      1 UNL1        0.0000
     11 C          -1.0981  -64.9685    3.4289 C.3       1 UNL1        0.0000
     12 C          -1.4917  -64.8713    1.9552 C.3       1 UNL1        0.0000
     13 C          -2.0865  -64.2364    4.2742 C.2       1 UNL1        0.0000
     14 O          -1.7905  -63.1584    4.8098 O.co2     1 UNL1       -0.5000
     15 O          -3.3282  -64.7773    4.4481 O.co2     1 UNL1       -0.5000
     16 H           1.0744  -72.7575    5.8674 H         1 UNL1        0.0000
     17 H          -0.4829  -73.0111    5.1156 H         1 UNL1        0.0000
     18 H          -0.3889  -72.3296    6.7219 H         1 UNL1        0.0000
     19 H           0.6988  -70.3563    5.8279 H         1 UNL1        0.0000
     20 H           0.3029  -71.6388    3.1734 H         1 UNL1        0.0000
     21 H           1.8327  -71.3837    3.9776 H         1 UNL1        0.0000
     22 H           0.8799  -70.0143    3.4578 H         1 UNL1        0.0000
     23 H          -1.7594  -70.5344    5.9694 H         1 UNL1        0.0000
     24 H          -1.7626  -71.0319    4.2817 H         1 UNL1        0.0000
     25 H           0.6545  -68.6919    5.4015 H         1 UNL1        0.0000
     26 H           0.7511  -66.3972    4.7469 H         1 UNL1        0.0000
     27 H          -3.0311  -66.7123    3.0375 H         1 UNL1        0.0000
     28 H          -3.1261  -69.0240    3.6992 H         1 UNL1        0.0000
     29 H          -0.1214  -64.5481    3.5496 H         1 UNL1        0.0000
     30 H          -2.4677  -65.2887    1.8186 H         1 UNL1        0.0000
     31 H          -0.7856  -65.4144    1.3619 H         1 UNL1        0.0000
     32 H          -1.4961  -63.8448    1.6543 H         1 UNL1        0.0000
@<TRIPOS>BOND
     1    1   17 1
     2    1    2 1
     3    1   16 1
     4    1   18 1
     5    2   19 1
     6    2    3 1
     7    2    4 1
     8    3   21 1
     9    3   22 1
    10    3   20 1
    11    4    5 1
    12    4   24 1
    13    4   23 1
    14    5    6 ar
    15    5   10 ar
    16    6    7 ar
    17    6   25 1
    18    7   26 1
    19    7    8 ar
    20    8    9 ar
    21    8   11 1
    22    9   10 ar
    23    9   27 1
    24   10   28 1
    25   11   29 1
    26   11   12 1
    27   11   13 1
    28   12   30 1
    29   12   31 1
    30   12   32 1
    31   13   15 ar
    32   13   14 ar
@<TRIPOS>SUBSTRUCTURE
1 UNL1 1
@<TRIPOS>COMMENT
ibuprofen
PLANTSproteinTorsions
102
4661 323.0243
5386 307.6006
6210 311.1703
5890 249.4253
4461 356.5318
1390 211.7484
2824 182.3950
4339 73.6093
2732 72.2284
4792 13.9675
3407 237.7280
5134 144.6260
6916 190.5826
7370 77.7328
6038 238.0058
7225 259.1714
3592 319.7200
2064 347.9056
2488 40.8766
1253 140.9462
2069 161.1170
2569 132.7050
3058 35.5114
1748 149.1688
1162 26.1767
1509 336.9462
560 88.7284
1627 85.6919
1941 328.2131
3631 102.9647
2381 102.1803
4221 238.5526
4687 113.3651
6983 25.2870
6668 102.4169
7305 51.5837
8693 55.9485
8404 349.3407
9055 26.9484
7052 199.5000
4708 40.9123
2652 13.5778
4332 48.5092
3011 3.6504
2257 35.6442
2778 183.6972
2057 254.2972
192 286.7059
315 127.1835
1085 293.4716
1007 152.6884
1407 231.4515
4816 225.3632
3131 274.0122
4654 265.4491
5144 292.3661
117 148.4158
6 14.0709
259 286.4911
1979 102.5172
2609 241.4511
2623 301.3430
5910 288.7450
5937 64.4535
2062 253.7929
890 110.4501
5008 41.5463
8602 1.5710
8478 268.1268
8300 252.1738
7721 139.8915
8466 95.5126
7852 338.0423
5849 211.9042
6302 160.4063
7439 47.5844
6284 353.8735
6003 133.1727
7165 319.1999
7623 176.4219
8158 73.1015
8667 76.2871
9078 28.1798
8684 185.6724
7666 342.3353
4231 81.7392
1659 66.0043
489 86.9849
238 218.6230
46 131.4784
83 307.6205
254 110.0799
1066 52.0521
2112 51.0155
4047 217.6908
5402 275.2176
2544 155.1945
4670 116.2018
4426 268.4075
5656 58.9478
7040 231.7006
6282 279.3043
PLANTSmolcadARTstart hb
PLANTSmolcadARTstart HB
LINES
PLANTSmolcadARTstart HBCH
LINES
PLANTSmolcadARTstart HB-CHO
LINES
PLANTSmolcadARTend
PLANTSmolcadARTstart HB_WATER
LINES
PLANTSmolcadARTend

PLANTSmolcadARTend

