@<TRIPOS>MOLECULE
ibuprofen_entry_00001_conf_33
32 32 1
SMALL
NO_CHARGES


@<TRIPOS>ATOM
      1 C         -41.0184  -54.2795    8.0100 C.3       1 UNL1        0.0000
      2 C         -40.9447  -55.6420    7.3868 C.3       1 UNL1        0.0000
      3 C         -42.2370  -56.3753    7.5565 C.3       1 UNL1        0.0000
      4 C         -40.6047  -55.5005    5.9294 C.3       1 UNL1        0.0000
      5 C         -40.3102  -56.8190    5.3169 C.ar      1 UNL1        0.0000
      6 C         -39.4456  -57.6681    5.9679 C.ar      1 UNL1        0.0000
      7 C         -39.1451  -58.8917    5.4411 C.ar      1 UNL1        0.0000
      8 C         -39.7010  -59.2959    4.2520 C.ar      1 UNL1        0.0000
      9 C         -40.5657  -58.4571    3.5937 C.ar      1 UNL1        0.0000
     10 C         -40.8671  -57.2223    4.1273 C.ar      1 UNL1        0.0000
     11 C         -39.3941  -60.6098    3.6619 C.3       1 UNL1        0.0000
     12 C         -38.1567  -61.1888    4.3473 C.3       1 UNL1        0.0000
     13 C         -40.5751  -61.4895    3.9046 C.2       1 UNL1        0.0000
     14 O         -41.4340  -61.6579    3.0268 O.co2     1 UNL1       -0.5000
     15 O         -40.6935  -62.1084    5.1161 O.co2     1 UNL1       -0.5000
     16 H         -41.2607  -54.3755    9.0485 H         1 UNL1        0.0000
     17 H         -41.7744  -53.7030    7.5193 H         1 UNL1        0.0000
     18 H         -40.0730  -53.7897    7.9080 H         1 UNL1        0.0000
     19 H         -40.1825  -56.2111    7.8754 H         1 UNL1        0.0000
     20 H         -43.0222  -55.8290    7.0766 H         1 UNL1        0.0000
     21 H         -42.4569  -56.4732    8.5989 H         1 UNL1        0.0000
     22 H         -42.1574  -57.3467    7.1155 H         1 UNL1        0.0000
     23 H         -39.7462  -54.8700    5.8307 H         1 UNL1        0.0000
     24 H         -41.4462  -55.0732    5.4254 H         1 UNL1        0.0000
     25 H         -39.0196  -57.3777    6.8620 H         1 UNL1        0.0000
     26 H         -38.4942  -59.5178    5.9413 H         1 UNL1        0.0000
     27 H         -40.9903  -58.7504    2.6998 H         1 UNL1        0.0000
     28 H         -41.5172  -56.5942    3.6293 H         1 UNL1        0.0000
     29 H         -39.1978  -60.5313    2.6128 H         1 UNL1        0.0000
     30 H         -38.3382  -61.2730    5.3986 H         1 UNL1        0.0000
     31 H         -37.3217  -60.5405    4.1806 H         1 UNL1        0.0000
     32 H         -37.9445  -62.1557    3.9421 H         1 UNL1        0.0000
@<TRIPOS>BOND
     1    1   17 1
     2    1    2 1
     3    1   16 1
     4    1   18 1
     5    2   19 1
     6    2    3 1
     7    2    4 1
     8    3   21 1
     9    3   22 1
    10    3   20 1
    11    4    5 1
    12    4   24 1
    13    4   23 1
    14    5    6 ar
    15    5   10 ar
    16    6    7 ar
    17    6   25 1
    18    7   26 1
    19    7    8 ar
    20    8    9 ar
    21    8   11 1
    22    9   10 ar
    23    9   27 1
    24   10   28 1
    25   11   29 1
    26   11   12 1
    27   11   13 1
    28   12   30 1
    29   12   31 1
    30   12   32 1
    31   13   15 ar
    32   13   14 ar
@<TRIPOS>SUBSTRUCTURE
1 UNL1 1
@<TRIPOS>COMMENT
ibuprofen
PLANTSproteinTorsions
102
4661 355.3979
5386 114.4019
6210 47.7722
5890 51.6134
4461 351.8755
1390 147.5033
2824 53.7595
4339 261.0596
2732 137.5399
4792 193.0807
3407 354.5572
5134 328.7508
6916 229.4610
7370 99.5083
6038 18.2065
7225 250.2461
3592 136.1570
2064 63.0456
2488 118.3276
1253 306.9405
2069 322.8546
2569 108.9363
3058 169.7784
1748 241.5207
1162 250.4449
1509 218.4175
560 133.3660
1627 175.9785
1941 39.2347
3631 175.0363
2381 36.2311
4221 18.9770
4687 42.3325
6983 257.7802
6668 74.2651
7305 252.3812
8693 326.4966
8404 225.3733
9055 96.9261
7052 165.4606
4708 327.5634
2652 113.2156
4332 257.5421
3011 127.4019
2257 296.3167
2778 236.9161
2057 130.4237
192 255.5954
315 210.9888
1085 133.5490
1007 245.0005
1407 176.8258
4816 71.8359
3131 247.0738
4654 192.7813
5144 93.7425
117 187.4980
6 126.4102
259 211.5672
1979 268.4860
2609 91.3973
2623 208.3927
5910 260.8587
5937 307.6598
2062 91.4590
890 34.0702
5008 132.0265
8602 137.5913
8478 149.8093
8300 34.8845
7721 260.5119
8466 203.2245
7852 54.1533
5849 192.9342
6302 66.1085
7439 202.6655
6284 337.8885
6003 274.9830
7165 103.2075
7623 200.6407
8158 260.2070
8667 205.9379
9078 125.7397
8684 237.5411
7666 167.0141
4231 13.1909
1659 271.7188
489 54.4309
238 277.8310
46 260.7052
83 292.5850
254 256.9651
1066 253.6645
2112 110.6361
4047 55.7962
5402 160.3723
2544 111.8602
4670 331.4827
4426 120.8940
5656 285.5442
7040 64.1825
6282 180.1079
PLANTSmolcadARTstart hb
PLANTSmolcadARTstart HB
LINES
PLANTSmolcadARTstart HBCH
LINES
PLANTSmolcadARTstart HB-CHO
LINES
PLANTSmolcadARTend
PLANTSmolcadARTstart HB_WATER
LINES
PLANTSmolcadARTend

PLANTSmolcadARTend

