@<TRIPOS>MOLECULE
ibuprofen_entry_00001_conf_51
32 32 1
SMALL
NO_CHARGES


@<TRIPOS>ATOM
      1 C          -0.1869  -59.5812   -1.2677 C.3       1 UNL1        0.0000
      2 C           0.5261  -60.7973   -0.7550 C.3       1 UNL1        0.0000
      3 C           0.7579  -60.6962    0.7189 C.3       1 UNL1        0.0000
      4 C          -0.2864  -62.0195   -1.0797 C.3       1 UNL1        0.0000
      5 C           0.3271  -63.2404   -0.5024 C.ar      1 UNL1        0.0000
      6 C          -0.4523  -64.0617    0.2788 C.ar      1 UNL1        0.0000
      7 C           0.0702  -65.1960    0.8313 C.ar      1 UNL1        0.0000
      8 C           1.3833  -65.5367    0.6165 C.ar      1 UNL1        0.0000
      9 C           2.1706  -64.7250   -0.1619 C.ar      1 UNL1        0.0000
     10 C           1.6408  -63.5803   -0.7181 C.ar      1 UNL1        0.0000
     11 C           1.9719  -66.7540    1.2001 C.3       1 UNL1        0.0000
     12 C           2.9091  -67.3957    0.1774 C.3       1 UNL1        0.0000
     13 C           2.7395  -66.3369    2.4101 C.2       1 UNL1        0.0000
     14 O           2.3926  -65.3496    3.0746 O.co2     1 UNL1       -0.5000
     15 O           3.8359  -67.0651    2.7741 O.co2     1 UNL1       -0.5000
     16 H           0.3883  -58.7078   -1.0383 H         1 UNL1        0.0000
     17 H          -1.1475  -59.5079   -0.8022 H         1 UNL1        0.0000
     18 H          -0.3086  -59.6601   -2.3275 H         1 UNL1        0.0000
     19 H           1.4818  -60.8702   -1.2292 H         1 UNL1        0.0000
     20 H          -0.1831  -60.6217    1.2232 H         1 UNL1        0.0000
     21 H           1.3441  -59.8262    0.9287 H         1 UNL1        0.0000
     22 H           1.2770  -61.5673    1.0598 H         1 UNL1        0.0000
     23 H          -0.3455  -62.1275   -2.1423 H         1 UNL1        0.0000
     24 H          -1.2624  -61.8991   -0.6581 H         1 UNL1        0.0000
     25 H          -1.4406  -63.8181    0.4496 H         1 UNL1        0.0000
     26 H          -0.5273  -65.8022    1.4155 H         1 UNL1        0.0000
     27 H           3.1586  -64.9713   -0.3311 H         1 UNL1        0.0000
     28 H           2.2359  -62.9723   -1.3023 H         1 UNL1        0.0000
     29 H           1.2173  -67.4651    1.4648 H         1 UNL1        0.0000
     30 H           3.6700  -66.6952   -0.0976 H         1 UNL1        0.0000
     31 H           2.3501  -67.6742   -0.6917 H         1 UNL1        0.0000
     32 H           3.3612  -68.2657    0.6050 H         1 UNL1        0.0000
@<TRIPOS>BOND
     1    1   17 1
     2    1    2 1
     3    1   16 1
     4    1   18 1
     5    2   19 1
     6    2    3 1
     7    2    4 1
     8    3   21 1
     9    3   22 1
    10    3   20 1
    11    4    5 1
    12    4   24 1
    13    4   23 1
    14    5    6 ar
    15    5   10 ar
    16    6    7 ar
    17    6   25 1
    18    7   26 1
    19    7    8 ar
    20    8    9 ar
    21    8   11 1
    22    9   10 ar
    23    9   27 1
    24   10   28 1
    25   11   29 1
    26   11   12 1
    27   11   13 1
    28   12   30 1
    29   12   31 1
    30   12   32 1
    31   13   15 ar
    32   13   14 ar
@<TRIPOS>SUBSTRUCTURE
1 UNL1 1
@<TRIPOS>COMMENT
ibuprofen
PLANTSproteinTorsions
102
4661 113.8228
5386 225.2016
6210 56.8944
5890 84.8401
4461 218.9959
1390 77.3484
2824 114.4490
4339 82.3307
2732 111.4927
4792 46.0180
3407 193.9032
5134 329.5204
6916 347.3184
7370 299.4513
6038 8.7415
7225 151.8093
3592 101.3548
2064 62.1050
2488 123.6716
1253 267.0808
2069 162.0816
2569 10.9843
3058 219.7879
1748 39.0735
1162 310.9336
1509 43.0298
560 73.1066
1627 354.2535
1941 194.3886
3631 356.9283
2381 179.9488
4221 143.4328
4687 223.6008
6983 78.3005
6668 78.6687
7305 309.1743
8693 32.6177
8404 4.5643
9055 49.7722
7052 289.0319
4708 174.7520
2652 46.8717
4332 33.5085
3011 345.6816
2257 248.9997
2778 129.6176
2057 21.2383
192 319.4090
315 151.3358
1085 129.8223
1007 114.8943
1407 214.0526
4816 121.9459
3131 108.7464
4654 160.3094
5144 188.3487
117 121.5672
6 71.1941
259 241.6957
1979 217.0981
2609 218.1906
2623 83.0555
5910 153.5027
5937 180.0846
2062 265.6092
890 48.0958
5008 280.3002
8602 46.1469
8478 302.2913
8300 305.2019
7721 115.1475
8466 246.9248
7852 259.7638
5849 96.0701
6302 183.6716
7439 165.6992
6284 18.5951
6003 32.4230
7165 265.6704
7623 172.0721
8158 252.8742
8667 213.4606
9078 200.7943
8684 150.1286
7666 98.5713
4231 200.0626
1659 164.0354
489 157.8081
238 297.2094
46 250.9112
83 175.2099
254 188.9152
1066 168.8614
2112 286.3219
4047 243.8637
5402 280.7513
2544 261.5883
4670 259.0864
4426 66.8695
5656 106.5743
7040 160.7531
6282 210.6306
PLANTSmolcadARTstart hb
PLANTSmolcadARTstart HB
LINES
PLANTSmolcadARTstart HBCH
LINES
PLANTSmolcadARTstart HB-CHO
LINES
PLANTSmolcadARTend
PLANTSmolcadARTstart HB_WATER
LINES
PLANTSmolcadARTend

PLANTSmolcadARTend

