@<TRIPOS>MOLECULE
ibuprofen_entry_00001_conf_30
32 32 1
SMALL
NO_CHARGES


@<TRIPOS>ATOM
      1 C         -13.6717  -64.0873    0.3154 C.3       1 UNL1        0.0000
      2 C         -13.1602  -62.6794    0.2361 C.3       1 UNL1        0.0000
      3 C         -13.4178  -62.0952   -1.1162 C.3       1 UNL1        0.0000
      4 C         -13.8214  -61.8531    1.3036 C.3       1 UNL1        0.0000
      5 C         -13.6617  -60.4030    1.0353 C.ar      1 UNL1        0.0000
      6 C         -14.6691  -59.7421    0.3715 C.ar      1 UNL1        0.0000
      7 C         -14.5651  -58.4073    0.1026 C.ar      1 UNL1        0.0000
      8 C         -13.4527  -57.7012    0.4904 C.ar      1 UNL1        0.0000
      9 C         -12.4412  -58.3501    1.1540 C.ar      1 UNL1        0.0000
     10 C         -12.5484  -59.6977    1.4239 C.ar      1 UNL1        0.0000
     11 C         -13.3151  -56.2614    0.2132 C.3       1 UNL1        0.0000
     12 C         -14.3806  -55.8435   -0.7998 C.3       1 UNL1        0.0000
     13 C         -13.5226  -55.5415    1.5040 C.2       1 UNL1        0.0000
     14 O         -13.7614  -54.3253    1.5228 O.co2     1 UNL1       -0.5000
     15 O         -13.4444  -56.2492    2.6693 O.co2     1 UNL1       -0.5000
     16 H         -13.2034  -64.6797   -0.4437 H         1 UNL1        0.0000
     17 H         -14.7313  -64.0910    0.1674 H         1 UNL1        0.0000
     18 H         -13.4438  -64.4953    1.2776 H         1 UNL1        0.0000
     19 H         -12.1023  -62.6806    0.3925 H         1 UNL1        0.0000
     20 H         -14.4715  -62.0802   -1.3030 H         1 UNL1        0.0000
     21 H         -12.9327  -62.6914   -1.8604 H         1 UNL1        0.0000
     22 H         -13.0350  -61.0969   -1.1532 H         1 UNL1        0.0000
     23 H         -13.3778  -62.0843    2.2491 H         1 UNL1        0.0000
     24 H         -14.8663  -62.0831    1.3111 H         1 UNL1        0.0000
     25 H         -15.5107  -60.2598    0.0733 H         1 UNL1        0.0000
     26 H         -15.3295  -57.9253   -0.3966 H         1 UNL1        0.0000
     27 H         -11.6008  -57.8297    1.4512 H         1 UNL1        0.0000
     28 H         -11.7857  -60.1822    1.9226 H         1 UNL1        0.0000
     29 H         -12.3512  -56.0312   -0.1906 H         1 UNL1        0.0000
     30 H         -15.3513  -56.0682   -0.4094 H         1 UNL1        0.0000
     31 H         -14.2314  -56.3791   -1.7143 H         1 UNL1        0.0000
     32 H         -14.3037  -54.7928   -0.9849 H         1 UNL1        0.0000
@<TRIPOS>BOND
     1    1   17 1
     2    1    2 1
     3    1   16 1
     4    1   18 1
     5    2   19 1
     6    2    3 1
     7    2    4 1
     8    3   21 1
     9    3   22 1
    10    3   20 1
    11    4    5 1
    12    4   24 1
    13    4   23 1
    14    5    6 ar
    15    5   10 ar
    16    6    7 ar
    17    6   25 1
    18    7   26 1
    19    7    8 ar
    20    8    9 ar
    21    8   11 1
    22    9   10 ar
    23    9   27 1
    24   10   28 1
    25   11   29 1
    26   11   12 1
    27   11   13 1
    28   12   30 1
    29   12   31 1
    30   12   32 1
    31   13   15 ar
    32   13   14 ar
@<TRIPOS>SUBSTRUCTURE
1 UNL1 1
@<TRIPOS>COMMENT
ibuprofen
PLANTSproteinTorsions
102
4661 284.2188
5386 197.0984
6210 84.3442
5890 206.8485
4461 201.4342
1390 43.6428
2824 46.5837
4339 108.2007
2732 207.7750
4792 74.3129
3407 4.7717
5134 38.6656
6916 164.8715
7370 116.9137
6038 186.3732
7225 130.9358
3592 140.3813
2064 192.4954
2488 127.4308
1253 57.6702
2069 208.6151
2569 88.8881
3058 221.7361
1748 204.6650
1162 182.7959
1509 127.3344
560 63.6208
1627 104.9845
1941 251.2790
3631 287.0602
2381 147.3578
4221 44.0403
4687 126.7185
6983 214.7410
6668 54.2782
7305 4.8548
8693 11.8305
8404 9.5649
9055 189.0291
7052 129.8528
4708 163.8662
2652 304.4418
4332 182.8041
3011 92.9395
2257 109.4274
2778 203.4918
2057 40.6475
192 263.1720
315 262.0893
1085 200.4840
1007 137.8967
1407 209.3122
4816 206.3010
3131 65.2070
4654 262.0827
5144 40.0312
117 338.4822
6 174.3781
259 221.4153
1979 52.1765
2609 110.5543
2623 86.8132
5910 103.1703
5937 42.0696
2062 162.6480
890 177.4417
5008 347.9899
8602 281.6128
8478 136.2865
8300 320.1827
7721 228.7329
8466 145.8577
7852 212.0183
5849 93.7305
6302 308.9218
7439 195.8210
6284 162.0442
6003 187.7446
7165 301.3918
7623 265.8363
8158 183.0130
8667 34.9838
9078 68.1522
8684 55.8921
7666 135.6147
4231 95.7219
1659 213.5888
489 244.2269
238 154.7765
46 8.5279
83 281.9696
254 263.0058
1066 240.3274
2112 273.4586
4047 123.6188
5402 35.9018
2544 221.4575
4670 56.6792
4426 134.2552
5656 265.9789
7040 238.0835
6282 124.2202
PLANTSmolcadARTstart hb
PLANTSmolcadARTstart HB
LINES
PLANTSmolcadARTstart HBCH
LINES
PLANTSmolcadARTstart HB-CHO
LINES
PLANTSmolcadARTend
PLANTSmolcadARTstart HB_WATER
LINES
PLANTSmolcadARTend

PLANTSmolcadARTend

