@<TRIPOS>MOLECULE
ibuprofen_entry_00001_conf_44
32 32 1
SMALL
NO_CHARGES


@<TRIPOS>ATOM
      1 C         -44.4141  -55.8374    9.7911 C.3       1 UNL1        0.0000
      2 C         -43.4860  -55.3638    8.7122 C.3       1 UNL1        0.0000
      3 C         -43.5544  -53.8770    8.5663 C.3       1 UNL1        0.0000
      4 C         -42.0850  -55.7988    9.0400 C.3       1 UNL1        0.0000
      5 C         -41.3744  -56.2766    7.8288 C.ar      1 UNL1        0.0000
      6 C         -42.0969  -56.4635    6.6732 C.ar      1 UNL1        0.0000
      7 C         -41.4848  -56.9023    5.5342 C.ar      1 UNL1        0.0000
      8 C         -40.1367  -57.1648    5.5224 C.ar      1 UNL1        0.0000
      9 C         -39.4052  -56.9814    6.6695 C.ar      1 UNL1        0.0000
     10 C         -40.0257  -56.5387    7.8182 C.ar      1 UNL1        0.0000
     11 C         -39.4516  -57.6388    4.3080 C.3       1 UNL1        0.0000
     12 C         -37.9579  -57.3374    4.4269 C.3       1 UNL1        0.0000
     13 C         -39.6734  -59.1122    4.2225 C.2       1 UNL1        0.0000
     14 O         -38.7316  -59.9063    4.3597 O.co2     1 UNL1       -0.5000
     15 O         -40.9379  -59.5723    3.9893 O.co2     1 UNL1       -0.5000
     16 H         -45.4136  -55.5294    9.5618 H         1 UNL1        0.0000
     17 H         -44.1171  -55.4151   10.7283 H         1 UNL1        0.0000
     18 H         -44.3747  -56.9046    9.8516 H         1 UNL1        0.0000
     19 H         -43.7823  -55.7949    7.7795 H         1 UNL1        0.0000
     20 H         -43.2624  -53.4150    9.4865 H         1 UNL1        0.0000
     21 H         -44.5558  -53.5882    8.3250 H         1 UNL1        0.0000
     22 H         -42.8942  -53.5636    7.7849 H         1 UNL1        0.0000
     23 H         -42.1242  -56.5915    9.7573 H         1 UNL1        0.0000
     24 H         -41.5534  -54.9586    9.4353 H         1 UNL1        0.0000
     25 H         -43.1109  -56.2710    6.6672 H         1 UNL1        0.0000
     26 H         -42.0406  -57.0380    4.6748 H         1 UNL1        0.0000
     27 H         -38.3913  -57.1745    6.6725 H         1 UNL1        0.0000
     28 H         -39.4726  -56.4025    8.6788 H         1 UNL1        0.0000
     29 H         -39.8289  -57.1541    3.4316 H         1 UNL1        0.0000
     30 H         -37.5661  -57.8160    5.3003 H         1 UNL1        0.0000
     31 H         -37.8136  -56.2798    4.5050 H         1 UNL1        0.0000
     32 H         -37.4502  -57.7039    3.5597 H         1 UNL1        0.0000
@<TRIPOS>BOND
     1    1   17 1
     2    1    2 1
     3    1   16 1
     4    1   18 1
     5    2   19 1
     6    2    3 1
     7    2    4 1
     8    3   21 1
     9    3   22 1
    10    3   20 1
    11    4    5 1
    12    4   24 1
    13    4   23 1
    14    5    6 ar
    15    5   10 ar
    16    6    7 ar
    17    6   25 1
    18    7   26 1
    19    7    8 ar
    20    8    9 ar
    21    8   11 1
    22    9   10 ar
    23    9   27 1
    24   10   28 1
    25   11   29 1
    26   11   12 1
    27   11   13 1
    28   12   30 1
    29   12   31 1
    30   12   32 1
    31   13   15 ar
    32   13   14 ar
@<TRIPOS>SUBSTRUCTURE
1 UNL1 1
@<TRIPOS>COMMENT
ibuprofen
PLANTSproteinTorsions
102
4661 357.2822
5386 181.9571
6210 348.8898
5890 356.1054
4461 68.0143
1390 4.6899
2824 99.8432
4339 98.3460
2732 153.6388
4792 112.1169
3407 1.8371
5134 279.7158
6916 21.3594
7370 130.6452
6038 3.9886
7225 147.0627
3592 138.8374
2064 82.1419
2488 308.3154
1253 4.7159
2069 344.0326
2569 90.6345
3058 143.1158
1748 126.7741
1162 345.5471
1509 113.5526
560 188.9513
1627 298.5551
1941 101.3580
3631 125.4161
2381 339.5682
4221 132.6869
4687 255.0577
6983 227.4904
6668 224.9777
7305 192.5891
8693 120.1399
8404 93.0960
9055 111.1576
7052 166.5735
4708 238.2409
2652 70.8020
4332 91.2027
3011 194.3548
2257 217.1011
2778 115.7194
2057 266.0095
192 35.7723
315 117.7901
1085 117.4192
1007 58.6540
1407 160.2019
4816 160.1048
3131 184.8762
4654 222.0075
5144 196.6781
117 64.6429
6 235.9900
259 218.8182
1979 278.4635
2609 108.5117
2623 150.9521
5910 317.5047
5937 339.9489
2062 80.5898
890 60.3252
5008 265.3685
8602 137.7266
8478 248.3596
8300 49.8167
7721 292.5309
8466 42.4266
7852 93.8270
5849 72.9744
6302 35.0439
7439 63.6182
6284 124.8574
6003 194.6684
7165 111.7279
7623 62.1756
8158 283.0830
8667 271.3077
9078 298.4104
8684 101.2185
7666 190.6716
4231 120.3214
1659 17.0170
489 117.9435
238 246.3532
46 131.0374
83 254.7906
254 267.9682
1066 107.3266
2112 115.3023
4047 55.1472
5402 177.6503
2544 79.2471
4670 271.0687
4426 147.5598
5656 247.9408
7040 346.7464
6282 249.1502
PLANTSmolcadARTstart hb
PLANTSmolcadARTstart HB
LINES
PLANTSmolcadARTstart HBCH
LINES
PLANTSmolcadARTstart HB-CHO
LINES
-40.9379 -59.5723 3.98934 -43.2 -58.952 4.492 0 255 255 5
PLANTSmolcadARTend
PLANTSmolcadARTstart HB_WATER
LINES
PLANTSmolcadARTend

PLANTSmolcadARTend

