@<TRIPOS>MOLECULE
ibuprofen_entry_00001_conf_49
32 32 1
SMALL
NO_CHARGES


@<TRIPOS>ATOM
      1 C         -15.2160  -53.9872    3.3483 C.3       1 UNL1        0.0000
      2 C         -14.6769  -54.8954    2.2832 C.3       1 UNL1        0.0000
      3 C         -13.7101  -54.1686    1.4036 C.3       1 UNL1        0.0000
      4 C         -14.0148  -56.0787    2.9320 C.3       1 UNL1        0.0000
      5 C         -13.7900  -57.1707    1.9537 C.ar      1 UNL1        0.0000
      6 C         -14.4204  -58.3762    2.1574 C.ar      1 UNL1        0.0000
      7 C         -14.2426  -59.4100    1.2830 C.ar      1 UNL1        0.0000
      8 C         -13.4311  -59.2639    0.1845 C.ar      1 UNL1        0.0000
      9 C         -12.7972  -58.0652   -0.0294 C.ar      1 UNL1        0.0000
     10 C         -12.9780  -57.0233    0.8551 C.ar      1 UNL1        0.0000
     11 C         -13.2220  -60.3621   -0.7741 C.3       1 UNL1        0.0000
     12 C         -14.0423  -61.5739   -0.3325 C.3       1 UNL1        0.0000
     13 C         -13.6923  -59.8810   -2.1063 C.2       1 UNL1        0.0000
     14 O         -13.4030  -60.4956   -3.1431 O.co2     1 UNL1       -0.5000
     15 O         -14.4503  -58.7465   -2.1633 O.co2     1 UNL1       -0.5000
     16 H         -15.6886  -53.1424    2.8905 H         1 UNL1        0.0000
     17 H         -14.4135  -53.6523    3.9717 H         1 UNL1        0.0000
     18 H         -15.9310  -54.5183    3.9407 H         1 UNL1        0.0000
     19 H         -15.4838  -55.2334    1.6681 H         1 UNL1        0.0000
     20 H         -12.8882  -53.8169    1.9919 H         1 UNL1        0.0000
     21 H         -14.2016  -53.3364    0.9450 H         1 UNL1        0.0000
     22 H         -13.3482  -54.8315    0.6459 H         1 UNL1        0.0000
     23 H         -14.6404  -56.4399    3.7209 H         1 UNL1        0.0000
     24 H         -13.0659  -55.7672    3.3159 H         1 UNL1        0.0000
     25 H         -15.0327  -58.5009    2.9789 H         1 UNL1        0.0000
     26 H         -14.7224  -60.3088    1.4495 H         1 UNL1        0.0000
     27 H         -12.1856  -57.9433   -0.8519 H         1 UNL1        0.0000
     28 H         -12.4995  -56.1238    0.6913 H         1 UNL1        0.0000
     29 H         -12.1917  -60.6472   -0.8238 H         1 UNL1        0.0000
     30 H         -15.0763  -61.3036   -0.2779 H         1 UNL1        0.0000
     31 H         -13.7073  -61.8982    0.6309 H         1 UNL1        0.0000
     32 H         -13.9164  -62.3664   -1.0397 H         1 UNL1        0.0000
@<TRIPOS>BOND
     1    1   17 1
     2    1    2 1
     3    1   16 1
     4    1   18 1
     5    2   19 1
     6    2    3 1
     7    2    4 1
     8    3   21 1
     9    3   22 1
    10    3   20 1
    11    4    5 1
    12    4   24 1
    13    4   23 1
    14    5    6 ar
    15    5   10 ar
    16    6    7 ar
    17    6   25 1
    18    7   26 1
    19    7    8 ar
    20    8    9 ar
    21    8   11 1
    22    9   10 ar
    23    9   27 1
    24   10   28 1
    25   11   29 1
    26   11   12 1
    27   11   13 1
    28   12   30 1
    29   12   31 1
    30   12   32 1
    31   13   15 ar
    32   13   14 ar
@<TRIPOS>SUBSTRUCTURE
1 UNL1 1
@<TRIPOS>COMMENT
ibuprofen
PLANTSproteinTorsions
102
4661 39.4868
5386 234.5510
6210 22.4888
5890 50.5186
4461 347.4908
1390 1.1258
2824 88.1350
4339 72.6462
2732 69.9977
4792 331.1099
3407 78.4066
5134 103.9636
6916 86.5064
7370 263.4193
6038 119.6444
7225 143.1513
3592 239.2616
2064 29.5103
2488 158.2266
1253 186.6176
2069 180.1979
2569 194.7710
3058 192.7117
1748 46.8469
1162 320.8624
1509 122.9108
560 170.4824
1627 51.7281
1941 68.0527
3631 18.0861
2381 133.0411
4221 47.5021
4687 125.4176
6983 350.2508
6668 65.5169
7305 52.3686
8693 88.2314
8404 11.6400
9055 83.1022
7052 140.6536
4708 73.2235
2652 165.1777
4332 241.3162
3011 237.0235
2257 213.4294
2778 25.5978
2057 9.8811
192 53.0719
315 212.8723
1085 189.4875
1007 111.4462
1407 211.7703
4816 195.6821
3131 37.5829
4654 243.4025
5144 136.8527
117 85.8805
6 60.4434
259 246.1864
1979 126.2278
2609 123.4694
2623 218.6627
5910 216.5446
5937 188.3697
2062 201.4081
890 148.4654
5008 47.1843
8602 137.1290
8478 118.7995
8300 112.7075
7721 68.0895
8466 98.4535
7852 130.9934
5849 213.7235
6302 282.9224
7439 265.7699
6284 214.5503
6003 188.5752
7165 274.5837
7623 267.9325
8158 223.5598
8667 163.7852
9078 149.9956
8684 146.2477
7666 35.3730
4231 285.0356
1659 311.3554
489 234.5909
238 39.0187
46 190.0953
83 15.1158
254 244.0481
1066 223.8908
2112 181.2875
4047 133.8800
5402 107.5869
2544 339.4554
4670 74.8180
4426 237.0818
5656 112.3404
7040 113.4431
6282 116.1013
PLANTSmolcadARTstart hb
PLANTSmolcadARTstart HB
LINES
-13.403 -60.4956 -3.1431 -11.654 -59.599 -3.055 0 255 0 5
PLANTSmolcadARTstart HBCH
LINES
PLANTSmolcadARTstart HB-CHO
LINES
PLANTSmolcadARTend
PLANTSmolcadARTstart HB_WATER
LINES
PLANTSmolcadARTend

PLANTSmolcadARTend

