@<TRIPOS>MOLECULE
ibuprofen_entry_00001_conf_38
32 32 1
SMALL
NO_CHARGES


@<TRIPOS>ATOM
      1 C          -0.0536  -42.6549   -0.0537 C.3       1 UNL1        0.0000
      2 C           0.1830  -41.2015    0.2321 C.3       1 UNL1        0.0000
      3 C           1.5391  -40.7808   -0.2376 C.3       1 UNL1        0.0000
      4 C          -0.8858  -40.3858   -0.4401 C.3       1 UNL1        0.0000
      5 C          -0.6783  -38.9353   -0.2093 C.ar      1 UNL1        0.0000
      6 C          -1.1556  -38.0458   -1.1437 C.ar      1 UNL1        0.0000
      7 C          -0.9872  -36.7014   -0.9730 C.ar      1 UNL1        0.0000
      8 C          -0.3382  -36.2139    0.1349 C.ar      1 UNL1        0.0000
      9 C           0.1419  -37.0921    1.0745 C.ar      1 UNL1        0.0000
     10 C          -0.0290  -38.4488    0.8996 C.ar      1 UNL1        0.0000
     11 C          -0.1431  -34.7692    0.3437 C.3       1 UNL1        0.0000
     12 C           1.1431  -34.5484    1.1393 C.3       1 UNL1        0.0000
     13 C          -0.0279  -34.1398   -1.0047 C.2       1 UNL1        0.0000
     14 O          -0.5913  -33.0644   -1.2550 O.co2     1 UNL1       -0.5000
     15 O           0.7123  -34.7723   -1.9622 O.co2     1 UNL1       -0.5000
     16 H           0.7058  -43.2400    0.4232 H         1 UNL1        0.0000
     17 H          -0.0208  -42.8209   -1.1102 H         1 UNL1        0.0000
     18 H          -1.0132  -42.9403    0.3232 H         1 UNL1        0.0000
     19 H           0.1413  -41.0398    1.2884 H         1 UNL1        0.0000
     20 H           1.6124  -40.9310   -1.2947 H         1 UNL1        0.0000
     21 H           2.2852  -41.3660    0.2577 H         1 UNL1        0.0000
     22 H           1.6899  -39.7457   -0.0133 H         1 UNL1        0.0000
     23 H          -1.8398  -40.6688   -0.0477 H         1 UNL1        0.0000
     24 H          -0.8411  -40.5711   -1.4929 H         1 UNL1        0.0000
     25 H          -1.6448  -38.3976   -1.9817 H         1 UNL1        0.0000
     26 H          -1.3509  -36.0463   -1.6832 H         1 UNL1        0.0000
     27 H           0.6305  -36.7373    1.9117 H         1 UNL1        0.0000
     28 H           0.3338  -39.1060    1.6078 H         1 UNL1        0.0000
     29 H          -0.9586  -34.3388    0.8869 H         1 UNL1        0.0000
     30 H           1.9685  -34.9744    0.6078 H         1 UNL1        0.0000
     31 H           1.0545  -35.0189    2.0965 H         1 UNL1        0.0000
     32 H           1.3052  -33.4993    1.2709 H         1 UNL1        0.0000
@<TRIPOS>BOND
     1    1   17 1
     2    1    2 1
     3    1   16 1
     4    1   18 1
     5    2   19 1
     6    2    3 1
     7    2    4 1
     8    3   21 1
     9    3   22 1
    10    3   20 1
    11    4    5 1
    12    4   24 1
    13    4   23 1
    14    5    6 ar
    15    5   10 ar
    16    6    7 ar
    17    6   25 1
    18    7   26 1
    19    7    8 ar
    20    8    9 ar
    21    8   11 1
    22    9   10 ar
    23    9   27 1
    24   10   28 1
    25   11   29 1
    26   11   12 1
    27   11   13 1
    28   12   30 1
    29   12   31 1
    30   12   32 1
    31   13   15 ar
    32   13   14 ar
@<TRIPOS>SUBSTRUCTURE
1 UNL1 1
@<TRIPOS>COMMENT
ibuprofen
PLANTSproteinTorsions
102
4661 356.9104
5386 307.3795
6210 167.7451
5890 129.8027
4461 132.8848
1390 171.3890
2824 309.0201
4339 308.4753
2732 335.8596
4792 321.9104
3407 172.4972
5134 190.2014
6916 95.5289
7370 20.2290
6038 49.9297
7225 207.9034
3592 245.5639
2064 104.6404
2488 6.6863
1253 146.9959
2069 174.6209
2569 331.4361
3058 204.3910
1748 1.1770
1162 71.2026
1509 72.6230
560 146.4844
1627 4.8647
1941 286.4650
3631 214.6943
2381 178.9774
4221 124.6824
4687 210.6410
6983 352.3871
6668 69.2114
7305 337.0143
8693 254.7475
8404 274.6369
9055 68.8994
7052 97.5888
4708 231.5791
2652 21.5639
4332 116.6670
3011 98.3353
2257 74.7842
2778 117.7097
2057 126.4992
192 45.2674
315 134.8408
1085 326.3091
1007 206.6494
1407 23.5317
4816 191.2535
3131 68.3984
4654 224.6831
5144 125.3105
117 246.4291
6 114.9610
259 95.0693
1979 41.0844
2609 24.4254
2623 85.8736
5910 97.0049
5937 335.8893
2062 354.7010
890 88.0713
5008 357.5131
8602 324.5496
8478 35.0364
8300 304.4615
7721 255.4779
8466 339.5643
7852 96.2119
5849 138.5918
6302 174.5088
7439 109.5862
6284 112.6279
6003 74.4600
7165 142.3123
7623 165.2479
8158 189.1924
8667 322.4441
9078 155.7538
8684 149.6748
7666 139.4608
4231 88.4991
1659 315.0020
489 125.3410
238 181.8077
46 78.4945
83 286.5216
254 46.9621
1066 130.3586
2112 319.1041
4047 245.3915
5402 180.8910
2544 118.9492
4670 317.5416
4426 113.5068
5656 173.3017
7040 114.4753
6282 242.8487
PLANTSmolcadARTstart hb
PLANTSmolcadARTstart HB
LINES
PLANTSmolcadARTstart HBCH
LINES
PLANTSmolcadARTstart HB-CHO
LINES
PLANTSmolcadARTend
PLANTSmolcadARTstart HB_WATER
LINES
PLANTSmolcadARTend

PLANTSmolcadARTend

