@<TRIPOS>MOLECULE
ibuprofen_entry_00001_conf_92
32 32 1
SMALL
NO_CHARGES


@<TRIPOS>ATOM
      1 C         -16.0029  -55.2350   -0.3080 C.3       1 UNL1        0.0000
      2 C         -14.9264  -56.0013   -1.0180 C.3       1 UNL1        0.0000
      3 C         -14.1176  -56.8039   -0.0495 C.3       1 UNL1        0.0000
      4 C         -15.5554  -56.8953   -2.0498 C.3       1 UNL1        0.0000
      5 C         -16.1622  -56.1033   -3.1475 C.ar      1 UNL1        0.0000
      6 C         -16.9367  -56.7555   -4.0786 C.ar      1 UNL1        0.0000
      7 C         -17.5150  -56.0671   -5.1065 C.ar      1 UNL1        0.0000
      8 C         -17.3333  -54.7111   -5.2286 C.ar      1 UNL1        0.0000
      9 C         -16.5627  -54.0495   -4.3049 C.ar      1 UNL1        0.0000
     10 C         -15.9798  -54.7468   -3.2685 C.ar      1 UNL1        0.0000
     11 C         -17.9452  -53.9446   -6.3270 C.3       1 UNL1        0.0000
     12 C         -18.1210  -54.8604   -7.5381 C.3       1 UNL1        0.0000
     13 C         -19.2751  -53.4682   -5.8456 C.2       1 UNL1        0.0000
     14 O         -20.0711  -54.2471   -5.3015 O.co2     1 UNL1       -0.5000
     15 O         -19.6012  -52.1531   -6.0159 O.co2     1 UNL1       -0.5000
     16 H         -15.5593  -54.5967    0.4284 H         1 UNL1        0.0000
     17 H         -16.6722  -55.9193    0.1700 H         1 UNL1        0.0000
     18 H         -16.5433  -54.6418   -1.0153 H         1 UNL1        0.0000
     19 H         -14.2651  -55.3131   -1.5004 H         1 UNL1        0.0000
     20 H         -14.7534  -57.5044    0.4510 H         1 UNL1        0.0000
     21 H         -13.6719  -56.1501    0.6705 H         1 UNL1        0.0000
     22 H         -13.3503  -57.3318   -0.5758 H         1 UNL1        0.0000
     23 H         -16.3159  -57.4856   -1.5836 H         1 UNL1        0.0000
     24 H         -14.7935  -57.5214   -2.4649 H         1 UNL1        0.0000
     25 H         -17.0816  -57.7744   -4.0002 H         1 UNL1        0.0000
     26 H         -18.0934  -56.5706   -5.7976 H         1 UNL1        0.0000
     27 H         -16.4198  -53.0304   -4.3859 H         1 UNL1        0.0000
     28 H         -15.4008  -54.2461   -2.5763 H         1 UNL1        0.0000
     29 H         -17.3335  -53.1144   -6.6129 H         1 UNL1        0.0000
     30 H         -18.7312  -55.6967   -7.2670 H         1 UNL1        0.0000
     31 H         -17.1625  -55.2088   -7.8626 H         1 UNL1        0.0000
     32 H         -18.5904  -54.3168   -8.3308 H         1 UNL1        0.0000
@<TRIPOS>BOND
     1    1   17 1
     2    1    2 1
     3    1   16 1
     4    1   18 1
     5    2   19 1
     6    2    3 1
     7    2    4 1
     8    3   21 1
     9    3   22 1
    10    3   20 1
    11    4    5 1
    12    4   24 1
    13    4   23 1
    14    5    6 ar
    15    5   10 ar
    16    6    7 ar
    17    6   25 1
    18    7   26 1
    19    7    8 ar
    20    8    9 ar
    21    8   11 1
    22    9   10 ar
    23    9   27 1
    24   10   28 1
    25   11   29 1
    26   11   12 1
    27   11   13 1
    28   12   30 1
    29   12   31 1
    30   12   32 1
    31   13   15 ar
    32   13   14 ar
@<TRIPOS>SUBSTRUCTURE
1 UNL1 1
@<TRIPOS>COMMENT
ibuprofen
PLANTSproteinTorsions
102
4661 120.6350
5386 212.1093
6210 24.1161
5890 67.5641
4461 198.0442
1390 302.5686
2824 168.6970
4339 52.2015
2732 58.7090
4792 339.8555
3407 6.4975
5134 7.1497
6916 199.4523
7370 299.3926
6038 343.5191
7225 201.2053
3592 109.8730
2064 74.3280
2488 0.7425
1253 84.6622
2069 85.0009
2569 358.3463
3058 5.5549
1748 142.5916
1162 76.8476
1509 190.3573
560 3.5891
1627 176.1414
1941 137.3681
3631 10.4638
2381 109.2902
4221 194.2408
4687 29.1602
6983 165.9393
6668 316.1562
7305 241.6481
8693 205.3197
8404 36.3728
9055 195.6151
7052 358.8568
4708 236.2727
2652 124.4079
4332 144.6326
3011 238.1209
2257 83.1900
2778 23.2525
2057 166.9366
192 172.9683
315 80.0994
1085 179.1390
1007 20.2228
1407 296.6971
4816 115.3896
3131 255.9146
4654 100.7325
5144 327.0800
117 209.2075
6 138.2588
259 41.8059
1979 190.9000
2609 2.7390
2623 345.8695
5910 182.6448
5937 127.4276
2062 42.1342
890 10.2812
5008 31.1373
8602 33.8718
8478 4.9450
8300 307.0707
7721 131.2517
8466 237.2010
7852 95.2042
5849 116.1969
6302 50.2261
7439 172.5386
6284 46.3146
6003 340.6556
7165 98.0091
7623 323.6535
8158 162.5835
8667 226.6515
9078 103.8978
8684 307.6701
7666 227.6487
4231 339.2556
1659 99.5344
489 64.2453
238 252.3643
46 71.1875
83 216.6179
254 58.1799
1066 227.0754
2112 303.7364
4047 65.2953
5402 107.3770
2544 177.0025
4670 194.1882
4426 253.6726
5656 270.4521
7040 241.0831
6282 195.7802
PLANTSmolcadARTstart hb
PLANTSmolcadARTstart HB
LINES
PLANTSmolcadARTstart HBCH
LINES
-20.0711 -54.2471 -5.30147 -19.176 -53.681 -3.524 255 0 0 5
-19.6012 -52.1531 -6.01589 -20.117 -51.666 -4.067 255 0 0 5
PLANTSmolcadARTstart HB-CHO
LINES
PLANTSmolcadARTend
PLANTSmolcadARTstart HB_WATER
LINES
PLANTSmolcadARTend

PLANTSmolcadARTend

