@<TRIPOS>MOLECULE
ibuprofen_entry_00001_conf_68
32 32 1
SMALL
NO_CHARGES


@<TRIPOS>ATOM
      1 C         -14.1837  -53.6200    3.9800 C.3       1 UNL1        0.0000
      2 C         -14.2660  -54.4384    2.7256 C.3       1 UNL1        0.0000
      3 C         -15.1815  -55.6063    2.9115 C.3       1 UNL1        0.0000
      4 C         -14.7434  -53.5668    1.5978 C.3       1 UNL1        0.0000
      5 C         -15.0862  -54.3758    0.4028 C.ar      1 UNL1        0.0000
      6 C         -14.1120  -55.1712   -0.1546 C.ar      1 UNL1        0.0000
      7 C         -14.3822  -55.9328   -1.2553 C.ar      1 UNL1        0.0000
      8 C         -15.6318  -55.9180   -1.8253 C.ar      1 UNL1        0.0000
      9 C         -16.6122  -55.1286   -1.2774 C.ar      1 UNL1        0.0000
     10 C         -16.3367  -54.3603   -0.1664 C.ar      1 UNL1        0.0000
     11 C         -15.9500  -56.7295   -3.0123 C.3       1 UNL1        0.0000
     12 C         -17.2229  -57.5316   -2.7427 C.3       1 UNL1        0.0000
     13 C         -16.1683  -55.7852   -4.1472 C.2       1 UNL1        0.0000
     14 O         -15.9928  -54.5665   -4.0035 O.co2     1 UNL1       -0.5000
     15 O         -16.5666  -56.2894   -5.3522 O.co2     1 UNL1       -0.5000
     16 H         -13.8441  -54.2371    4.7863 H         1 UNL1        0.0000
     17 H         -15.1511  -53.2276    4.2143 H         1 UNL1        0.0000
     18 H         -13.4965  -52.8133    3.8343 H         1 UNL1        0.0000
     19 H         -13.2954  -54.8215    2.4917 H         1 UNL1        0.0000
     20 H         -16.1643  -55.2545    3.1474 H         1 UNL1        0.0000
     21 H         -14.8207  -56.2182    3.7114 H         1 UNL1        0.0000
     22 H         -15.2155  -56.1809    2.0097 H         1 UNL1        0.0000
     23 H         -13.9701  -52.8740    1.3404 H         1 UNL1        0.0000
     24 H         -15.6223  -53.0484    1.9194 H         1 UNL1        0.0000
     25 H         -13.1681  -55.1920    0.2625 H         1 UNL1        0.0000
     26 H         -13.6406  -56.5245   -1.6624 H         1 UNL1        0.0000
     27 H         -17.5553  -55.1100   -1.6966 H         1 UNL1        0.0000
     28 H         -17.0761  -53.7677    0.2424 H         1 UNL1        0.0000
     29 H         -15.1589  -57.4122   -3.2430 H         1 UNL1        0.0000
     30 H         -18.0240  -56.8613   -2.5099 H         1 UNL1        0.0000
     31 H         -17.0590  -58.1918   -1.9164 H         1 UNL1        0.0000
     32 H         -17.4750  -58.1026   -3.6113 H         1 UNL1        0.0000
@<TRIPOS>BOND
     1    1   17 1
     2    1    2 1
     3    1   16 1
     4    1   18 1
     5    2   19 1
     6    2    3 1
     7    2    4 1
     8    3   21 1
     9    3   22 1
    10    3   20 1
    11    4    5 1
    12    4   24 1
    13    4   23 1
    14    5    6 ar
    15    5   10 ar
    16    6    7 ar
    17    6   25 1
    18    7   26 1
    19    7    8 ar
    20    8    9 ar
    21    8   11 1
    22    9   10 ar
    23    9   27 1
    24   10   28 1
    25   11   29 1
    26   11   12 1
    27   11   13 1
    28   12   30 1
    29   12   31 1
    30   12   32 1
    31   13   15 ar
    32   13   14 ar
@<TRIPOS>SUBSTRUCTURE
1 UNL1 1
@<TRIPOS>COMMENT
ibuprofen
PLANTSproteinTorsions
102
4661 298.2479
5386 221.7166
6210 94.4885
5890 276.1239
4461 151.3011
1390 298.7895
2824 170.5933
4339 216.1861
2732 92.5172
4792 201.0895
3407 281.9141
5134 64.6074
6916 336.8573
7370 250.9410
6038 142.6538
7225 161.7678
3592 212.5916
2064 137.9150
2488 11.6674
1253 222.0430
2069 346.8701
2569 215.9864
3058 295.2012
1748 46.0842
1162 259.0033
1509 8.4508
560 92.0855
1627 126.7742
1941 43.9427
3631 277.7945
2381 313.6702
4221 309.6917
4687 274.9796
6983 144.5166
6668 263.7841
7305 165.9136
8693 351.3458
8404 57.2844
9055 113.2340
7052 351.9831
4708 125.8037
2652 146.3796
4332 113.1428
3011 137.4385
2257 127.5190
2778 167.0902
2057 87.4326
192 324.4690
315 121.3034
1085 321.7789
1007 276.5448
1407 308.2845
4816 57.8389
3131 34.2981
4654 237.7586
5144 126.4969
117 108.0594
6 133.4970
259 52.8218
1979 265.0319
2609 116.0147
2623 98.1949
5910 259.7754
5937 5.1511
2062 259.9828
890 296.3997
5008 213.6366
8602 92.5720
8478 332.6270
8300 233.1350
7721 176.6028
8466 48.8766
7852 6.1774
5849 355.0038
6302 95.5677
7439 93.2230
6284 255.3390
6003 75.2141
7165 14.1851
7623 157.1530
8158 167.2548
8667 78.8679
9078 227.8050
8684 238.2025
7666 97.5583
4231 40.1192
1659 48.3984
489 65.2826
238 34.9952
46 67.4420
83 293.1661
254 32.8478
1066 75.4731
2112 169.7672
4047 17.8923
5402 268.7806
2544 141.2029
4670 315.0285
4426 321.1773
5656 115.0406
7040 58.3636
6282 173.9061
PLANTSmolcadARTstart hb
PLANTSmolcadARTstart HB
LINES
-16.5666 -56.2894 -5.35219 -16.9508 -57.7493 -5.63 0 255 0 5
PLANTSmolcadARTstart HBCH
LINES
PLANTSmolcadARTstart HB-CHO
LINES
PLANTSmolcadARTend
PLANTSmolcadARTstart HB_WATER
LINES
PLANTSmolcadARTend

PLANTSmolcadARTend

