@<TRIPOS>MOLECULE
ibuprofen_entry_00001_conf_77
32 32 1
SMALL
NO_CHARGES


@<TRIPOS>ATOM
      1 C         -32.3655  -30.3008   19.5795 C.3       1 UNL1        0.0000
      2 C         -32.7771  -29.2573   18.5838 C.3       1 UNL1        0.0000
      3 C         -34.0444  -29.6506   17.8940 C.3       1 UNL1        0.0000
      4 C         -32.9460  -27.9408   19.2895 C.3       1 UNL1        0.0000
      5 C         -33.2998  -26.8620   18.3349 C.ar      1 UNL1        0.0000
      6 C         -33.8884  -25.7187   18.8233 C.ar      1 UNL1        0.0000
      7 C         -34.2314  -24.6996   17.9815 C.ar      1 UNL1        0.0000
      8 C         -33.9946  -24.7984   16.6322 C.ar      1 UNL1        0.0000
      9 C         -33.4071  -25.9345   16.1334 C.ar      1 UNL1        0.0000
     10 C         -33.0622  -26.9620   16.9853 C.ar      1 UNL1        0.0000
     11 C         -34.3544  -23.7146   15.7024 C.3       1 UNL1        0.0000
     12 C         -35.4403  -22.8487   16.3405 C.3       1 UNL1        0.0000
     13 C         -33.1222  -22.9052   15.4697 C.2       1 UNL1        0.0000
     14 O         -32.5808  -22.8768   14.3550 O.co2     1 UNL1       -0.5000
     15 O         -32.5993  -22.1932   16.5111 O.co2     1 UNL1       -0.5000
     16 H         -32.2442  -31.2406   19.0811 H         1 UNL1        0.0000
     17 H         -33.1192  -30.3918   20.3335 H         1 UNL1        0.0000
     18 H         -31.4395  -30.0151   20.0326 H         1 UNL1        0.0000
     19 H         -32.0170  -29.1647   17.8372 H         1 UNL1        0.0000
     20 H         -34.8270  -29.7514   18.6170 H         1 UNL1        0.0000
     21 H         -33.9016  -30.5841   17.3913 H         1 UNL1        0.0000
     22 H         -34.3119  -28.8986   17.1816 H         1 UNL1        0.0000
     23 H         -32.0296  -27.6870   19.7794 H         1 UNL1        0.0000
     24 H         -33.7395  -28.0375   20.0007 H         1 UNL1        0.0000
     25 H         -34.0732  -25.6304   19.8349 H         1 UNL1        0.0000
     26 H         -34.6727  -23.8478   18.3630 H         1 UNL1        0.0000
     27 H         -33.2234  -26.0198   15.1213 H         1 UNL1        0.0000
     28 H         -32.6212  -27.8148   16.6066 H         1 UNL1        0.0000
     29 H         -34.7263  -24.1010   14.7763 H         1 UNL1        0.0000
     30 H         -35.0825  -22.4549   17.2690 H         1 UNL1        0.0000
     31 H         -36.3116  -23.4443   16.5180 H         1 UNL1        0.0000
     32 H         -35.6869  -22.0431   15.6813 H         1 UNL1        0.0000
@<TRIPOS>BOND
     1    1   17 1
     2    1    2 1
     3    1   16 1
     4    1   18 1
     5    2   19 1
     6    2    3 1
     7    2    4 1
     8    3   21 1
     9    3   22 1
    10    3   20 1
    11    4    5 1
    12    4   24 1
    13    4   23 1
    14    5    6 ar
    15    5   10 ar
    16    6    7 ar
    17    6   25 1
    18    7   26 1
    19    7    8 ar
    20    8    9 ar
    21    8   11 1
    22    9   10 ar
    23    9   27 1
    24   10   28 1
    25   11   29 1
    26   11   12 1
    27   11   13 1
    28   12   30 1
    29   12   31 1
    30   12   32 1
    31   13   15 ar
    32   13   14 ar
@<TRIPOS>SUBSTRUCTURE
1 UNL1 1
@<TRIPOS>COMMENT
ibuprofen
PLANTSproteinTorsions
102
4661 11.8046
5386 43.9675
6210 4.8544
5890 132.8462
4461 149.8721
1390 212.5692
2824 242.5571
4339 188.4191
2732 48.0819
4792 150.3511
3407 115.6846
5134 66.0870
6916 8.5095
7370 147.9246
6038 241.4578
7225 34.9695
3592 339.1583
2064 183.1445
2488 204.0283
1253 145.6125
2069 13.9147
2569 318.8281
3058 74.9309
1748 31.5911
1162 115.9618
1509 0.1683
560 15.0734
1627 100.8359
1941 355.7978
3631 169.4094
2381 46.6677
4221 189.7584
4687 59.6384
6983 218.4141
6668 325.7539
7305 191.2532
8693 17.9413
8404 118.7507
9055 252.3147
7052 279.4954
4708 93.5042
2652 116.4070
4332 301.4839
3011 125.3085
2257 313.6200
2778 252.5033
2057 68.2484
192 258.8624
315 202.9057
1085 253.2003
1007 134.4278
1407 35.9650
4816 173.9143
3131 242.2909
4654 273.2181
5144 308.7333
117 170.5505
6 128.0761
259 202.1955
1979 183.8449
2609 80.3015
2623 126.6578
5910 21.5431
5937 254.0073
2062 74.3565
890 22.0426
5008 280.3924
8602 109.6932
8478 189.4950
8300 125.4115
7721 259.4377
8466 170.8172
7852 223.6847
5849 79.3703
6302 58.6760
7439 198.4606
6284 217.3757
6003 224.7432
7165 82.2922
7623 66.5534
8158 70.4458
8667 180.8752
9078 155.0806
8684 40.5180
7666 49.7490
4231 241.8723
1659 262.6727
489 205.3717
238 221.6548
46 72.7069
83 258.5879
254 256.7024
1066 259.0898
2112 58.3452
4047 50.9675
5402 215.4427
2544 237.5532
4670 238.1078
4426 263.9030
5656 234.8989
7040 306.2918
6282 149.5545
PLANTSmolcadARTstart hb
PLANTSmolcadARTstart HB
LINES
-32.5808 -22.8768 14.355 -33.347 -23.404 12.472 0 255 0 5
PLANTSmolcadARTstart HBCH
LINES
PLANTSmolcadARTstart HB-CHO
LINES
PLANTSmolcadARTend
PLANTSmolcadARTstart HB_WATER
LINES
PLANTSmolcadARTend

PLANTSmolcadARTend

