@<TRIPOS>MOLECULE
ibuprofen_entry_00001_conf_42
32 32 1
SMALL
NO_CHARGES


@<TRIPOS>ATOM
      1 C         -13.9414  -56.1110    1.2270 C.3       1 UNL1        0.0000
      2 C         -13.4967  -57.4088    0.6203 C.3       1 UNL1        0.0000
      3 C         -12.1612  -57.8164    1.1558 C.3       1 UNL1        0.0000
      4 C         -14.5261  -58.4661    0.9065 C.3       1 UNL1        0.0000
      5 C         -14.1612  -59.7559    0.2714 C.ar      1 UNL1        0.0000
      6 C         -14.6678  -60.9182    0.8048 C.ar      1 UNL1        0.0000
      7 C         -14.3586  -62.1286    0.2533 C.ar      1 UNL1        0.0000
      8 C         -13.5362  -62.2065   -0.8441 C.ar      1 UNL1        0.0000
      9 C         -13.0252  -61.0531   -1.3855 C.ar      1 UNL1        0.0000
     10 C         -13.3386  -59.8325   -0.8265 C.ar      1 UNL1        0.0000
     11 C         -13.1869  -63.4984   -1.4585 C.3       1 UNL1        0.0000
     12 C         -13.4193  -64.6149   -0.4409 C.3       1 UNL1        0.0000
     13 C         -14.0828  -63.6831   -2.6378 C.2       1 UNL1        0.0000
     14 O         -14.7535  -64.7170   -2.7714 O.co2     1 UNL1       -0.5000
     15 O         -14.1510  -62.6888   -3.5713 O.co2     1 UNL1       -0.5000
     16 H         -13.2107  -55.3547    1.0257 H         1 UNL1        0.0000
     17 H         -14.0493  -56.2300    2.2849 H         1 UNL1        0.0000
     18 H         -14.8798  -55.8225    0.8024 H         1 UNL1        0.0000
     19 H         -13.3981  -57.2866   -0.4375 H         1 UNL1        0.0000
     20 H         -12.2273  -57.9471    2.2160 H         1 UNL1        0.0000
     21 H         -11.4415  -57.0563    0.9350 H         1 UNL1        0.0000
     22 H         -11.8595  -58.7367    0.7013 H         1 UNL1        0.0000
     23 H         -15.4724  -58.1445    0.5253 H         1 UNL1        0.0000
     24 H         -14.5760  -58.6120    1.9653 H         1 UNL1        0.0000
     25 H         -15.2865  -60.8753    1.6298 H         1 UNL1        0.0000
     26 H         -14.7463  -62.9922    0.6651 H         1 UNL1        0.0000
     27 H         -12.4069  -61.0991   -2.2107 H         1 UNL1        0.0000
     28 H         -12.9521  -58.9676   -1.2360 H         1 UNL1        0.0000
     29 H         -12.1612  -63.5222   -1.7630 H         1 UNL1        0.0000
     30 H         -14.4422  -64.6034   -0.1266 H         1 UNL1        0.0000
     31 H         -12.7841  -64.4615    0.4067 H         1 UNL1        0.0000
     32 H         -13.1934  -65.5591   -0.8899 H         1 UNL1        0.0000
@<TRIPOS>BOND
     1    1   17 1
     2    1    2 1
     3    1   16 1
     4    1   18 1
     5    2   19 1
     6    2    3 1
     7    2    4 1
     8    3   21 1
     9    3   22 1
    10    3   20 1
    11    4    5 1
    12    4   24 1
    13    4   23 1
    14    5    6 ar
    15    5   10 ar
    16    6    7 ar
    17    6   25 1
    18    7   26 1
    19    7    8 ar
    20    8    9 ar
    21    8   11 1
    22    9   10 ar
    23    9   27 1
    24   10   28 1
    25   11   29 1
    26   11   12 1
    27   11   13 1
    28   12   30 1
    29   12   31 1
    30   12   32 1
    31   13   15 ar
    32   13   14 ar
@<TRIPOS>SUBSTRUCTURE
1 UNL1 1
@<TRIPOS>COMMENT
ibuprofen
PLANTSproteinTorsions
102
4661 41.9984
5386 118.5472
6210 95.3692
5890 226.6707
4461 306.0210
1390 289.2622
2824 20.2089
4339 83.9555
2732 40.2487
4792 86.3310
3407 115.9419
5134 47.4217
6916 136.9063
7370 247.2348
6038 325.5008
7225 135.9226
3592 137.9607
2064 152.9185
2488 145.6777
1253 172.2531
2069 174.3566
2569 71.7220
3058 207.8891
1748 37.6114
1162 136.0263
1509 145.1227
560 27.7923
1627 91.0384
1941 113.6331
3631 245.6673
2381 160.0468
4221 39.1263
4687 104.2595
6983 28.7884
6668 330.0647
7305 231.9136
8693 264.8244
8404 31.1824
9055 99.0336
7052 73.1709
4708 265.0558
2652 229.1607
4332 206.3367
3011 233.4909
2257 89.7623
2778 206.5652
2057 206.8749
192 86.1348
315 334.5620
1085 182.7120
1007 131.6825
1407 167.1984
4816 349.8776
3131 95.1052
4654 256.6847
5144 228.6398
117 318.9088
6 149.4635
259 111.5054
1979 77.1757
2609 222.8208
2623 181.9111
5910 288.8276
5937 2.0750
2062 107.5653
890 171.0050
5008 329.2992
8602 260.8946
8478 51.7713
8300 152.0167
7721 78.4597
8466 173.1187
7852 237.1096
5849 72.4404
6302 139.6425
7439 299.4801
6284 209.2143
6003 185.5430
7165 211.0275
7623 230.6248
8158 138.2506
8667 60.4146
9078 87.6282
8684 154.5220
7666 213.8621
4231 227.6469
1659 221.8970
489 183.5895
238 73.7794
46 285.9008
83 119.6702
254 252.9433
1066 145.2557
2112 187.9521
4047 189.4460
5402 52.8559
2544 313.8231
4670 104.6228
4426 156.3887
5656 101.0494
7040 68.9803
6282 216.4567
PLANTSmolcadARTstart hb
PLANTSmolcadARTstart HB
LINES
PLANTSmolcadARTstart HBCH
LINES
PLANTSmolcadARTstart HB-CHO
LINES
PLANTSmolcadARTend
PLANTSmolcadARTstart HB_WATER
LINES
PLANTSmolcadARTend

PLANTSmolcadARTend

