@<TRIPOS>MOLECULE
ibuprofen_entry_00001_conf_03
32 32 1
SMALL
NO_CHARGES


@<TRIPOS>ATOM
      1 C         -14.5043  -52.5512    2.0498 C.3       1 UNL1        0.0000
      2 C         -13.8266  -53.8829    2.1812 C.3       1 UNL1        0.0000
      3 C         -13.0662  -53.9683    3.4661 C.3       1 UNL1        0.0000
      4 C         -14.8595  -54.9722    2.1048 C.3       1 UNL1        0.0000
      5 C         -14.2542  -56.2561    1.6743 C.ar      1 UNL1        0.0000
      6 C         -13.1000  -56.2211    0.9268 C.ar      1 UNL1        0.0000
      7 C         -12.5077  -57.3782    0.5083 C.ar      1 UNL1        0.0000
      8 C         -13.0542  -58.5975    0.8265 C.ar      1 UNL1        0.0000
      9 C         -14.2057  -58.6448    1.5725 C.ar      1 UNL1        0.0000
     10 C         -14.8018  -57.4752    1.9935 C.ar      1 UNL1        0.0000
     11 C         -12.4361  -59.8602    0.3881 C.3       1 UNL1        0.0000
     12 C         -12.6673  -60.9274    1.4576 C.3       1 UNL1        0.0000
     13 C         -13.1014  -60.2580   -0.8873 C.2       1 UNL1        0.0000
     14 O         -13.2075  -59.4561   -1.8265 O.co2     1 UNL1       -0.5000
     15 O         -13.5934  -61.5267   -1.0019 O.co2     1 UNL1       -0.5000
     16 H         -13.7721  -51.7719    2.1039 H         1 UNL1        0.0000
     17 H         -15.2121  -52.4310    2.8431 H         1 UNL1        0.0000
     18 H         -15.0103  -52.5005    1.1087 H         1 UNL1        0.0000
     19 H         -13.1263  -54.0011    1.3817 H         1 UNL1        0.0000
     20 H         -13.7418  -53.8533    4.2881 H         1 UNL1        0.0000
     21 H         -12.3314  -53.1915    3.4978 H         1 UNL1        0.0000
     22 H         -12.5826  -54.9203    3.5327 H         1 UNL1        0.0000
     23 H         -15.6144  -54.6890    1.4018 H         1 UNL1        0.0000
     24 H         -15.2824  -55.1066    3.0784 H         1 UNL1        0.0000
     25 H         -12.6781  -55.3122    0.6794 H         1 UNL1        0.0000
     26 H         -11.6418  -57.3357   -0.0523 H         1 UNL1        0.0000
     27 H         -14.6251  -59.5552    1.8186 H         1 UNL1        0.0000
     28 H         -15.6676  -57.5148    2.5537 H         1 UNL1        0.0000
     29 H         -11.3822  -59.7489    0.2393 H         1 UNL1        0.0000
     30 H         -13.7183  -61.0498    1.6178 H         1 UNL1        0.0000
     31 H         -12.2006  -60.6224    2.3712 H         1 UNL1        0.0000
     32 H         -12.2443  -61.8547    1.1330 H         1 UNL1        0.0000
@<TRIPOS>BOND
     1    1   17 1
     2    1    2 1
     3    1   16 1
     4    1   18 1
     5    2   19 1
     6    2    3 1
     7    2    4 1
     8    3   21 1
     9    3   22 1
    10    3   20 1
    11    4    5 1
    12    4   24 1
    13    4   23 1
    14    5    6 ar
    15    5   10 ar
    16    6    7 ar
    17    6   25 1
    18    7   26 1
    19    7    8 ar
    20    8    9 ar
    21    8   11 1
    22    9   10 ar
    23    9   27 1
    24   10   28 1
    25   11   29 1
    26   11   12 1
    27   11   13 1
    28   12   30 1
    29   12   31 1
    30   12   32 1
    31   13   15 ar
    32   13   14 ar
@<TRIPOS>SUBSTRUCTURE
1 UNL1 1
@<TRIPOS>COMMENT
ibuprofen
PLANTSproteinTorsions
102
4661 344.4196
5386 42.8866
6210 116.3330
5890 168.1424
4461 18.2542
1390 76.7617
2824 139.4913
4339 16.5163
2732 168.0107
4792 216.0300
3407 3.2214
5134 220.4831
6916 2.1149
7370 207.9234
6038 260.4800
7225 99.8341
3592 149.0593
2064 15.4565
2488 289.8997
1253 134.0127
2069 243.8210
2569 198.5509
3058 104.8467
1748 234.7558
1162 153.6622
1509 57.7617
560 195.5664
1627 168.7760
1941 60.2564
3631 145.2444
2381 94.0447
4221 268.7971
4687 199.4161
6983 191.3763
6668 110.6146
7305 144.2913
8693 64.4423
8404 115.7892
9055 272.8997
7052 75.9566
4708 215.9571
2652 49.9434
4332 90.5528
3011 34.8169
2257 201.8678
2778 106.3831
2057 30.3672
192 109.9007
315 239.1871
1085 211.3463
1007 20.7344
1407 236.8711
4816 290.4416
3131 235.9967
4654 206.6367
5144 217.5736
117 23.6973
6 180.9182
259 326.2772
1979 316.8110
2609 162.6153
2623 274.6520
5910 347.0531
5937 132.6436
2062 135.9296
890 226.0553
5008 298.1624
8602 85.1026
8478 266.4475
8300 263.3731
7721 159.9510
8466 235.8588
7852 88.7302
5849 68.2692
6302 27.7952
7439 90.6901
6284 340.7014
6003 189.9565
7165 48.0777
7623 254.1754
8158 286.4357
8667 199.1819
9078 185.5723
8684 36.3110
7666 139.6241
4231 108.1995
1659 252.7144
489 171.5592
238 298.1389
46 220.0795
83 276.1094
254 269.7064
1066 275.7009
2112 247.4948
4047 231.5326
5402 228.9674
2544 260.9584
4670 137.8858
4426 194.1165
5656 183.2728
7040 65.9542
6282 228.7115
PLANTSmolcadARTstart hb
PLANTSmolcadARTstart HB
LINES
-13.2075 -59.4561 -1.82647 -11.654 -59.599 -3.055 0 255 0 5
PLANTSmolcadARTstart HBCH
LINES
PLANTSmolcadARTstart HB-CHO
LINES
PLANTSmolcadARTend
PLANTSmolcadARTstart HB_WATER
LINES
PLANTSmolcadARTend

PLANTSmolcadARTend

