@<TRIPOS>MOLECULE
ibuprofen_entry_00001_conf_99
32 32 1
SMALL
NO_CHARGES


@<TRIPOS>ATOM
      1 C         -12.4825  -60.1006  -11.5257 C.3       1 UNL1        0.0000
      2 C         -13.1622  -60.0661  -10.1890 C.3       1 UNL1        0.0000
      3 C         -13.4864  -58.6608   -9.7931 C.3       1 UNL1        0.0000
      4 C         -14.4114  -60.9000  -10.2486 C.3       1 UNL1        0.0000
      5 C         -14.1019  -62.3045  -10.6116 C.ar      1 UNL1        0.0000
      6 C         -14.6452  -62.8208  -11.7650 C.ar      1 UNL1        0.0000
      7 C         -14.3879  -64.1089  -12.1385 C.ar      1 UNL1        0.0000
      8 C         -13.5818  -64.9116  -11.3688 C.ar      1 UNL1        0.0000
      9 C         -13.0334  -64.4070  -10.2159 C.ar      1 UNL1        0.0000
     10 C         -13.2951  -63.1065   -9.8409 C.ar      1 UNL1        0.0000
     11 C         -13.2880  -66.3038  -11.7484 C.3       1 UNL1        0.0000
     12 C         -14.5943  -67.0088  -12.1127 C.3       1 UNL1        0.0000
     13 C         -12.3816  -66.2566  -12.9331 C.2       1 UNL1        0.0000
     14 O         -11.4111  -67.0225  -13.0225 O.co2     1 UNL1       -0.5000
     15 O         -12.6412  -65.3507  -13.9214 O.co2     1 UNL1       -0.5000
     16 H         -11.5919  -59.5075  -11.4879 H         1 UNL1        0.0000
     17 H         -13.1413  -59.7075  -12.2714 H         1 UNL1        0.0000
     18 H         -12.2284  -61.1106  -11.7699 H         1 UNL1        0.0000
     19 H         -12.5027  -60.4673   -9.4489 H         1 UNL1        0.0000
     20 H         -14.1472  -58.2304  -10.5166 H         1 UNL1        0.0000
     21 H         -12.5851  -58.0863   -9.7479 H         1 UNL1        0.0000
     22 H         -13.9592  -58.6598   -8.8334 H         1 UNL1        0.0000
     23 H         -15.0721  -60.4874  -10.9818 H         1 UNL1        0.0000
     24 H         -14.8695  -60.8931   -9.2817 H         1 UNL1        0.0000
     25 H         -15.2535  -62.2297  -12.3531 H         1 UNL1        0.0000
     26 H         -14.8032  -64.4822  -13.0068 H         1 UNL1        0.0000
     27 H         -12.4253  -65.0005   -9.6299 H         1 UNL1        0.0000
     28 H         -12.8815  -62.7308   -8.9732 H         1 UNL1        0.0000
     29 H         -12.8240  -66.8385  -10.9458 H         1 UNL1        0.0000
     30 H         -15.0705  -66.4845  -12.9150 H         1 UNL1        0.0000
     31 H         -15.2417  -67.0206  -11.2606 H         1 UNL1        0.0000
     32 H         -14.3848  -68.0130  -12.4158 H         1 UNL1        0.0000
@<TRIPOS>BOND
     1    1   17 1
     2    1    2 1
     3    1   16 1
     4    1   18 1
     5    2   19 1
     6    2    3 1
     7    2    4 1
     8    3   21 1
     9    3   22 1
    10    3   20 1
    11    4    5 1
    12    4   24 1
    13    4   23 1
    14    5    6 ar
    15    5   10 ar
    16    6    7 ar
    17    6   25 1
    18    7   26 1
    19    7    8 ar
    20    8    9 ar
    21    8   11 1
    22    9   10 ar
    23    9   27 1
    24   10   28 1
    25   11   29 1
    26   11   12 1
    27   11   13 1
    28   12   30 1
    29   12   31 1
    30   12   32 1
    31   13   15 ar
    32   13   14 ar
@<TRIPOS>SUBSTRUCTURE
1 UNL1 1
@<TRIPOS>COMMENT
ibuprofen
PLANTSproteinTorsions
102
4661 18.4082
5386 182.9579
6210 320.5571
5890 179.2664
4461 4.4172
1390 269.5387
2824 7.1787
4339 143.7316
2732 30.1741
4792 330.8795
3407 193.3834
5134 16.0845
6916 74.8098
7370 240.5493
6038 347.9749
7225 206.1387
3592 176.9722
2064 5.8210
2488 18.6907
1253 186.5749
2069 188.4763
2569 28.2543
3058 52.2025
1748 10.1749
1162 0.1871
1509 126.1973
560 171.1860
1627 182.1936
1941 120.0900
3631 277.6207
2381 152.2035
4221 321.2671
4687 106.3463
6983 4.4138
6668 23.5017
7305 0.5945
8693 13.6937
8404 8.7949
9055 305.4129
7052 87.1466
4708 170.2389
2652 124.3340
4332 202.4224
3011 93.5498
2257 215.8961
2778 21.9977
2057 254.3042
192 143.3164
315 187.3928
1085 213.4901
1007 137.6187
1407 284.9456
4816 230.6990
3131 88.7775
4654 268.7757
5144 219.9090
117 218.4538
6 135.7896
259 321.2524
1979 128.2089
2609 266.5504
2623 169.3202
5910 75.4490
5937 52.5987
2062 296.8152
890 57.8635
5008 79.0061
8602 324.5816
8478 119.3051
8300 250.4146
7721 78.4321
8466 169.3946
7852 103.4200
5849 102.5732
6302 260.5165
7439 295.7755
6284 234.5763
6003 194.6907
7165 214.1270
7623 85.2684
8158 167.4183
8667 210.6938
9078 271.7907
8684 149.9574
7666 45.0459
4231 17.9934
1659 216.1153
489 253.2210
238 223.3673
46 335.5591
83 18.5810
254 178.7079
1066 256.5869
2112 208.9557
4047 256.0225
5402 13.8272
2544 246.0652
4670 352.2467
4426 119.4307
5656 220.3314
7040 21.1152
6282 179.7014
PLANTSmolcadARTstart hb
PLANTSmolcadARTstart HB
LINES
PLANTSmolcadARTstart HBCH
LINES
PLANTSmolcadARTstart HB-CHO
LINES
PLANTSmolcadARTend
PLANTSmolcadARTstart HB_WATER
LINES
PLANTSmolcadARTend

PLANTSmolcadARTend

