@<TRIPOS>MOLECULE
ibuprofen_entry_00001_conf_57
32 32 1
SMALL
NO_CHARGES


@<TRIPOS>ATOM
      1 C         -13.9362  -61.1830   -3.6548 C.3       1 UNL1        0.0000
      2 C         -14.1096  -60.1839   -2.5494 C.3       1 UNL1        0.0000
      3 C         -12.7864  -59.6463   -2.1059 C.3       1 UNL1        0.0000
      4 C         -14.9999  -59.0703   -3.0257 C.3       1 UNL1        0.0000
      5 C         -14.9974  -57.9357   -2.0703 C.ar      1 UNL1        0.0000
      6 C         -15.1200  -56.6584   -2.5658 C.ar      1 UNL1        0.0000
      7 C         -15.1223  -55.5834   -1.7236 C.ar      1 UNL1        0.0000
      8 C         -15.0023  -55.7590   -0.3667 C.ar      1 UNL1        0.0000
      9 C         -14.8799  -57.0292    0.1394 C.ar      1 UNL1        0.0000
     10 C         -14.8774  -58.1126   -0.7130 C.ar      1 UNL1        0.0000
     11 C         -15.0020  -54.6175    0.5638 C.3       1 UNL1        0.0000
     12 C         -15.5866  -55.0646    1.9034 C.3       1 UNL1        0.0000
     13 C         -13.5825  -54.1912    0.7391 C.2       1 UNL1        0.0000
     14 O         -12.6527  -54.8724    0.2832 O.co2     1 UNL1       -0.5000
     15 O         -13.3247  -53.0322    1.4138 O.co2     1 UNL1       -0.5000
     16 H         -13.3022  -61.9783   -3.3200 H         1 UNL1        0.0000
     17 H         -13.4908  -60.7045   -4.5018 H         1 UNL1        0.0000
     18 H         -14.8909  -61.5794   -3.9295 H         1 UNL1        0.0000
     19 H         -14.5622  -60.6652   -1.7086 H         1 UNL1        0.0000
     20 H         -12.3071  -59.1569   -2.9281 H         1 UNL1        0.0000
     21 H         -12.1713  -60.4516   -1.7631 H         1 UNL1        0.0000
     22 H         -12.9336  -58.9458   -1.3107 H         1 UNL1        0.0000
     23 H         -15.9986  -59.4402   -3.1259 H         1 UNL1        0.0000
     24 H         -14.6309  -58.7211   -3.9673 H         1 UNL1        0.0000
     25 H         -15.2103  -56.5109   -3.5833 H         1 UNL1        0.0000
     26 H         -15.2150  -54.6308   -2.1106 H         1 UNL1        0.0000
     27 H         -14.7899  -57.1735    1.1575 H         1 UNL1        0.0000
     28 H         -14.7846  -59.0660   -0.3288 H         1 UNL1        0.0000
     29 H         -15.5905  -53.8065    0.1882 H         1 UNL1        0.0000
     30 H         -15.0077  -55.8766    2.2917 H         1 UNL1        0.0000
     31 H         -16.5982  -55.3839    1.7612 H         1 UNL1        0.0000
     32 H         -15.5640  -54.2470    2.5928 H         1 UNL1        0.0000
@<TRIPOS>BOND
     1    1   17 1
     2    1    2 1
     3    1   16 1
     4    1   18 1
     5    2   19 1
     6    2    3 1
     7    2    4 1
     8    3   21 1
     9    3   22 1
    10    3   20 1
    11    4    5 1
    12    4   24 1
    13    4   23 1
    14    5    6 ar
    15    5   10 ar
    16    6    7 ar
    17    6   25 1
    18    7   26 1
    19    7    8 ar
    20    8    9 ar
    21    8   11 1
    22    9   10 ar
    23    9   27 1
    24   10   28 1
    25   11   29 1
    26   11   12 1
    27   11   13 1
    28   12   30 1
    29   12   31 1
    30   12   32 1
    31   13   15 ar
    32   13   14 ar
@<TRIPOS>SUBSTRUCTURE
1 UNL1 1
@<TRIPOS>COMMENT
ibuprofen
PLANTSproteinTorsions
102
4661 301.9107
5386 61.1711
6210 63.7225
5890 92.2800
4461 258.2209
1390 71.8527
2824 185.2771
4339 86.6322
2732 95.9325
4792 133.3275
3407 21.6926
5134 114.4106
6916 354.1858
7370 195.0709
6038 256.1725
7225 260.5937
3592 144.7383
2064 83.4986
2488 59.5879
1253 260.9993
2069 119.9005
2569 84.3966
3058 138.4507
1748 162.6082
1162 169.1248
1509 291.5601
560 311.2213
1627 41.3334
1941 297.6816
3631 114.5083
2381 121.2560
4221 149.7605
4687 28.3135
6983 351.8714
6668 46.4343
7305 213.6691
8693 337.6960
8404 29.5579
9055 148.4043
7052 287.6673
4708 88.6934
2652 109.0235
4332 174.4139
3011 105.7729
2257 52.7063
2778 216.9051
2057 109.3989
192 124.5750
315 168.1543
1085 131.4892
1007 237.0202
1407 94.5695
4816 141.4623
3131 158.1134
4654 151.4540
5144 161.8510
117 278.8518
6 179.2762
259 187.3215
1979 142.3866
2609 307.5521
2623 208.6843
5910 195.0889
5937 237.7703
2062 266.6405
890 38.3265
5008 271.2953
8602 87.9118
8478 237.7100
8300 226.7789
7721 35.6262
8466 257.9426
7852 256.7353
5849 106.3828
6302 143.1181
7439 203.3509
6284 277.1210
6003 190.7012
7165 240.3424
7623 120.6812
8158 231.9932
8667 83.7836
9078 254.5427
8684 304.6785
7666 85.4725
4231 272.7675
1659 161.9669
489 28.3801
238 119.2352
46 22.7770
83 242.5777
254 163.9594
1066 326.9385
2112 39.1075
4047 295.8501
5402 125.6278
2544 185.6086
4670 169.0600
4426 189.0352
5656 168.8180
7040 231.7739
6282 244.7237
PLANTSmolcadARTstart hb
PLANTSmolcadARTstart HB
LINES
-13.3247 -53.0322 1.41377 -13.532 -51.995 -0.043 0 255 0 5
PLANTSmolcadARTstart HBCH
LINES
PLANTSmolcadARTstart HB-CHO
LINES
PLANTSmolcadARTend
PLANTSmolcadARTstart HB_WATER
LINES
PLANTSmolcadARTend

PLANTSmolcadARTend

