@<TRIPOS>MOLECULE
ibuprofen_entry_00001_conf_65
32 32 1
SMALL
NO_CHARGES


@<TRIPOS>ATOM
      1 C         -14.0395  -56.8193    1.6303 C.3       1 UNL1        0.0000
      2 C         -14.3814  -57.9647    0.7242 C.3       1 UNL1        0.0000
      3 C         -15.0963  -57.4818   -0.4973 C.3       1 UNL1        0.0000
      4 C         -13.1196  -58.6891    0.3464 C.3       1 UNL1        0.0000
      5 C         -13.4209  -59.9732   -0.3322 C.ar      1 UNL1        0.0000
      6 C         -13.8142  -59.9441   -1.6501 C.ar      1 UNL1        0.0000
      7 C         -14.1021  -61.1015   -2.3151 C.ar      1 UNL1        0.0000
      8 C         -14.0039  -62.3152   -1.6796 C.ar      1 UNL1        0.0000
      9 C         -13.6117  -62.3566   -0.3646 C.ar      1 UNL1        0.0000
     10 C         -13.3220  -61.1867    0.3046 C.ar      1 UNL1        0.0000
     11 C         -14.3083  -63.5782   -2.3730 C.3       1 UNL1        0.0000
     12 C         -14.2300  -63.3510   -3.8825 C.3       1 UNL1        0.0000
     13 C         -13.2802  -64.5736   -1.9491 C.2       1 UNL1        0.0000
     14 O         -13.3236  -65.0932   -0.8245 O.co2     1 UNL1       -0.5000
     15 O         -12.2865  -64.9034   -2.8257 O.co2     1 UNL1       -0.5000
     16 H         -14.9356  -56.3001    1.9019 H         1 UNL1        0.0000
     17 H         -13.3783  -56.1481    1.1232 H         1 UNL1        0.0000
     18 H         -13.5624  -57.1928    2.5118 H         1 UNL1        0.0000
     19 H         -15.0357  -58.6364    1.2384 H         1 UNL1        0.0000
     20 H         -14.4652  -56.8054   -1.0354 H         1 UNL1        0.0000
     21 H         -15.9945  -56.9774   -0.2086 H         1 UNL1        0.0000
     22 H         -15.3400  -58.3154   -1.1221 H         1 UNL1        0.0000
     23 H         -12.5519  -58.8865    1.2313 H         1 UNL1        0.0000
     24 H         -12.5639  -58.0717   -0.3281 H         1 UNL1        0.0000
     25 H         -13.8932  -59.0394   -2.1405 H         1 UNL1        0.0000
     26 H         -14.3963  -61.0635   -3.3039 H         1 UNL1        0.0000
     27 H         -13.5334  -63.2629    0.1232 H         1 UNL1        0.0000
     28 H         -13.0280  -61.2217    1.2932 H         1 UNL1        0.0000
     29 H         -15.2895  -63.9305   -2.1314 H         1 UNL1        0.0000
     30 H         -13.2531  -62.9977   -4.1395 H         1 UNL1        0.0000
     31 H         -14.9597  -62.6231   -4.1709 H         1 UNL1        0.0000
     32 H         -14.4233  -64.2715   -4.3919 H         1 UNL1        0.0000
@<TRIPOS>BOND
     1    1   17 1
     2    1    2 1
     3    1   16 1
     4    1   18 1
     5    2   19 1
     6    2    3 1
     7    2    4 1
     8    3   21 1
     9    3   22 1
    10    3   20 1
    11    4    5 1
    12    4   24 1
    13    4   23 1
    14    5    6 ar
    15    5   10 ar
    16    6    7 ar
    17    6   25 1
    18    7   26 1
    19    7    8 ar
    20    8    9 ar
    21    8   11 1
    22    9   10 ar
    23    9   27 1
    24   10   28 1
    25   11   29 1
    26   11   12 1
    27   11   13 1
    28   12   30 1
    29   12   31 1
    30   12   32 1
    31   13   15 ar
    32   13   14 ar
@<TRIPOS>SUBSTRUCTURE
1 UNL1 1
@<TRIPOS>COMMENT
ibuprofen
PLANTSproteinTorsions
102
4661 220.4713
5386 182.0808
6210 172.5551
5890 134.7532
4461 44.9197
1390 172.3049
2824 31.7419
4339 39.8565
2732 211.5532
4792 116.5537
3407 261.5942
5134 155.4906
6916 261.6216
7370 104.3038
6038 207.5228
7225 2.2497
3592 165.2663
2064 294.4626
2488 14.2093
1253 180.2856
2069 207.5181
2569 355.5738
3058 305.0128
1748 109.8317
1162 122.3656
1509 23.0294
560 171.3684
1627 337.9203
1941 174.5385
3631 199.8484
2381 214.4931
4221 125.3271
4687 186.7171
6983 70.2338
6668 70.9244
7305 52.0292
8693 92.1839
8404 319.8876
9055 102.1154
7052 143.2019
4708 268.8003
2652 322.4424
4332 145.2062
3011 63.5417
2257 318.3397
2778 176.8301
2057 344.6510
192 7.0881
315 47.8502
1085 283.3851
1007 185.4595
1407 216.0486
4816 180.8855
3131 247.0563
4654 297.5017
5144 41.1686
117 9.0170
6 146.2449
259 167.5077
1979 275.3386
2609 254.0062
2623 189.1695
5910 115.8152
5937 255.0645
2062 244.4239
890 178.7647
5008 47.8522
8602 23.8000
8478 14.0638
8300 217.2300
7721 65.8044
8466 85.4185
7852 289.8950
5849 202.2507
6302 199.0559
7439 138.2952
6284 311.8198
6003 136.3235
7165 310.3722
7623 268.5417
8158 302.2333
8667 156.3283
9078 271.7188
8684 12.3074
7666 166.9171
4231 109.2162
1659 198.1555
489 105.1453
238 191.8823
46 317.7796
83 69.8543
254 116.2845
1066 126.8930
2112 149.5181
4047 256.7589
5402 226.6795
2544 118.9565
4670 127.7751
4426 32.6017
5656 0.2724
7040 91.5481
6282 171.1576
PLANTSmolcadARTstart hb
PLANTSmolcadARTstart HB
LINES
PLANTSmolcadARTstart HBCH
LINES
PLANTSmolcadARTstart HB-CHO
LINES
PLANTSmolcadARTend
PLANTSmolcadARTstart HB_WATER
LINES
PLANTSmolcadARTend

PLANTSmolcadARTend

