@<TRIPOS>MOLECULE
ibuprofen_entry_00001_conf_91
32 32 1
SMALL
NO_CHARGES


@<TRIPOS>ATOM
      1 C         -28.5110  -17.9690   -1.8313 C.3       1 UNL1        0.0000
      2 C         -29.2213  -18.5077   -3.0377 C.3       1 UNL1        0.0000
      3 C         -29.8070  -19.8540   -2.7532 C.3       1 UNL1        0.0000
      4 C         -30.2953  -17.5406   -3.4510 C.3       1 UNL1        0.0000
      5 C         -30.9703  -17.9877   -4.6938 C.ar      1 UNL1        0.0000
      6 C         -30.3181  -17.8201   -5.8933 C.ar      1 UNL1        0.0000
      7 C         -30.9012  -18.2165   -7.0627 C.ar      1 UNL1        0.0000
      8 C         -32.1493  -18.7898   -7.0617 C.ar      1 UNL1        0.0000
      9 C         -32.8096  -18.9626   -5.8706 C.ar      1 UNL1        0.0000
     10 C         -32.2189  -18.5612   -4.6915 C.ar      1 UNL1        0.0000
     11 C         -32.8009  -19.2262   -8.3082 C.3       1 UNL1        0.0000
     12 C         -33.2997  -17.9975   -9.0682 C.3       1 UNL1        0.0000
     13 C         -31.7728  -19.9472   -9.1149 C.2       1 UNL1        0.0000
     14 O         -31.8749  -21.1626   -9.3356 O.co2     1 UNL1       -0.5000
     15 O         -30.7129  -19.2412   -9.6077 O.co2     1 UNL1       -0.5000
     16 H         -27.7449  -18.6550   -1.5331 H         1 UNL1        0.0000
     17 H         -29.2102  -17.8455   -1.0309 H         1 UNL1        0.0000
     18 H         -28.0704  -17.0239   -2.0700 H         1 UNL1        0.0000
     19 H         -28.5198  -18.6217   -3.8367 H         1 UNL1        0.0000
     20 H         -30.5155  -19.7728   -1.9553 H         1 UNL1        0.0000
     21 H         -29.0272  -20.5292   -2.4696 H         1 UNL1        0.0000
     22 H         -30.2976  -20.2228   -3.6294 H         1 UNL1        0.0000
     23 H         -29.8549  -16.5803   -3.6188 H         1 UNL1        0.0000
     24 H         -31.0241  -17.4897   -2.6692 H         1 UNL1        0.0000
     25 H         -29.3799  -17.3901   -5.9097 H         1 UNL1        0.0000
     26 H         -30.3992  -18.0839   -7.9551 H         1 UNL1        0.0000
     27 H         -33.7476  -19.3931   -5.8573 H         1 UNL1        0.0000
     28 H         -32.7186  -18.6923   -3.7980 H         1 UNL1        0.0000
     29 H         -33.6350  -19.8668   -8.1100 H         1 UNL1        0.0000
     30 H         -32.4755  -17.3465   -9.2734 H         1 UNL1        0.0000
     31 H         -34.0228  -17.4801   -8.4724 H         1 UNL1        0.0000
     32 H         -33.7500  -18.3059   -9.9881 H         1 UNL1        0.0000
@<TRIPOS>BOND
     1    1   17 1
     2    1    2 1
     3    1   16 1
     4    1   18 1
     5    2   19 1
     6    2    3 1
     7    2    4 1
     8    3   21 1
     9    3   22 1
    10    3   20 1
    11    4    5 1
    12    4   24 1
    13    4   23 1
    14    5    6 ar
    15    5   10 ar
    16    6    7 ar
    17    6   25 1
    18    7   26 1
    19    7    8 ar
    20    8    9 ar
    21    8   11 1
    22    9   10 ar
    23    9   27 1
    24   10   28 1
    25   11   29 1
    26   11   12 1
    27   11   13 1
    28   12   30 1
    29   12   31 1
    30   12   32 1
    31   13   15 ar
    32   13   14 ar
@<TRIPOS>SUBSTRUCTURE
1 UNL1 1
@<TRIPOS>COMMENT
ibuprofen
PLANTSproteinTorsions
102
4661 40.6688
5386 142.5125
6210 180.7440
5890 144.3183
4461 54.7698
1390 45.7952
2824 204.6611
4339 101.1338
2732 166.1228
4792 96.4554
3407 151.7604
5134 202.7792
6916 261.3675
7370 115.1097
6038 224.9877
7225 214.5950
3592 84.2154
2064 254.2069
2488 83.7002
1253 110.4435
2069 74.0985
2569 187.7043
3058 24.7602
1748 103.6904
1162 124.3460
1509 94.8912
560 154.8563
1627 68.4254
1941 144.7955
3631 168.0458
2381 346.4422
4221 188.8721
4687 213.1879
6983 92.6105
6668 88.8388
7305 39.0550
8693 96.4648
8404 103.4329
9055 173.2212
7052 86.9013
4708 172.3744
2652 97.6747
4332 67.7274
3011 56.3403
2257 236.7328
2778 94.3707
2057 199.4281
192 18.4965
315 318.4808
1085 321.5283
1007 65.5351
1407 41.8471
4816 259.8289
3131 357.0869
4654 238.9140
5144 286.6362
117 333.4601
6 283.7099
259 268.7620
1979 357.5610
2609 249.7504
2623 129.1082
5910 191.2673
5937 136.1527
2062 87.8651
890 330.4987
5008 221.4216
8602 224.0705
8478 241.7273
8300 92.5016
7721 86.0182
8466 63.6045
7852 36.9277
5849 310.3517
6302 305.8009
7439 162.3889
6284 240.5186
6003 343.3222
7165 177.5158
7623 105.0399
8158 135.0553
8667 112.3118
9078 240.5430
8684 260.6326
7666 136.1165
4231 218.5590
1659 97.5801
489 248.6067
238 148.2786
46 12.4931
83 267.0521
254 192.1195
1066 217.5158
2112 285.3940
4047 157.5682
5402 200.1360
2544 125.6430
4670 235.7684
4426 218.5225
5656 217.8194
7040 51.1580
6282 260.1877
PLANTSmolcadARTstart hb
PLANTSmolcadARTstart HB
LINES
PLANTSmolcadARTstart HBCH
LINES
PLANTSmolcadARTstart HB-CHO
LINES
PLANTSmolcadARTend
PLANTSmolcadARTstart HB_WATER
LINES
PLANTSmolcadARTend

PLANTSmolcadARTend

