@<TRIPOS>MOLECULE
ibuprofen_entry_00001_conf_74
32 32 1
SMALL
NO_CHARGES


@<TRIPOS>ATOM
      1 C         -13.4904  -63.1250   -8.8624 C.3       1 UNL1        0.0000
      2 C         -13.5211  -61.8111   -9.5855 C.3       1 UNL1        0.0000
      3 C         -14.1300  -61.9648  -10.9427 C.3       1 UNL1        0.0000
      4 C         -14.2961  -60.8158   -8.7680 C.3       1 UNL1        0.0000
      5 C         -14.2876  -59.4762   -9.4049 C.ar      1 UNL1        0.0000
      6 C         -15.2708  -58.5779   -9.0602 C.ar      1 UNL1        0.0000
      7 C         -15.3027  -57.3333   -9.6212 C.ar      1 UNL1        0.0000
      8 C         -14.3534  -56.9565  -10.5396 C.ar      1 UNL1        0.0000
      9 C         -13.3670  -57.8444  -10.8909 C.ar      1 UNL1        0.0000
     10 C         -13.3373  -59.1004  -10.3234 C.ar      1 UNL1        0.0000
     11 C         -14.3644  -55.6208  -11.1597 C.3       1 UNL1        0.0000
     12 C         -12.9237  -55.1557  -11.3703 C.3       1 UNL1        0.0000
     13 C         -15.0602  -55.7498  -12.4738 C.2       1 UNL1        0.0000
     14 O         -15.5324  -56.8359  -12.8397 O.co2     1 UNL1       -0.5000
     15 O         -15.1678  -54.6453  -13.2696 O.co2     1 UNL1       -0.5000
     16 H         -12.9393  -63.8374   -9.4414 H         1 UNL1        0.0000
     17 H         -14.4904  -63.4779   -8.7207 H         1 UNL1        0.0000
     18 H         -13.0185  -62.9969   -7.9111 H         1 UNL1        0.0000
     19 H         -12.5199  -61.4591   -9.7174 H         1 UNL1        0.0000
     20 H         -15.1358  -62.3169  -10.8441 H         1 UNL1        0.0000
     21 H         -13.5602  -62.6696  -11.5112 H         1 UNL1        0.0000
     22 H         -14.1308  -61.0194  -11.4434 H         1 UNL1        0.0000
     23 H         -13.8552  -60.7432   -7.7961 H         1 UNL1        0.0000
     24 H         -15.3097  -61.1512   -8.6982 H         1 UNL1        0.0000
     25 H         -15.9912  -58.8472   -8.3720 H         1 UNL1        0.0000
     26 H         -16.0470  -56.6702   -9.3526 H         1 UNL1        0.0000
     27 H         -12.6477  -57.5722  -11.5793 H         1 UNL1        0.0000
     28 H         -12.5946  -59.7653  -10.5903 H         1 UNL1        0.0000
     29 H         -14.8667  -54.9065  -10.5411 H         1 UNL1        0.0000
     30 H         -12.4080  -55.8614  -11.9878 H         1 UNL1        0.0000
     31 H         -12.4310  -55.0841  -10.4229 H         1 UNL1        0.0000
     32 H         -12.9244  -54.1975  -11.8456 H         1 UNL1        0.0000
@<TRIPOS>BOND
     1    1   17 1
     2    1    2 1
     3    1   16 1
     4    1   18 1
     5    2   19 1
     6    2    3 1
     7    2    4 1
     8    3   21 1
     9    3   22 1
    10    3   20 1
    11    4    5 1
    12    4   24 1
    13    4   23 1
    14    5    6 ar
    15    5   10 ar
    16    6    7 ar
    17    6   25 1
    18    7   26 1
    19    7    8 ar
    20    8    9 ar
    21    8   11 1
    22    9   10 ar
    23    9   27 1
    24   10   28 1
    25   11   29 1
    26   11   12 1
    27   11   13 1
    28   12   30 1
    29   12   31 1
    30   12   32 1
    31   13   15 ar
    32   13   14 ar
@<TRIPOS>SUBSTRUCTURE
1 UNL1 1
@<TRIPOS>COMMENT
ibuprofen
PLANTSproteinTorsions
102
4661 97.9670
5386 121.8832
6210 25.0164
5890 297.3596
4461 16.1481
1390 78.5607
2824 111.5655
4339 41.8998
2732 122.8828
4792 42.7802
3407 318.6977
5134 84.0425
6916 33.8832
7370 318.1218
6038 232.6975
7225 1.9790
3592 191.8523
2064 2.7776
2488 122.2546
1253 105.8807
2069 62.9064
2569 95.7671
3058 221.1685
1748 268.0338
1162 133.1438
1509 355.6689
560 245.9014
1627 0.7241
1941 94.4596
3631 36.5133
2381 26.1037
4221 170.6037
4687 329.5070
6983 99.9471
6668 95.6240
7305 294.0362
8693 111.0980
8404 90.3362
9055 22.9328
7052 153.5899
4708 202.5971
2652 93.3360
4332 86.9795
3011 68.5874
2257 358.0708
2778 196.7966
2057 104.9917
192 77.2440
315 159.6617
1085 210.4829
1007 226.0409
1407 139.7066
4816 188.7031
3131 324.5032
4654 227.4207
5144 156.2190
117 220.5239
6 262.2007
259 142.1682
1979 342.1359
2609 220.3388
2623 16.7411
5910 269.0825
5937 165.6847
2062 116.9308
890 82.4761
5008 262.9407
8602 233.1275
8478 155.6190
8300 216.9592
7721 116.5247
8466 80.1635
7852 102.9151
5849 92.1327
6302 118.8991
7439 78.1774
6284 67.6011
6003 122.4001
7165 143.4335
7623 141.7680
8158 237.6175
8667 59.1896
9078 173.7542
8684 168.8608
7666 103.1943
4231 153.0971
1659 151.5343
489 260.9506
238 245.3494
46 152.8849
83 167.7272
254 184.0872
1066 165.8908
2112 153.5548
4047 222.6313
5402 237.1440
2544 322.9430
4670 172.8842
4426 66.3967
5656 178.6046
7040 264.5981
6282 305.3637
PLANTSmolcadARTstart hb
PLANTSmolcadARTstart HB
LINES
PLANTSmolcadARTstart HBCH
LINES
PLANTSmolcadARTstart HB-CHO
LINES
PLANTSmolcadARTend
PLANTSmolcadARTstart HB_WATER
LINES
PLANTSmolcadARTend

PLANTSmolcadARTend

