MODEL 1
REMARK VINA RESULT:      -7.0      0.000      0.000
REMARK  4 active torsions:
REMARK  status: ('A' for Active; 'I' for Inactive)
REMARK    1  A    between atoms: C_2  and  C_4 
REMARK    2  A    between atoms: C_4  and  C_5 
REMARK    3  A    between atoms: C_8  and  C_11 
REMARK    4  A    between atoms: C_11  and  C_13 
ROOT
HETATM    1  C   UNL     1     -32.745 -42.794   4.344  1.00  0.00    -0.058 A 
HETATM    2  C   UNL     1     -32.963 -43.645   3.286  1.00  0.00     0.007 A 
HETATM    3  C   UNL     1     -33.675 -44.798   3.456  1.00  0.00     0.008 A 
HETATM    4  C   UNL     1     -34.186 -45.128   4.687  1.00  0.00    -0.044 A 
HETATM    5  C   UNL     1     -33.974 -44.287   5.751  1.00  0.00     0.008 A 
HETATM    6  C   UNL     1     -33.256 -43.123   5.577  1.00  0.00     0.007 A 
ENDROOT
BRANCH   4   7
HETATM    7  C   UNL     1     -34.957 -46.365   4.898  1.00  0.00     0.115 C 
HETATM    8  C   UNL     1     -35.995 -46.502   3.785  1.00  0.00     0.026 C 
BRANCH   7   9
HETATM    9  C   UNL     1     -33.992 -47.502   4.844  1.00  0.00     0.181 C 
HETATM   10  O   UNL     1     -33.176 -47.687   5.758  1.00  0.00    -0.647 OA
HETATM   11  O   UNL     1     -34.024 -48.338   3.765  1.00  0.00    -0.647 OA
ENDBRANCH   7   9
ENDBRANCH   4   7
BRANCH   1  12
HETATM   12  C   UNL     1     -31.966 -41.554   4.109  1.00  0.00     0.042 C 
BRANCH  12  13
HETATM   13  C   UNL     1     -32.645 -40.668   3.103  1.00  0.00    -0.019 C 
HETATM   14  C   UNL     1     -32.911 -39.329   3.726  1.00  0.00     0.010 C 
HETATM   15  C   UNL     1     -31.805 -40.526   1.874  1.00  0.00     0.010 C 
ENDBRANCH  12  13
ENDBRANCH   1  12
TORSDOF 4
ENDMDL
