REMARK  4 active torsions:
REMARK  status: ('A' for Active; 'I' for Inactive)
REMARK       I    between atoms: N_1  and  C_17 
REMARK       I    between atoms: N_2  and  C_22 
REMARK    1  A    between atoms: C_12  and  C_13 
REMARK    2  A    between atoms: C_13  and  C_14 
REMARK    3  A    between atoms: C_16  and  C_17 
REMARK    4  A    between atoms: C_22  and  C_23 
ROOT
HETATM    1  C   UNL     1       2.161   0.029  -0.859  1.00  0.00    -0.051 A 
HETATM    2  C   UNL     1       1.186  -0.584  -0.052  1.00  0.00     0.027 A 
HETATM    3  C   UNL     1       0.090   0.135   0.361  1.00  0.00     0.071 A 
HETATM    4  C   UNL     1      -0.118   1.452   0.026  1.00  0.00     0.132 A 
HETATM    5  C   UNL     1       0.837   2.051  -0.764  1.00  0.00     0.044 A 
HETATM    6  C   UNL     1       1.956   1.320  -1.188  1.00  0.00     0.010 A 
HETATM    7  F   UNL     1      -1.224   2.123   0.461  1.00  0.00    -0.205 F 
ENDROOT
BRANCH   1   8
HETATM    8  C   UNL     1       3.301  -0.841  -1.260  1.00  0.00     0.100 C 
BRANCH   8   9
HETATM    9  C   UNL     1       4.306  -0.887  -0.206  1.00  0.00     0.070 A 
HETATM   10  N   UNL     1       4.183  -1.909   0.696  1.00  0.00    -0.175 NA
HETATM   11  N   UNL     1       4.994  -2.020   1.720  1.00  0.00    -0.243 N 
HETATM   12  H   UNL     1       4.863  -2.773   2.341  1.00  0.00     0.192 HD
HETATM   13  C   UNL     1       5.992  -1.159   1.964  1.00  0.00     0.272 A 
HETATM   14  C   UNL     1       6.182  -0.101   1.099  1.00  0.00     0.046 A 
HETATM   15  O   UNL     1       6.779  -1.248   2.941  1.00  0.00    -0.266 OA
HETATM   16  C   UNL     1       7.218   0.813   1.295  1.00  0.00     0.018 A 
HETATM   17  C   UNL     1       5.320   0.004   0.023  1.00  0.00     0.006 A 
HETATM   18  C   UNL     1       7.402   1.850   0.406  1.00  0.00     0.001 A 
HETATM   19  C   UNL     1       6.527   1.925  -0.657  1.00  0.00     0.001 A 
HETATM   20  C   UNL     1       5.495   1.025  -0.864  1.00  0.00     0.014 A 
ENDBRANCH   8   9
ENDBRANCH   1   8
BRANCH   3  21
HETATM   21  C   UNL     1      -0.955  -0.483   1.208  1.00  0.00     0.257 C 
HETATM   22  N   UNL     1      -2.056  -1.108   0.566  1.00  0.00    -0.345 N 
HETATM   23  C   UNL     1      -3.081  -1.719   1.349  1.00  0.00     0.146 C 
HETATM   24  C   UNL     1      -2.113  -1.111  -0.884  1.00  0.00     0.146 C 
HETATM   25  C   UNL     1      -4.415  -1.760   0.635  1.00  0.00     0.145 C 
HETATM   26  N   UNL     1      -4.458  -0.695  -0.333  1.00  0.00    -0.349 N 
HETATM   27  C   UNL     1      -3.473  -0.743  -1.419  1.00  0.00     0.145 C 
HETATM   28  C   UNL     1      -5.386   0.348  -0.261  1.00  0.00     0.224 C 
HETATM   29  O   UNL     1      -5.348   1.242  -1.180  1.00  0.00    -0.273 OA
HETATM   30  O   UNL     1      -0.895  -0.470   2.459  1.00  0.00    -0.267 OA
BRANCH  28  31
HETATM   31  C   UNL     1      -6.416   0.542   0.763  1.00  0.00     0.078 A 
HETATM   32  C   UNL     1      -7.778   0.971   0.266  1.00  0.00     0.015 A 
HETATM   33  C   UNL     1      -6.960   1.894   1.056  1.00  0.00     0.015 A 
ENDBRANCH  28  31
ENDBRANCH   3  21
TORSDOF 4
