@<TRIPOS>MOLECULE
Olaparib_entry_00001_conf_71
55 59 1
SMALL
NO_CHARGES


@<TRIPOS>ATOM
      1 N          15.6244  -10.3810   11.6162 N.am      1 UNL1        0.0000
      2 N          16.7697  -12.6965   11.3424 N.am      1 UNL1        0.0000
      3 N          16.7369   -5.4958   16.6711 N.2       1 UNL1        0.0000
      4 N          17.3724   -5.0469   17.7262 N.am      1 UNL1        0.0000
      5 C          17.7924   -3.7796   17.8473 C.2       1 UNL1        0.0000
      6 C          17.5478   -2.8979   16.8146 C.ar      1 UNL1        0.0000
      7 C          17.9808   -1.5730   16.8805 C.ar      1 UNL1        0.0000
      8 C          17.7440   -0.7156   15.8277 C.ar      1 UNL1        0.0000
      9 C          17.0751   -1.2326   14.7385 C.ar      1 UNL1        0.0000
     10 C          16.6401   -2.5450   14.6595 C.ar      1 UNL1        0.0000
     11 C          16.8772   -3.3845   15.7077 C.ar      1 UNL1        0.0000
     12 C          16.4561   -4.6834   15.6061 C.2       1 UNL1        0.0000
     13 C          15.6874   -5.2885   14.5263 C.3       1 UNL1        0.0000
     14 C          16.5027   -6.3087   13.8109 C.ar      1 UNL1        0.0000
     15 C          15.7934   -7.1367   12.9227 C.ar      1 UNL1        0.0000
     16 C          16.4572   -8.1160   12.2234 C.ar      1 UNL1        0.0000
     17 C          15.7380   -9.0056   11.2839 C.2       1 UNL1        0.0000
     18 C          14.9340  -11.2689   10.7376 C.3       1 UNL1        0.0000
     19 C          15.4140  -12.6994   10.8576 C.3       1 UNL1        0.0000
     20 C          16.9975  -12.1330   12.6775 C.3       1 UNL1        0.0000
     21 C          16.2180  -10.8551   12.8526 C.3       1 UNL1        0.0000
     22 C          17.8363  -13.2011   10.5927 C.2       1 UNL1        0.0000
     23 C          17.7724  -13.7791    9.2477 C.3       1 UNL1        0.0000
     24 C          16.6770  -14.7936    9.0093 C.3       1 UNL1        0.0000
     25 C          18.0797  -15.2149    9.0155 C.3       1 UNL1        0.0000
     26 C          17.8082   -8.3423   12.3405 C.ar      1 UNL1        0.0000
     27 C          18.5015   -7.5312   13.2102 C.ar      1 UNL1        0.0000
     28 C          17.8271   -6.5318   13.9261 C.ar      1 UNL1        0.0000
     29 O          18.4020   -3.3302   18.8514 O.2       1 UNL1        0.0000
     30 O          19.0047  -13.1624   11.1204 O.2       1 UNL1        0.0000
     31 O          15.2334   -8.5836   10.2180 O.2       1 UNL1        0.0000
     32 F          18.4216   -9.3288   11.6241 F         1 UNL1        0.0000
     33 H          18.4783   -1.2343   17.7188 H         1 UNL1        0.0000
     34 H          18.0538    0.2676   15.8534 H         1 UNL1        0.0000
     35 H          16.8888   -0.6079   13.9390 H         1 UNL1        0.0000
     36 H          16.1436   -2.8834   13.8202 H         1 UNL1        0.0000
     37 H          15.3907   -4.5272   13.8354 H         1 UNL1        0.0000
     38 H          14.8255   -5.7674   14.9424 H         1 UNL1        0.0000
     39 H          14.7773   -7.0096   12.7967 H         1 UNL1        0.0000
     40 H          15.0848  -10.9400    9.7304 H         1 UNL1        0.0000
     41 H          13.8985  -11.2513   11.0086 H         1 UNL1        0.0000
     42 H          15.3756  -13.1728    9.8991 H         1 UNL1        0.0000
     43 H          14.7862  -13.2366   11.5378 H         1 UNL1        0.0000
     44 H          18.0403  -11.9280   12.8006 H         1 UNL1        0.0000
     45 H          16.6708  -12.8392   13.4120 H         1 UNL1        0.0000
     46 H          16.8788  -10.0999   13.2242 H         1 UNL1        0.0000
     47 H          15.4196  -11.0571   13.5344 H         1 UNL1        0.0000
     48 H          18.1195  -12.8696    8.8043 H         1 UNL1        0.0000
     49 H          16.1260  -14.7807    8.0919 H         1 UNL1        0.0000
     50 H          15.7937  -15.0917    9.5346 H         1 UNL1        0.0000
     51 H          18.5470  -15.5170    8.1015 H         1 UNL1        0.0000
     52 H          18.6339  -15.9562    9.5509 H         1 UNL1        0.0000
     53 H          19.5185   -7.6591   13.3350 H         1 UNL1        0.0000
     54 H          18.3706   -5.9376   14.5720 H         1 UNL1        0.0000
     55 H          17.5495   -5.6716   18.4666 H         1 UNL1        0.0000
@<TRIPOS>BOND
     1    1   18 1
     2    1   21 1
     3    1   17 am
     4    2   19 1
     5    2   20 1
     6    2   22 am
     7    3    4 1
     8    3   12 2
     9    4    5 am
    10    4   55 1
    11    5   29 2
    12    5    6 1
    13    6    7 ar
    14    6   11 ar
    15    7    8 ar
    16    7   33 1
    17    8   34 1
    18    8    9 ar
    19    9   10 ar
    20    9   35 1
    21   10   11 ar
    22   10   36 1
    23   11   12 1
    24   12   13 1
    25   13   37 1
    26   13   38 1
    27   13   14 1
    28   14   15 ar
    29   14   28 ar
    30   15   39 1
    31   15   16 ar
    32   16   26 ar
    33   16   17 1
    34   17   31 2
    35   18   19 1
    36   18   40 1
    37   18   41 1
    38   19   42 1
    39   19   43 1
    40   20   21 1
    41   20   45 1
    42   20   44 1
    43   21   46 1
    44   21   47 1
    45   22   30 2
    46   22   23 1
    47   23   25 1
    48   23   24 1
    49   23   48 1
    50   24   25 1
    51   24   49 1
    52   24   50 1
    53   25   51 1
    54   25   52 1
    55   26   27 ar
    56   26   32 1
    57   27   28 ar
    58   27   53 1
    59   28   54 1
@<TRIPOS>SUBSTRUCTURE
1 UNL1 1
@<TRIPOS>COMMENT
Olaparib
PLANTSproteinTorsions
70
3 318.6290
48 279.0690
123 356.1292
171 31.7476
348 224.7358
606 305.9745
632 334.6978
655 308.6409
678 104.6880
700 127.4437
773 79.0747
807 219.6743
891 169.9449
933 205.1330
999 328.4539
1020 90.4411
1361 215.8390
1371 314.2726
1544 256.2802
1649 52.9281
1689 327.2164
1736 161.8066
1771 23.6153
2012 85.1716
2070 250.5476
2082 223.8439
2147 146.2393
2300 28.9295
2527 247.9694
2551 49.6661
2605 48.2762
2653 30.7069
2739 120.0057
2807 99.5533
2841 50.8114
2875 42.3701
2885 15.3206
2915 59.6074
3074 40.4416
3130 10.6234
3421 81.3281
3586 324.8916
3784 328.2451
3818 61.4311
3881 250.8640
3933 168.0744
4033 129.2535
4046 123.1338
4094 129.1366
4145 205.4162
4208 13.4024
4235 90.4982
4332 161.0798
4568 48.4393
4685 256.7766
4749 48.1708
4805 111.4658
4858 308.9302
4871 60.3371
4945 355.6768
4999 318.6601
5010 199.7512
5106 235.9109
5130 114.1987
5249 340.8553
5258 31.7222
5318 218.4369
5369 266.4483
5589 198.9891
5645 347.2950
PLANTSmolcadARTstart hb
PLANTSmolcadARTstart HB
LINES
18.402 -3.33024 18.8514 18.799 -3.091 20.86 0 255 0 5
PLANTSmolcadARTstart HBCH
LINES
PLANTSmolcadARTstart HB-CHO
LINES
PLANTSmolcadARTend
PLANTSmolcadARTstart HB_WATER
LINES
PLANTSmolcadARTend

PLANTSmolcadARTend

