@<TRIPOS>MOLECULE
Olaparib_entry_00001_conf_98
55 59 1
SMALL
NO_CHARGES


@<TRIPOS>ATOM
      1 N          27.4964  -12.7380   15.7448 N.am      1 UNL1        0.0000
      2 N          25.0934  -13.4454   16.4331 N.am      1 UNL1        0.0000
      3 N          31.9134  -13.8959   20.5987 N.2       1 UNL1        0.0000
      4 N          32.8954  -14.6464   21.0359 N.am      1 UNL1        0.0000
      5 C          32.8335  -15.3464   22.1774 C.2       1 UNL1        0.0000
      6 C          31.6829  -15.2787   22.9357 C.ar      1 UNL1        0.0000
      7 C          31.5731  -15.9714   24.1421 C.ar      1 UNL1        0.0000
      8 C          30.4221  -15.8720   24.8937 C.ar      1 UNL1        0.0000
      9 C          29.4176  -15.0693   24.3959 C.ar      1 UNL1        0.0000
     10 C          29.5130  -14.3761   23.2008 C.ar      1 UNL1        0.0000
     11 C          30.6552  -14.4833   22.4634 C.ar      1 UNL1        0.0000
     12 C          30.7400  -13.7777   21.2932 C.2       1 UNL1        0.0000
     13 C          29.7054  -12.9660   20.6656 C.3       1 UNL1        0.0000
     14 C          30.1358  -12.5255   19.3099 C.ar      1 UNL1        0.0000
     15 C          29.3466  -12.9908   18.2430 C.ar      1 UNL1        0.0000
     16 C          29.6702  -12.6463   16.9525 C.ar      1 UNL1        0.0000
     17 C          28.8612  -13.1231   15.8081 C.2       1 UNL1        0.0000
     18 C          26.6857  -13.1740   14.6541 C.3       1 UNL1        0.0000
     19 C          25.2169  -13.2497   15.0120 C.3       1 UNL1        0.0000
     20 C          25.6150  -12.3821   17.2988 C.3       1 UNL1        0.0000
     21 C          26.9537  -11.9025   16.7998 C.3       1 UNL1        0.0000
     22 C          24.5082  -14.5884   16.9856 C.2       1 UNL1        0.0000
     23 C          23.9579  -15.7356   16.2588 C.3       1 UNL1        0.0000
     24 C          24.8489  -16.9533   16.1617 C.3       1 UNL1        0.0000
     25 C          24.5395  -16.1718   14.9622 C.3       1 UNL1        0.0000
     26 C          30.7460  -11.8531   16.6308 C.ar      1 UNL1        0.0000
     27 C          31.5178  -11.3983   17.6759 C.ar      1 UNL1        0.0000
     28 C          31.1910  -11.7487   18.9938 C.ar      1 UNL1        0.0000
     29 O          33.7639  -16.0723   22.6124 O.2       1 UNL1        0.0000
     30 O          24.4363  -14.6606   18.2642 O.2       1 UNL1        0.0000
     31 O          29.3417  -13.8470   14.9060 O.2       1 UNL1        0.0000
     32 F          31.0263  -11.5395   15.3324 F         1 UNL1        0.0000
     33 H          32.3544  -16.5595   24.4719 H         1 UNL1        0.0000
     34 H          30.3174  -16.3747   25.7879 H         1 UNL1        0.0000
     35 H          28.5480  -14.9801   24.9436 H         1 UNL1        0.0000
     36 H          28.7316  -13.7873   22.8722 H         1 UNL1        0.0000
     37 H          29.5167  -12.1050   21.2723 H         1 UNL1        0.0000
     38 H          28.8161  -13.5537   20.5699 H         1 UNL1        0.0000
     39 H          28.5270  -13.5896   18.4285 H         1 UNL1        0.0000
     40 H          27.0149  -14.1459   14.3497 H         1 UNL1        0.0000
     41 H          26.7902  -12.4564   13.8666 H         1 UNL1        0.0000
     42 H          24.7629  -14.0688   14.4952 H         1 UNL1        0.0000
     43 H          24.7270  -12.3420   14.7265 H         1 UNL1        0.0000
     44 H          25.7257  -12.7598   18.2937 H         1 UNL1        0.0000
     45 H          24.9295  -11.5606   17.2898 H         1 UNL1        0.0000
     46 H          27.6424  -11.8987   17.6189 H         1 UNL1        0.0000
     47 H          26.8127  -10.9239   16.3929 H         1 UNL1        0.0000
     48 H          22.9642  -15.5054   16.5811 H         1 UNL1        0.0000
     49 H          24.4335  -17.9318   16.2851 H         1 UNL1        0.0000
     50 H          25.7473  -17.2746   16.6461 H         1 UNL1        0.0000
     51 H          23.9041  -16.5870   14.2079 H         1 UNL1        0.0000
     52 H          25.1302  -15.6938   14.2100 H         1 UNL1        0.0000
     53 H          32.3374  -10.7987   17.4889 H         1 UNL1        0.0000
     54 H          31.7866  -11.3945   19.7590 H         1 UNL1        0.0000
     55 H          33.7190  -14.6988   20.4986 H         1 UNL1        0.0000
@<TRIPOS>BOND
     1    1   18 1
     2    1   21 1
     3    1   17 am
     4    2   19 1
     5    2   20 1
     6    2   22 am
     7    3    4 1
     8    3   12 2
     9    4    5 am
    10    4   55 1
    11    5   29 2
    12    5    6 1
    13    6    7 ar
    14    6   11 ar
    15    7    8 ar
    16    7   33 1
    17    8   34 1
    18    8    9 ar
    19    9   10 ar
    20    9   35 1
    21   10   11 ar
    22   10   36 1
    23   11   12 1
    24   12   13 1
    25   13   37 1
    26   13   38 1
    27   13   14 1
    28   14   15 ar
    29   14   28 ar
    30   15   39 1
    31   15   16 ar
    32   16   26 ar
    33   16   17 1
    34   17   31 2
    35   18   19 1
    36   18   40 1
    37   18   41 1
    38   19   42 1
    39   19   43 1
    40   20   21 1
    41   20   45 1
    42   20   44 1
    43   21   46 1
    44   21   47 1
    45   22   30 2
    46   22   23 1
    47   23   25 1
    48   23   24 1
    49   23   48 1
    50   24   25 1
    51   24   49 1
    52   24   50 1
    53   25   51 1
    54   25   52 1
    55   26   27 ar
    56   26   32 1
    57   27   28 ar
    58   27   53 1
    59   28   54 1
@<TRIPOS>SUBSTRUCTURE
1 UNL1 1
@<TRIPOS>COMMENT
Olaparib
PLANTSproteinTorsions
70
3 86.4266
48 147.2828
123 219.7766
171 327.9116
348 130.4512
606 158.5261
632 243.4257
655 43.8363
678 131.1073
700 198.3107
773 82.6745
807 134.4203
891 237.3411
933 256.9651
999 352.7556
1020 52.5368
1361 163.2417
1371 111.8058
1544 223.8787
1649 12.1948
1689 150.8700
1736 140.0151
1771 7.6350
2012 348.8991
2070 343.6083
2082 76.2461
2147 62.3600
2300 186.5802
2527 172.1344
2551 150.9837
2605 17.5919
2653 84.0468
2739 318.4500
2807 322.6670
2841 247.3266
2875 129.0167
2885 168.5795
2915 156.3127
3074 260.4871
3130 52.5425
3421 60.6759
3586 230.2942
3784 279.2529
3818 196.1381
3881 164.2881
3933 232.7884
4033 147.8437
4046 231.4312
4094 12.8989
4145 350.2564
4208 139.1659
4235 199.9140
4332 143.9278
4568 201.5336
4685 116.1513
4749 111.5592
4805 12.8216
4858 18.9383
4871 98.0759
4945 268.1427
4999 161.0995
5010 203.3563
5106 322.7850
5130 310.6898
5249 266.6524
5258 49.1354
5318 174.8697
5369 255.3352
5589 25.5482
5645 284.5576
PLANTSmolcadARTstart hb
PLANTSmolcadARTstart HB
LINES
PLANTSmolcadARTstart HBCH
LINES
PLANTSmolcadARTstart HB-CHO
LINES
PLANTSmolcadARTend
PLANTSmolcadARTstart HB_WATER
LINES
PLANTSmolcadARTend

PLANTSmolcadARTend

