@<TRIPOS>MOLECULE
Olaparib_entry_00001_conf_26
55 59 1
SMALL
NO_CHARGES


@<TRIPOS>ATOM
      1 N           9.4588   13.5584    1.5841 N.am      1 UNL1        0.0000
      2 N           7.6127   13.5411   -0.2434 N.am      1 UNL1        0.0000
      3 N          12.7453    9.0398    6.6476 N.2       1 UNL1        0.0000
      4 N          13.8661    8.3855    6.8324 N.am      1 UNL1        0.0000
      5 C          15.0454    8.9899    7.0343 C.2       1 UNL1        0.0000
      6 C          15.0904   10.3688    7.0494 C.ar      1 UNL1        0.0000
      7 C          16.2947   11.0486    7.2355 C.ar      1 UNL1        0.0000
      8 C          16.3190   12.4266    7.2256 C.ar      1 UNL1        0.0000
      9 C          15.1170   13.0717    7.0250 C.ar      1 UNL1        0.0000
     10 C          13.9148   12.4101    6.8387 C.ar      1 UNL1        0.0000
     11 C          13.9013   11.0465    6.8529 C.ar      1 UNL1        0.0000
     12 C          12.7073   10.4079    6.6496 C.2       1 UNL1        0.0000
     13 C          11.3893   11.0105    6.4993 C.3       1 UNL1        0.0000
     14 C          10.8671   10.7912    5.1222 C.ar      1 UNL1        0.0000
     15 C          10.9950   11.8829    4.2450 C.ar      1 UNL1        0.0000
     16 C          10.5328   11.7807    2.9547 C.ar      1 UNL1        0.0000
     17 C          10.6498   12.9132    2.0087 C.2       1 UNL1        0.0000
     18 C           9.5316   14.6573    0.6763 C.3       1 UNL1        0.0000
     19 C           8.2728   14.8172   -0.1490 C.3       1 UNL1        0.0000
     20 C           7.1412   12.9417    1.0097 C.3       1 UNL1        0.0000
     21 C           8.1846   13.0809    2.0883 C.3       1 UNL1        0.0000
     22 C           7.4195   12.8841   -1.4621 C.2       1 UNL1        0.0000
     23 C           7.8426   13.3435   -2.7877 C.3       1 UNL1        0.0000
     24 C           7.5232   12.4247   -3.9452 C.3       1 UNL1        0.0000
     25 C           8.9139   12.6367   -3.5376 C.3       1 UNL1        0.0000
     26 C           9.9378   10.6469    2.4543 C.ar      1 UNL1        0.0000
     27 C           9.8132    9.5789    3.3138 C.ar      1 UNL1        0.0000
     28 C          10.2827    9.6801    4.6313 C.ar      1 UNL1        0.0000
     29 O          16.1304    8.3798    7.2146 O.2       1 UNL1        0.0000
     30 O           6.8093   11.7561   -1.4392 O.2       1 UNL1        0.0000
     31 O          11.7562   13.3128    1.5786 O.2       1 UNL1        0.0000
     32 F           9.4943   10.5951    1.1646 F         1 UNL1        0.0000
     33 H          17.1684   10.5191    7.3814 H         1 UNL1        0.0000
     34 H          17.1964   12.9510    7.3614 H         1 UNL1        0.0000
     35 H          15.1133   14.1032    7.0127 H         1 UNL1        0.0000
     36 H          13.0416   12.9404    6.6917 H         1 UNL1        0.0000
     37 H          11.4592   12.0618    6.6861 H         1 UNL1        0.0000
     38 H          10.7192   10.5539    7.1978 H         1 UNL1        0.0000
     39 H          11.4342   12.7583    4.5693 H         1 UNL1        0.0000
     40 H          10.3579   14.5005    0.0144 H         1 UNL1        0.0000
     41 H           9.6532   15.5485    1.2567 H         1 UNL1        0.0000
     42 H           8.5270   15.1642   -1.1284 H         1 UNL1        0.0000
     43 H           7.6226   15.5290    0.3158 H         1 UNL1        0.0000
     44 H           6.9378   11.9036    0.8496 H         1 UNL1        0.0000
     45 H           6.2521   13.4481    1.3230 H         1 UNL1        0.0000
     46 H           8.3356   12.1241    2.5431 H         1 UNL1        0.0000
     47 H           7.8264   13.8039    2.7898 H         1 UNL1        0.0000
     48 H           7.6810   14.3668   -2.5212 H         1 UNL1        0.0000
     49 H           7.1682   12.8314   -4.8692 H         1 UNL1        0.0000
     50 H           6.8954   11.5689   -4.0817 H         1 UNL1        0.0000
     51 H           9.5736   13.1920   -4.1713 H         1 UNL1        0.0000
     52 H           9.7172   11.9881   -3.2595 H         1 UNL1        0.0000
     53 H           9.3739    8.7031    2.9879 H         1 UNL1        0.0000
     54 H          10.1765    8.8647    5.2553 H         1 UNL1        0.0000
     55 H          13.8401    7.4011    6.8229 H         1 UNL1        0.0000
@<TRIPOS>BOND
     1    1   18 1
     2    1   21 1
     3    1   17 am
     4    2   19 1
     5    2   20 1
     6    2   22 am
     7    3    4 1
     8    3   12 2
     9    4    5 am
    10    4   55 1
    11    5   29 2
    12    5    6 1
    13    6    7 ar
    14    6   11 ar
    15    7    8 ar
    16    7   33 1
    17    8   34 1
    18    8    9 ar
    19    9   10 ar
    20    9   35 1
    21   10   11 ar
    22   10   36 1
    23   11   12 1
    24   12   13 1
    25   13   37 1
    26   13   38 1
    27   13   14 1
    28   14   15 ar
    29   14   28 ar
    30   15   39 1
    31   15   16 ar
    32   16   26 ar
    33   16   17 1
    34   17   31 2
    35   18   19 1
    36   18   40 1
    37   18   41 1
    38   19   42 1
    39   19   43 1
    40   20   21 1
    41   20   45 1
    42   20   44 1
    43   21   46 1
    44   21   47 1
    45   22   30 2
    46   22   23 1
    47   23   25 1
    48   23   24 1
    49   23   48 1
    50   24   25 1
    51   24   49 1
    52   24   50 1
    53   25   51 1
    54   25   52 1
    55   26   27 ar
    56   26   32 1
    57   27   28 ar
    58   27   53 1
    59   28   54 1
@<TRIPOS>SUBSTRUCTURE
1 UNL1 1
@<TRIPOS>COMMENT
Olaparib
PLANTSproteinTorsions
70
3 65.8414
48 276.1497
123 349.7357
171 71.2352
348 87.2275
606 106.2903
632 23.2760
655 11.2640
678 276.2263
700 34.2479
773 204.2443
807 195.2251
891 8.2275
933 161.2350
999 355.2734
1020 202.2480
1361 191.2632
1371 181.2769
1544 14.2947
1649 239.3175
1689 219.3368
1736 56.3635
1771 102.3610
2012 104.1721
2070 224.2252
2082 116.3221
2147 328.9571
2300 337.7941
2527 85.4572
2551 87.5146
2605 124.0550
2653 56.4314
2739 3.6039
2807 245.7859
2841 201.9536
2875 7.1282
2885 358.2932
2915 303.6312
3074 331.1634
3130 186.8085
3421 166.9524
3586 62.0904
3784 183.2272
3818 241.3590
3881 55.4913
3933 168.6213
4033 227.7480
4046 65.9062
4094 336.9419
4145 69.1389
4208 25.2183
4235 200.3315
4332 268.4449
4568 278.3535
4685 260.6620
4749 267.8083
4805 274.8842
4858 247.6856
4871 211.2466
4945 70.1713
4999 267.3819
5010 50.2609
5106 28.2200
5130 160.2820
5249 335.2834
5258 125.2271
5318 127.1751
5369 115.1887
5589 248.0958
5645 231.0714
PLANTSmolcadARTstart hb
PLANTSmolcadARTstart HB
LINES
16.1304 8.37982 7.2146 16.372 6.74 7.624 0 255 0 5
PLANTSmolcadARTstart HBCH
LINES
PLANTSmolcadARTstart HB-CHO
LINES
PLANTSmolcadARTend
PLANTSmolcadARTstart HB_WATER
LINES
PLANTSmolcadARTend

PLANTSmolcadARTend

