@<TRIPOS>MOLECULE
Olaparib_entry_00001_conf_48
55 59 1
SMALL
NO_CHARGES


@<TRIPOS>ATOM
      1 N          17.9061   -8.0561   12.5317 N.am      1 UNL1        0.0000
      2 N          16.3991   -6.2504   13.6348 N.am      1 UNL1        0.0000
      3 N          14.6450  -12.9029   11.3303 N.2       1 UNL1        0.0000
      4 N          13.5382  -13.0540   12.0164 N.am      1 UNL1        0.0000
      5 C          13.4475  -13.8340   13.1029 C.2       1 UNL1        0.0000
      6 C          14.5702  -14.5151   13.5263 C.ar      1 UNL1        0.0000
      7 C          14.5261  -15.3559   14.6391 C.ar      1 UNL1        0.0000
      8 C          15.6546  -16.0430   15.0312 C.ar      1 UNL1        0.0000
      9 C          16.7942  -15.8552   14.2780 C.ar      1 UNL1        0.0000
     10 C          16.8523  -15.0246   13.1715 C.ar      1 UNL1        0.0000
     11 C          15.7306  -14.3472   12.7934 C.ar      1 UNL1        0.0000
     12 C          15.8005  -13.5438   11.6870 C.2       1 UNL1        0.0000
     13 C          16.9751  -13.2387   10.8806 C.3       1 UNL1        0.0000
     14 C          16.8878  -11.8582   10.3295 C.ar      1 UNL1        0.0000
     15 C          17.6388  -10.8849   11.0124 C.ar      1 UNL1        0.0000
     16 C          17.6144   -9.5788   10.5852 C.ar      1 UNL1        0.0000
     17 C          18.3913   -8.5309   11.2850 C.2       1 UNL1        0.0000
     18 C          18.6303   -7.0496   13.2385 C.3       1 UNL1        0.0000
     19 C          17.7452   -6.2215   14.1450 C.3       1 UNL1        0.0000
     20 C          15.7338   -7.5570   13.5869 C.3       1 UNL1        0.0000
     21 C          16.6747   -8.6110   13.0623 C.3       1 UNL1        0.0000
     22 C          15.7367   -5.0994   13.1982 C.2       1 UNL1        0.0000
     23 C          16.2680   -3.7341   13.1701 C.3       1 UNL1        0.0000
     24 C          15.4162   -2.6733   13.8298 C.3       1 UNL1        0.0000
     25 C          15.6009   -2.6686   12.3768 C.3       1 UNL1        0.0000
     26 C          16.8824   -9.1530    9.5023 C.ar      1 UNL1        0.0000
     27 C          16.1476  -10.1066    8.8346 C.ar      1 UNL1        0.0000
     28 C          16.1695  -11.4399    9.2684 C.ar      1 UNL1        0.0000
     29 O          12.3958  -13.9906   13.7745 O.2       1 UNL1        0.0000
     30 O          14.5342   -5.2311   12.7719 O.2       1 UNL1        0.0000
     31 O          19.4510   -8.0582   10.8137 O.2       1 UNL1        0.0000
     32 F          16.8906   -7.8435    9.1177 F         1 UNL1        0.0000
     33 H          13.6475  -15.4630   15.1698 H         1 UNL1        0.0000
     34 H          15.6467  -16.6695   15.8502 H         1 UNL1        0.0000
     35 H          17.6498  -16.3613   14.5536 H         1 UNL1        0.0000
     36 H          17.7310  -14.9188   12.6405 H         1 UNL1        0.0000
     37 H          17.0387  -13.9371   10.0724 H         1 UNL1        0.0000
     38 H          17.8459  -13.3076   11.4989 H         1 UNL1        0.0000
     39 H          18.2063  -11.1505   11.8321 H         1 UNL1        0.0000
     40 H          19.0962   -6.3997   12.5272 H         1 UNL1        0.0000
     41 H          19.3525   -7.5439   13.8551 H         1 UNL1        0.0000
     42 H          18.0993   -5.2124   14.1689 H         1 UNL1        0.0000
     43 H          17.7662   -6.6224   15.1371 H         1 UNL1        0.0000
     44 H          14.8814   -7.4954   12.9433 H         1 UNL1        0.0000
     45 H          15.4305   -7.8277   14.5766 H         1 UNL1        0.0000
     46 H          16.1812   -9.1517   12.2818 H         1 UNL1        0.0000
     47 H          16.9363   -9.2447   13.8828 H         1 UNL1        0.0000
     48 H          17.2754   -4.0894   13.2275 H         1 UNL1        0.0000
     49 H          15.8749   -1.9155   14.4302 H         1 UNL1        0.0000
     50 H          14.5714   -2.6810   14.4864 H         1 UNL1        0.0000
     51 H          16.1886   -1.9002   11.9193 H         1 UNL1        0.0000
     52 H          14.9353   -2.6662   11.5400 H         1 UNL1        0.0000
     53 H          15.5806   -9.8395    8.0140 H         1 UNL1        0.0000
     54 H          15.6092  -12.1349    8.7501 H         1 UNL1        0.0000
     55 H          12.7337  -12.5701   11.7191 H         1 UNL1        0.0000
@<TRIPOS>BOND
     1    1   18 1
     2    1   21 1
     3    1   17 am
     4    2   19 1
     5    2   20 1
     6    2   22 am
     7    3    4 1
     8    3   12 2
     9    4    5 am
    10    4   55 1
    11    5   29 2
    12    5    6 1
    13    6    7 ar
    14    6   11 ar
    15    7    8 ar
    16    7   33 1
    17    8   34 1
    18    8    9 ar
    19    9   10 ar
    20    9   35 1
    21   10   11 ar
    22   10   36 1
    23   11   12 1
    24   12   13 1
    25   13   37 1
    26   13   38 1
    27   13   14 1
    28   14   15 ar
    29   14   28 ar
    30   15   39 1
    31   15   16 ar
    32   16   26 ar
    33   16   17 1
    34   17   31 2
    35   18   19 1
    36   18   40 1
    37   18   41 1
    38   19   42 1
    39   19   43 1
    40   20   21 1
    41   20   45 1
    42   20   44 1
    43   21   46 1
    44   21   47 1
    45   22   30 2
    46   22   23 1
    47   23   25 1
    48   23   24 1
    49   23   48 1
    50   24   25 1
    51   24   49 1
    52   24   50 1
    53   25   51 1
    54   25   52 1
    55   26   27 ar
    56   26   32 1
    57   27   28 ar
    58   27   53 1
    59   28   54 1
@<TRIPOS>SUBSTRUCTURE
1 UNL1 1
@<TRIPOS>COMMENT
Olaparib
PLANTSproteinTorsions
70
3 100.7094
48 200.5737
123 157.8179
171 211.7801
348 151.2109
606 91.9639
632 297.8777
655 117.9408
678 319.4402
700 86.4908
773 15.5472
807 144.3435
891 191.0343
933 252.5877
999 261.8090
1020 109.2171
1361 310.2360
1371 221.3300
1544 222.1726
1649 257.5215
1689 253.8257
1736 46.3051
1771 122.5283
2012 304.2467
2070 153.5177
2082 186.2012
2147 157.2680
2300 170.5954
2527 48.0298
2551 52.2182
2605 46.2069
2653 177.3538
2739 46.9786
2807 168.4928
2841 184.1840
2875 116.0549
2885 348.3642
2915 45.7932
3074 357.2828
3130 224.6201
3421 6.5203
3586 228.5205
3784 268.3065
3818 237.2482
3881 308.0095
3933 200.9030
4033 259.7021
4046 0.2522
4094 44.8194
4145 238.0891
4208 146.5969
4235 201.0637
4332 157.2637
4568 271.3017
4685 334.9194
4749 181.3156
4805 329.5768
4858 200.7636
4871 11.0698
4945 42.2940
4999 240.5910
5010 180.7769
5106 5.8740
5130 243.3476
5249 161.3335
5258 146.5379
5318 158.2904
5369 254.5471
5589 208.8444
5645 216.9877
PLANTSmolcadARTstart hb
PLANTSmolcadARTstart HB
LINES
19.451 -8.05818 10.8137 20.767 -9.275 11.654 0 255 0 5
PLANTSmolcadARTstart HBCH
LINES
PLANTSmolcadARTstart HB-CHO
LINES
12.3958 -13.9906 13.7745 10.471 -13.233 12.621 0 255 255 5
PLANTSmolcadARTend
PLANTSmolcadARTstart HB_WATER
LINES
PLANTSmolcadARTend

PLANTSmolcadARTend

