@<TRIPOS>MOLECULE
Olaparib_entry_00001_conf_45
55 59 1
SMALL
NO_CHARGES


@<TRIPOS>ATOM
      1 N          27.4671    8.7039   21.2571 N.am      1 UNL1        0.0000
      2 N          29.8781    7.8027   20.9062 N.am      1 UNL1        0.0000
      3 N          23.8387    2.9719   18.1744 N.2       1 UNL1        0.0000
      4 N          22.8599    2.3616   17.5514 N.am      1 UNL1        0.0000
      5 C          21.6610    2.1375   18.1077 C.2       1 UNL1        0.0000
      6 C          21.4383    2.5670   19.3998 C.ar      1 UNL1        0.0000
      7 C          20.2157    2.3418   20.0334 C.ar      1 UNL1        0.0000
      8 C          20.0229    2.7608   21.3322 C.ar      1 UNL1        0.0000
      9 C          21.0809    3.3953   21.9480 C.ar      1 UNL1        0.0000
     10 C          22.2996    3.6251   21.3316 C.ar      1 UNL1        0.0000
     11 C          22.4791    3.2088   20.0454 C.ar      1 UNL1        0.0000
     12 C          23.6956    3.4281   19.4569 C.2       1 UNL1        0.0000
     13 C          24.8360    4.1469   20.0100 C.3       1 UNL1        0.0000
     14 C          24.4709    5.5598   20.3064 C.ar      1 UNL1        0.0000
     15 C          25.4667    6.3219   20.9430 C.ar      1 UNL1        0.0000
     16 C          25.2201    7.6345   21.2670 C.ar      1 UNL1        0.0000
     17 C          26.2467    8.4615   21.9405 C.2       1 UNL1        0.0000
     18 C          28.4789    9.5007   21.8721 C.3       1 UNL1        0.0000
     19 C          29.8690    9.1633   21.3772 C.3       1 UNL1        0.0000
     20 C          29.0098    7.4874   19.7667 C.3       1 UNL1        0.0000
     21 C          27.6578    8.1309   19.9376 C.3       1 UNL1        0.0000
     22 C          30.6689    6.8104   21.4929 C.2       1 UNL1        0.0000
     23 C          31.5705    6.9643   22.6377 C.3       1 UNL1        0.0000
     24 C          32.7581    6.0294   22.6816 C.3       1 UNL1        0.0000
     25 C          31.6855    5.9016   23.6707 C.3       1 UNL1        0.0000
     26 C          24.0288    8.2664   20.9998 C.ar      1 UNL1        0.0000
     27 C          23.0548    7.5194   20.3767 C.ar      1 UNL1        0.0000
     28 C          23.3026    6.1796   20.0456 C.ar      1 UNL1        0.0000
     29 O          20.7099    1.5554   17.5261 O.2       1 UNL1        0.0000
     30 O          30.6131    5.6315   20.9906 O.2       1 UNL1        0.0000
     31 O          26.0702    8.9472   23.0814 O.2       1 UNL1        0.0000
     32 F          23.8323    9.5728   21.3425 F         1 UNL1        0.0000
     33 H          19.4543    1.8614   19.5289 H         1 UNL1        0.0000
     34 H          19.1283    2.6062   21.8212 H         1 UNL1        0.0000
     35 H          20.9581    3.7158   22.9208 H         1 UNL1        0.0000
     36 H          23.0610    4.1046   21.8373 H         1 UNL1        0.0000
     37 H          25.6388    4.1317   19.3027 H         1 UNL1        0.0000
     38 H          25.1355    3.6710   20.9206 H         1 UNL1        0.0000
     39 H          26.3798    5.8966   21.1664 H         1 UNL1        0.0000
     40 H          28.4437    9.3423   22.9300 H         1 UNL1        0.0000
     41 H          28.2844   10.5225   21.6185 H         1 UNL1        0.0000
     42 H          30.5712    9.2720   22.1768 H         1 UNL1        0.0000
     43 H          30.1410    9.8250   20.5812 H         1 UNL1        0.0000
     44 H          28.8880    6.4267   19.6989 H         1 UNL1        0.0000
     45 H          29.4606    7.8652   18.8728 H         1 UNL1        0.0000
     46 H          26.9035    7.3891   19.7766 H         1 UNL1        0.0000
     47 H          27.5902    8.9287   19.2290 H         1 UNL1        0.0000
     48 H          31.3903    8.0179   22.6804 H         1 UNL1        0.0000
     49 H          33.7183    6.3975   22.9777 H         1 UNL1        0.0000
     50 H          33.2277    5.3687   21.9831 H         1 UNL1        0.0000
     51 H          31.8693    6.1696   24.6902 H         1 UNL1        0.0000
     52 H          31.0559    5.0982   23.9891 H         1 UNL1        0.0000
     53 H          22.1416    7.9464   20.1531 H         1 UNL1        0.0000
     54 H          22.5550    5.6418   19.5792 H         1 UNL1        0.0000
     55 H          23.0130    2.0531   16.6288 H         1 UNL1        0.0000
@<TRIPOS>BOND
     1    1   18 1
     2    1   21 1
     3    1   17 am
     4    2   19 1
     5    2   20 1
     6    2   22 am
     7    3    4 1
     8    3   12 2
     9    4    5 am
    10    4   55 1
    11    5   29 2
    12    5    6 1
    13    6    7 ar
    14    6   11 ar
    15    7    8 ar
    16    7   33 1
    17    8   34 1
    18    8    9 ar
    19    9   10 ar
    20    9   35 1
    21   10   11 ar
    22   10   36 1
    23   11   12 1
    24   12   13 1
    25   13   37 1
    26   13   38 1
    27   13   14 1
    28   14   15 ar
    29   14   28 ar
    30   15   39 1
    31   15   16 ar
    32   16   26 ar
    33   16   17 1
    34   17   31 2
    35   18   19 1
    36   18   40 1
    37   18   41 1
    38   19   42 1
    39   19   43 1
    40   20   21 1
    41   20   45 1
    42   20   44 1
    43   21   46 1
    44   21   47 1
    45   22   30 2
    46   22   23 1
    47   23   25 1
    48   23   24 1
    49   23   48 1
    50   24   25 1
    51   24   49 1
    52   24   50 1
    53   25   51 1
    54   25   52 1
    55   26   27 ar
    56   26   32 1
    57   27   28 ar
    58   27   53 1
    59   28   54 1
@<TRIPOS>SUBSTRUCTURE
1 UNL1 1
@<TRIPOS>COMMENT
Olaparib
PLANTSproteinTorsions
70
3 8.4328
48 90.9931
123 87.6884
171 199.6921
348 276.2710
606 339.4818
632 91.8012
655 63.9753
678 124.3934
700 171.2662
773 47.3854
807 24.6708
891 46.8019
933 55.6794
999 313.2874
1020 328.6947
1361 336.3311
1371 248.2738
1544 71.9409
1649 15.8921
1689 229.5285
1736 212.2188
1771 200.0169
2012 198.1353
2070 237.6781
2082 292.8632
2147 81.2229
2300 29.2661
2527 56.5565
2551 204.8372
2605 250.6090
2653 242.4472
2739 298.1982
2807 214.0566
2841 263.6971
2875 191.6949
2885 201.5271
2915 129.2314
3074 48.4984
3130 8.2113
3421 204.7559
3586 46.7259
3784 94.0148
3818 154.0547
3881 262.9869
3933 103.1770
4033 163.1757
4046 207.8383
4094 138.9062
4145 23.7974
4208 291.7851
4235 95.5373
4332 301.1896
4568 77.0808
4685 114.2474
4749 259.3728
4805 30.5314
4858 270.3063
4871 6.7685
4945 92.2702
4999 282.2561
5010 343.6232
5106 306.9532
5130 128.7028
5249 200.3536
5258 25.5972
5318 27.7692
5369 74.9009
5589 188.7175
5645 332.6452
PLANTSmolcadARTstart hb
PLANTSmolcadARTstart HB
LINES
26.0702 8.94716 23.0814 27.443 10.119 24.587 0 255 0 5
PLANTSmolcadARTstart HBCH
LINES
PLANTSmolcadARTstart HB-CHO
LINES
PLANTSmolcadARTend
PLANTSmolcadARTstart HB_WATER
LINES
PLANTSmolcadARTend

PLANTSmolcadARTend

