@<TRIPOS>MOLECULE
Olaparib_entry_00001_conf_100
55 59 1
SMALL
NO_CHARGES


@<TRIPOS>ATOM
      1 N          24.1520    6.6399    0.8514 N.am      1 UNL1        0.0000
      2 N          22.4943    7.2597    2.7530 N.am      1 UNL1        0.0000
      3 N          27.8630    9.8186    2.9821 N.2       1 UNL1        0.0000
      4 N          27.9299   10.3947    4.1578 N.am      1 UNL1        0.0000
      5 C          29.0527   10.9405    4.6461 C.2       1 UNL1        0.0000
      6 C          30.1991   10.8976    3.8797 C.ar      1 UNL1        0.0000
      7 C          31.3996   11.4327    4.3482 C.ar      1 UNL1        0.0000
      8 C          32.5376   11.3595    3.5740 C.ar      1 UNL1        0.0000
      9 C          32.4201   10.7425    2.3466 C.ar      1 UNL1        0.0000
     10 C          31.2356   10.2069    1.8692 C.ar      1 UNL1        0.0000
     11 C          30.1148   10.2868    2.6421 C.ar      1 UNL1        0.0000
     12 C          28.9563    9.7368    2.1627 C.2       1 UNL1        0.0000
     13 C          28.7316    9.1312    0.8566 C.3       1 UNL1        0.0000
     14 C          28.3571    7.6973    1.0016 C.ar      1 UNL1        0.0000
     15 C          27.0220    7.3855    0.6890 C.ar      1 UNL1        0.0000
     16 C          26.5783    6.0896    0.8020 C.ar      1 UNL1        0.0000
     17 C          25.1780    5.7304    0.4837 C.2       1 UNL1        0.0000
     18 C          22.7901    6.3306    0.5568 C.3       1 UNL1        0.0000
     19 C          21.8207    6.9999    1.5072 C.3       1 UNL1        0.0000
     20 C          23.6395    8.1755    2.7116 C.3       1 UNL1        0.0000
     21 C          24.5159    7.8734    1.5234 C.3       1 UNL1        0.0000
     22 C          22.0940    6.6766    3.9588 C.2       1 UNL1        0.0000
     23 C          20.9870    5.7376    4.1589 C.3       1 UNL1        0.0000
     24 C          21.0033    4.9532    5.4514 C.3       1 UNL1        0.0000
     25 C          21.2208    4.2697    4.1744 C.3       1 UNL1        0.0000
     26 C          27.3802    5.0510    1.2120 C.ar      1 UNL1        0.0000
     27 C          28.6870    5.3574    1.5177 C.ar      1 UNL1        0.0000
     28 C          29.1426    6.6787    1.4045 C.ar      1 UNL1        0.0000
     29 O          29.1362   11.4982    5.7703 O.2       1 UNL1        0.0000
     30 O          22.7541    6.9827    5.0151 O.2       1 UNL1        0.0000
     31 O          24.8776    4.6603   -0.0937 O.2       1 UNL1        0.0000
     32 F          26.8919    3.7802    1.3089 F         1 UNL1        0.0000
     33 H          31.4356   11.8846    5.2753 H         1 UNL1        0.0000
     34 H          33.4359   11.7481    3.8984 H         1 UNL1        0.0000
     35 H          33.2604   10.6759    1.7518 H         1 UNL1        0.0000
     36 H          31.2006    9.7541    0.9423 H         1 UNL1        0.0000
     37 H          29.6272    9.2043    0.2756 H         1 UNL1        0.0000
     38 H          27.9309    9.6480    0.3695 H         1 UNL1        0.0000
     39 H          26.3771    8.1275    0.3760 H         1 UNL1        0.0000
     40 H          22.6578    5.2706    0.6223 H         1 UNL1        0.0000
     41 H          22.5816    6.6952   -0.4279 H         1 UNL1        0.0000
     42 H          20.9833    6.3566    1.6783 H         1 UNL1        0.0000
     43 H          21.4738    7.9194    1.0833 H         1 UNL1        0.0000
     44 H          24.2126    8.0644    3.6081 H         1 UNL1        0.0000
     45 H          23.2777    9.1790    2.6266 H         1 UNL1        0.0000
     46 H          25.5292    7.7924    1.8580 H         1 UNL1        0.0000
     47 H          24.3903    8.6699    0.8212 H         1 UNL1        0.0000
     48 H          20.3096    6.3709    3.6256 H         1 UNL1        0.0000
     49 H          20.0943    4.7970    5.9942 H         1 UNL1        0.0000
     50 H          21.5408    5.0249    6.3738 H         1 UNL1        0.0000
     51 H          20.4713    3.6085    3.7922 H         1 UNL1        0.0000
     52 H          21.9881    3.6315    3.7907 H         1 UNL1        0.0000
     53 H          29.3315    4.6137    1.8303 H         1 UNL1        0.0000
     54 H          30.1270    6.8814    1.6403 H         1 UNL1        0.0000
     55 H          27.1147   10.4285    4.7092 H         1 UNL1        0.0000
@<TRIPOS>BOND
     1    1   18 1
     2    1   21 1
     3    1   17 am
     4    2   19 1
     5    2   20 1
     6    2   22 am
     7    3    4 1
     8    3   12 2
     9    4    5 am
    10    4   55 1
    11    5   29 2
    12    5    6 1
    13    6    7 ar
    14    6   11 ar
    15    7    8 ar
    16    7   33 1
    17    8   34 1
    18    8    9 ar
    19    9   10 ar
    20    9   35 1
    21   10   11 ar
    22   10   36 1
    23   11   12 1
    24   12   13 1
    25   13   37 1
    26   13   38 1
    27   13   14 1
    28   14   15 ar
    29   14   28 ar
    30   15   39 1
    31   15   16 ar
    32   16   26 ar
    33   16   17 1
    34   17   31 2
    35   18   19 1
    36   18   40 1
    37   18   41 1
    38   19   42 1
    39   19   43 1
    40   20   21 1
    41   20   45 1
    42   20   44 1
    43   21   46 1
    44   21   47 1
    45   22   30 2
    46   22   23 1
    47   23   25 1
    48   23   24 1
    49   23   48 1
    50   24   25 1
    51   24   49 1
    52   24   50 1
    53   25   51 1
    54   25   52 1
    55   26   27 ar
    56   26   32 1
    57   27   28 ar
    58   27   53 1
    59   28   54 1
@<TRIPOS>SUBSTRUCTURE
1 UNL1 1
@<TRIPOS>COMMENT
Olaparib
PLANTSproteinTorsions
70
3 91.2896
48 85.3585
123 196.1941
171 290.8780
348 346.1624
606 240.8048
632 175.6741
655 194.4812
678 225.3781
700 187.4211
773 234.3248
807 265.8213
891 0.4664
933 294.3422
999 115.9907
1020 331.6581
1361 17.4662
1371 5.3436
1544 69.1910
1649 166.0558
1689 227.7599
1736 274.1865
1771 126.4921
2012 74.8245
2070 274.7941
2082 208.5699
2147 78.5098
2300 137.4604
2527 299.5293
2551 328.6330
2605 75.4263
2653 198.4146
2739 14.4090
2807 98.4141
2841 53.4646
2875 116.3196
2885 8.2821
2915 291.7244
3074 188.1535
3130 224.2289
3421 161.2407
3586 138.3299
3784 234.4221
3818 228.5199
3881 151.6242
3933 149.7323
4033 103.8389
4046 267.9574
4094 193.0694
4145 159.1872
4208 53.3085
4235 166.4059
4332 128.5659
4568 305.8711
4685 311.4904
4749 358.1000
4805 321.7090
4858 106.2515
4871 107.3854
4945 239.4584
4999 144.1440
5010 242.5699
5106 197.7210
5130 168.7413
5249 88.8997
5258 262.0609
5318 122.2179
5369 252.4127
5589 268.4901
5645 208.4173
PLANTSmolcadARTstart hb
PLANTSmolcadARTstart HB
LINES
29.1362 11.4982 5.77028 29.5122 9.7348 6.77263 0 255 0 5
24.8776 4.66031 -0.0937171 24.0534 3.73988 0.932639 0 255 0 5
PLANTSmolcadARTstart HBCH
LINES
PLANTSmolcadARTstart HB-CHO
LINES
PLANTSmolcadARTend
PLANTSmolcadARTstart HB_WATER
LINES
PLANTSmolcadARTend

PLANTSmolcadARTend

