@<TRIPOS>MOLECULE
Olaparib_entry_00001_conf_37
55 59 1
SMALL
NO_CHARGES


@<TRIPOS>ATOM
      1 N          16.8050   -5.3747   15.3322 N.am      1 UNL1        0.0000
      2 N          15.8081   -2.9948   15.6335 N.am      1 UNL1        0.0000
      3 N          17.0916  -10.8089   10.0990 N.2       1 UNL1        0.0000
      4 N          16.9070  -11.2395    8.8746 N.am      1 UNL1        0.0000
      5 C          15.8495  -11.9762    8.5061 C.2       1 UNL1        0.0000
      6 C          14.9042  -12.3022    9.4568 C.ar      1 UNL1        0.0000
      7 C          13.7947  -13.0835    9.1316 C.ar      1 UNL1        0.0000
      8 C          12.8743  -13.4147   10.1025 C.ar      1 UNL1        0.0000
      9 C          13.1113  -12.9421   11.3760 C.ar      1 UNL1        0.0000
     10 C          14.2079  -12.1664   11.7129 C.ar      1 UNL1        0.0000
     11 C          15.1114  -11.8422   10.7442 C.ar      1 UNL1        0.0000
     12 C          16.1990  -11.0895   11.0978 C.2       1 UNL1        0.0000
     13 C          16.4872  -10.4964   12.3972 C.3       1 UNL1        0.0000
     14 C          16.3761   -9.0129   12.3320 C.ar      1 UNL1        0.0000
     15 C          17.0143   -8.3116   13.3705 C.ar      1 UNL1        0.0000
     16 C          16.9590   -6.9388   13.4029 C.ar      1 UNL1        0.0000
     17 C          17.6176   -6.1724   14.4846 C.2       1 UNL1        0.0000
     18 C          17.4031   -4.6253   16.3894 C.3       1 UNL1        0.0000
     19 C          16.5952   -3.4027   16.7681 C.3       1 UNL1        0.0000
     20 C          14.8040   -3.9457   15.1440 C.3       1 UNL1        0.0000
     21 C          15.3727   -5.3407   15.1015 C.3       1 UNL1        0.0000
     22 C          15.9762   -1.7551   15.0098 C.2       1 UNL1        0.0000
     23 C          16.9391   -0.7109   15.3697 C.3       1 UNL1        0.0000
     24 C          16.3547    0.6007   15.8431 C.3       1 UNL1        0.0000
     25 C          17.0604    0.5309   14.5616 C.3       1 UNL1        0.0000
     26 C          16.3016   -6.1879   12.4574 C.ar      1 UNL1        0.0000
     27 C          15.6773   -6.8755   11.4413 C.ar      1 UNL1        0.0000
     28 C          15.7308   -8.2762   11.4058 C.ar      1 UNL1        0.0000
     29 O          15.6544  -12.3971    7.3371 O.2       1 UNL1        0.0000
     30 O          15.2162   -1.4833   14.0129 O.2       1 UNL1        0.0000
     31 O          18.8558   -6.2081   14.6703 O.2       1 UNL1        0.0000
     32 F          16.2749   -4.8255   12.5340 F         1 UNL1        0.0000
     33 H          13.6626  -13.4133    8.1627 H         1 UNL1        0.0000
     34 H          12.0464  -13.9902    9.8863 H         1 UNL1        0.0000
     35 H          12.4351  -13.1797   12.1180 H         1 UNL1        0.0000
     36 H          14.3400  -11.8379   12.6824 H         1 UNL1        0.0000
     37 H          17.4804  -10.7625   12.6933 H         1 UNL1        0.0000
     38 H          15.7775  -10.8633   13.1093 H         1 UNL1        0.0000
     39 H          17.5224   -8.8263   14.1064 H         1 UNL1        0.0000
     40 H          18.3768   -4.3095   16.0769 H         1 UNL1        0.0000
     41 H          17.4505   -5.2609   17.2495 H         1 UNL1        0.0000
     42 H          17.2548   -2.6099   17.0521 H         1 UNL1        0.0000
     43 H          15.9522   -3.6339   17.5918 H         1 UNL1        0.0000
     44 H          14.4988   -3.6606   14.1591 H         1 UNL1        0.0000
     45 H          13.9649   -3.9358   15.8080 H         1 UNL1        0.0000
     46 H          15.1732   -5.7619   14.1382 H         1 UNL1        0.0000
     47 H          14.9086   -5.9005   15.8854 H         1 UNL1        0.0000
     48 H          17.6446   -1.4353   15.7189 H         1 UNL1        0.0000
     49 H          16.7967    1.1161   16.6703 H         1 UNL1        0.0000
     50 H          15.3858    0.9281   16.1579 H         1 UNL1        0.0000
     51 H          18.0142    1.0041   14.4548 H         1 UNL1        0.0000
     52 H          16.8099    0.7954   13.5563 H         1 UNL1        0.0000
     53 H          15.1697   -6.3591   10.7051 H         1 UNL1        0.0000
     54 H          15.2539   -8.7672   10.6331 H         1 UNL1        0.0000
     55 H          17.5782  -11.0096    8.1917 H         1 UNL1        0.0000
@<TRIPOS>BOND
     1    1   18 1
     2    1   21 1
     3    1   17 am
     4    2   19 1
     5    2   20 1
     6    2   22 am
     7    3    4 1
     8    3   12 2
     9    4    5 am
    10    4   55 1
    11    5   29 2
    12    5    6 1
    13    6    7 ar
    14    6   11 ar
    15    7    8 ar
    16    7   33 1
    17    8   34 1
    18    8    9 ar
    19    9   10 ar
    20    9   35 1
    21   10   11 ar
    22   10   36 1
    23   11   12 1
    24   12   13 1
    25   13   37 1
    26   13   38 1
    27   13   14 1
    28   14   15 ar
    29   14   28 ar
    30   15   39 1
    31   15   16 ar
    32   16   26 ar
    33   16   17 1
    34   17   31 2
    35   18   19 1
    36   18   40 1
    37   18   41 1
    38   19   42 1
    39   19   43 1
    40   20   21 1
    41   20   45 1
    42   20   44 1
    43   21   46 1
    44   21   47 1
    45   22   30 2
    46   22   23 1
    47   23   25 1
    48   23   24 1
    49   23   48 1
    50   24   25 1
    51   24   49 1
    52   24   50 1
    53   25   51 1
    54   25   52 1
    55   26   27 ar
    56   26   32 1
    57   27   28 ar
    58   27   53 1
    59   28   54 1
@<TRIPOS>SUBSTRUCTURE
1 UNL1 1
@<TRIPOS>COMMENT
Olaparib
PLANTSproteinTorsions
70
3 78.4978
48 255.2037
123 5.5597
171 68.3416
348 203.0953
606 58.7806
632 87.8051
655 335.1173
678 75.6664
700 52.7071
773 5.8256
807 157.2450
891 202.7108
933 107.3972
999 225.2574
1020 192.6874
1361 344.7568
1371 312.5563
1544 249.5685
1649 65.3521
1689 15.9758
1736 246.9886
1771 169.0260
2012 110.6135
2070 247.7199
2082 75.8931
2147 163.0028
2300 121.0393
2527 177.0262
2551 188.6841
2605 126.4216
2653 216.5097
2739 1.2876
2807 181.4687
2841 313.1322
2875 340.7195
2885 250.0304
2915 273.5648
3074 39.2833
3130 67.9915
3421 93.3188
3586 65.0002
3784 190.7812
3818 54.0360
3881 95.9622
3933 53.7745
4033 89.0286
4046 117.0522
4094 81.2416
4145 293.8037
4208 123.6665
4235 98.7066
4332 237.5451
4568 65.0656
4685 271.7451
4749 330.7560
4805 256.2870
4858 180.2699
4871 230.1929
4945 220.2037
4999 254.7479
5010 213.2393
5106 201.0319
5130 133.5804
5249 248.9312
5258 48.5688
5318 268.6337
5369 116.1612
5589 261.2414
5645 311.5790
PLANTSmolcadARTstart hb
PLANTSmolcadARTstart HB
LINES
15.2162 -1.48327 14.0129 13.7598 -0.433541 14.4312 0 255 0 5
PLANTSmolcadARTstart HBCH
LINES
PLANTSmolcadARTstart HB-CHO
LINES
PLANTSmolcadARTend
PLANTSmolcadARTstart HB_WATER
LINES
PLANTSmolcadARTend

PLANTSmolcadARTend

