@<TRIPOS>MOLECULE
Olaparib_entry_00001_conf_77
55 59 1
SMALL
NO_CHARGES


@<TRIPOS>ATOM
      1 N          21.7185   10.8302   12.8855 N.am      1 UNL1        0.0000
      2 N          23.8349   10.7007   11.3847 N.am      1 UNL1        0.0000
      3 N          24.0093    8.4817   18.5791 N.2       1 UNL1        0.0000
      4 N          24.5458    7.4163   19.1230 N.am      1 UNL1        0.0000
      5 C          24.8848    7.3435   20.4178 C.2       1 UNL1        0.0000
      6 C          24.6617    8.4401   21.2249 C.ar      1 UNL1        0.0000
      7 C          25.0142    8.4250   22.5749 C.ar      1 UNL1        0.0000
      8 C          24.8016    9.5397   23.3571 C.ar      1 UNL1        0.0000
      9 C          24.2379   10.6373   22.7415 C.ar      1 UNL1        0.0000
     10 C          23.8836   10.6663   21.4031 C.ar      1 UNL1        0.0000
     11 C          24.0958    9.5572   20.6385 C.ar      1 UNL1        0.0000
     12 C          23.7561    9.6087   19.3132 C.2       1 UNL1        0.0000
     13 C          23.0974   10.6980   18.6043 C.3       1 UNL1        0.0000
     14 C          22.2149   10.1655   17.5296 C.ar      1 UNL1        0.0000
     15 C          22.1256   10.9577   16.3712 C.ar      1 UNL1        0.0000
     16 C          21.3273   10.5548   15.3275 C.ar      1 UNL1        0.0000
     17 C          21.2098   11.3685   14.0965 C.2       1 UNL1        0.0000
     18 C          21.6191   11.5830   11.6770 C.3       1 UNL1        0.0000
     19 C          22.6967   11.2254   10.6760 C.3       1 UNL1        0.0000
     20 C          23.6322    9.4626   12.1449 C.3       1 UNL1        0.0000
     21 C          22.3323    9.5155   12.9056 C.3       1 UNL1        0.0000
     22 C          25.0852   11.3256   11.3648 C.2       1 UNL1        0.0000
     23 C          25.4396   12.5656   10.6690 C.3       1 UNL1        0.0000
     24 C          25.9429   12.4143    9.2513 C.3       1 UNL1        0.0000
     25 C          26.8502   12.8656   10.3088 C.3       1 UNL1        0.0000
     26 C          20.5912    9.3939   15.3455 C.ar      1 UNL1        0.0000
     27 C          20.6793    8.6192   16.4800 C.ar      1 UNL1        0.0000
     28 C          21.4921    9.0278   17.5471 C.ar      1 UNL1        0.0000
     29 O          25.3989    6.3306   20.9578 O.2       1 UNL1        0.0000
     30 O          26.0377   10.7706   12.0203 O.2       1 UNL1        0.0000
     31 O          20.6807   12.5038   14.0941 O.2       1 UNL1        0.0000
     32 F          19.8122    9.0376   14.2830 F         1 UNL1        0.0000
     33 H          25.4341    7.5780   22.9887 H         1 UNL1        0.0000
     34 H          25.0533    9.5524   24.3570 H         1 UNL1        0.0000
     35 H          24.0715   11.4826   23.3088 H         1 UNL1        0.0000
     36 H          23.4648   11.5143   20.9897 H         1 UNL1        0.0000
     37 H          23.8392   11.3339   18.1679 H         1 UNL1        0.0000
     38 H          22.4986   11.2498   19.2988 H         1 UNL1        0.0000
     39 H          22.6577   11.8392   16.3051 H         1 UNL1        0.0000
     40 H          21.7027   12.6234   11.9138 H         1 UNL1        0.0000
     41 H          20.6736   11.3538   11.2302 H         1 UNL1        0.0000
     42 H          22.9842   12.0992   10.1301 H         1 UNL1        0.0000
     43 H          22.3258   10.4918    9.9906 H         1 UNL1        0.0000
     44 H          24.4389    9.3371   12.8364 H         1 UNL1        0.0000
     45 H          23.5990    8.6387   11.4629 H         1 UNL1        0.0000
     46 H          22.5206    9.2435   13.9233 H         1 UNL1        0.0000
     47 H          21.6548    8.8383   12.4307 H         1 UNL1        0.0000
     48 H          24.6780   13.1118   11.1848 H         1 UNL1        0.0000
     49 H          25.6217   13.0982    8.4935 H         1 UNL1        0.0000
     50 H          25.9521   11.6225    8.5316 H         1 UNL1        0.0000
     51 H          27.1960   13.8783   10.3146 H         1 UNL1        0.0000
     52 H          27.8002   12.5328   10.6693 H         1 UNL1        0.0000
     53 H          20.1468    7.7369   16.5446 H         1 UNL1        0.0000
     54 H          21.5400    8.4286   18.3863 H         1 UNL1        0.0000
     55 H          24.7071    6.6304   18.5519 H         1 UNL1        0.0000
@<TRIPOS>BOND
     1    1   18 1
     2    1   21 1
     3    1   17 am
     4    2   19 1
     5    2   20 1
     6    2   22 am
     7    3    4 1
     8    3   12 2
     9    4    5 am
    10    4   55 1
    11    5   29 2
    12    5    6 1
    13    6    7 ar
    14    6   11 ar
    15    7    8 ar
    16    7   33 1
    17    8   34 1
    18    8    9 ar
    19    9   10 ar
    20    9   35 1
    21   10   11 ar
    22   10   36 1
    23   11   12 1
    24   12   13 1
    25   13   37 1
    26   13   38 1
    27   13   14 1
    28   14   15 ar
    29   14   28 ar
    30   15   39 1
    31   15   16 ar
    32   16   26 ar
    33   16   17 1
    34   17   31 2
    35   18   19 1
    36   18   40 1
    37   18   41 1
    38   19   42 1
    39   19   43 1
    40   20   21 1
    41   20   45 1
    42   20   44 1
    43   21   46 1
    44   21   47 1
    45   22   30 2
    46   22   23 1
    47   23   25 1
    48   23   24 1
    49   23   48 1
    50   24   25 1
    51   24   49 1
    52   24   50 1
    53   25   51 1
    54   25   52 1
    55   26   27 ar
    56   26   32 1
    57   27   28 ar
    58   27   53 1
    59   28   54 1
@<TRIPOS>SUBSTRUCTURE
1 UNL1 1
@<TRIPOS>COMMENT
Olaparib
PLANTSproteinTorsions
70
3 357.6924
48 231.2403
123 195.2168
171 144.5935
348 222.9611
606 339.6586
632 182.8652
655 42.9552
678 49.6092
700 77.7774
773 130.6387
807 6.6141
891 150.1673
933 55.0401
999 194.6553
1020 87.1597
1361 232.1790
1371 265.8843
1544 5.1369
1649 80.7071
1689 5.2541
1736 225.1835
1771 260.3374
2012 31.4126
2070 74.1807
2082 193.8235
2147 12.6483
2300 199.0098
2527 34.1546
2551 9.6589
2605 18.5519
2653 70.9473
2739 238.0861
2807 163.9453
2841 224.8893
2875 151.7347
2885 37.2466
2915 189.6339
3074 135.0225
3130 126.6775
3421 135.2744
3586 248.7833
3784 224.6673
3818 254.6408
3881 31.2478
3933 100.8242
4033 161.7762
4046 258.6407
4094 128.8562
4145 189.7695
4208 165.4153
4235 145.7882
4332 235.7742
4568 231.8380
4685 185.9676
4749 19.3724
4805 296.8035
4858 54.4800
4871 105.6954
4945 126.5743
4999 136.8731
5010 46.4671
5106 127.4600
5130 225.3242
5249 146.6612
5258 188.9336
5318 302.3972
5369 254.6699
5589 63.0840
5645 207.2891
PLANTSmolcadARTstart hb
PLANTSmolcadARTstart HB
LINES
PLANTSmolcadARTstart HBCH
LINES
PLANTSmolcadARTstart HB-CHO
LINES
PLANTSmolcadARTend
PLANTSmolcadARTstart HB_WATER
LINES
PLANTSmolcadARTend

PLANTSmolcadARTend

