@<TRIPOS>MOLECULE
Olaparib_entry_00001_conf_47
55 59 1
SMALL
NO_CHARGES


@<TRIPOS>ATOM
      1 N          17.4966   -7.8886   12.7743 N.am      1 UNL1        0.0000
      2 N          16.6087   -5.9764   14.2920 N.am      1 UNL1        0.0000
      3 N          14.3619  -12.6338    7.2588 N.2       1 UNL1        0.0000
      4 N          13.1949  -13.2223    7.1579 N.am      1 UNL1        0.0000
      5 C          12.5009  -13.6649    8.2160 C.2       1 UNL1        0.0000
      6 C          13.0347  -13.4968    9.4771 C.ar      1 UNL1        0.0000
      7 C          12.3637  -13.9566   10.6109 C.ar      1 UNL1        0.0000
      8 C          12.9260  -13.7968   11.8590 C.ar      1 UNL1        0.0000
      9 C          14.1554  -13.1751   11.9159 C.ar      1 UNL1        0.0000
     10 C          14.8327  -12.7142   10.7993 C.ar      1 UNL1        0.0000
     11 C          14.2663  -12.8750    9.5692 C.ar      1 UNL1        0.0000
     12 C          14.9571  -12.4295    8.4742 C.2       1 UNL1        0.0000
     13 C          16.2214  -11.7056    8.4527 C.3       1 UNL1        0.0000
     14 C          16.0450  -10.3276    8.9886 C.ar      1 UNL1        0.0000
     15 C          17.0152   -9.9101    9.9171 C.ar      1 UNL1        0.0000
     16 C          16.9320   -8.6573   10.4759 C.ar      1 UNL1        0.0000
     17 C          17.9358   -8.1902   11.4585 C.2       1 UNL1        0.0000
     18 C          18.4359   -7.4401   13.7509 C.3       1 UNL1        0.0000
     19 C          17.7976   -6.5877   14.8266 C.3       1 UNL1        0.0000
     20 C          15.5312   -6.8766   13.8672 C.3       1 UNL1        0.0000
     21 C          16.0907   -8.0453   13.0976 C.3       1 UNL1        0.0000
     22 C          16.4656   -4.5909   14.1726 C.2       1 UNL1        0.0000
     23 C          17.4502   -3.5686   14.5370 C.3       1 UNL1        0.0000
     24 C          17.3356   -3.0001   15.9333 C.3       1 UNL1        0.0000
     25 C          17.0402   -2.1591   14.7711 C.3       1 UNL1        0.0000
     26 C          15.9329   -7.7622   10.1752 C.ar      1 UNL1        0.0000
     27 C          14.9837   -8.1719    9.2662 C.ar      1 UNL1        0.0000
     28 C          15.0651   -9.4499    8.6949 C.ar      1 UNL1        0.0000
     29 O          11.3801  -14.2303    8.1396 O.2       1 UNL1        0.0000
     30 O          15.3617   -4.1464   13.6942 O.2       1 UNL1        0.0000
     31 O          19.1459   -8.0559   11.1649 O.2       1 UNL1        0.0000
     32 F          15.8936   -6.5287   10.7581 F         1 UNL1        0.0000
     33 H          11.4448  -14.4164   10.5150 H         1 UNL1        0.0000
     34 H          12.4492  -14.1278   12.7112 H         1 UNL1        0.0000
     35 H          14.5946  -13.0467   12.8405 H         1 UNL1        0.0000
     36 H          15.7522  -12.2555   10.8958 H         1 UNL1        0.0000
     37 H          16.5777  -11.6488    7.4453 H         1 UNL1        0.0000
     38 H          16.9274  -12.2254    9.0665 H         1 UNL1        0.0000
     39 H          17.7873  -10.5428   10.1783 H         1 UNL1        0.0000
     40 H          19.1915   -6.8630   13.2595 H         1 UNL1        0.0000
     41 H          18.8466   -8.3069   14.2262 H         1 UNL1        0.0000
     42 H          18.4839   -5.8285   15.1377 H         1 UNL1        0.0000
     43 H          17.5452   -7.1969   15.6696 H         1 UNL1        0.0000
     44 H          14.8483   -6.3394   13.2429 H         1 UNL1        0.0000
     45 H          15.0259   -7.2458   14.7351 H         1 UNL1        0.0000
     46 H          15.5412   -8.1481   12.1851 H         1 UNL1        0.0000
     47 H          15.9993   -8.9114   13.7179 H         1 UNL1        0.0000
     48 H          18.2007   -4.0269   13.9278 H         1 UNL1        0.0000
     49 H          18.2175   -2.8220   16.5127 H         1 UNL1        0.0000
     50 H          16.8083   -3.2766   16.8224 H         1 UNL1        0.0000
     51 H          17.7051   -1.3623   14.5102 H         1 UNL1        0.0000
     52 H          16.2023   -1.5656   14.4731 H         1 UNL1        0.0000
     53 H          14.2120   -7.5375    9.0052 H         1 UNL1        0.0000
     54 H          14.3402   -9.7323    8.0164 H         1 UNL1        0.0000
     55 H          12.8087  -13.3448    6.2603 H         1 UNL1        0.0000
@<TRIPOS>BOND
     1    1   18 1
     2    1   21 1
     3    1   17 am
     4    2   19 1
     5    2   20 1
     6    2   22 am
     7    3    4 1
     8    3   12 2
     9    4    5 am
    10    4   55 1
    11    5   29 2
    12    5    6 1
    13    6    7 ar
    14    6   11 ar
    15    7    8 ar
    16    7   33 1
    17    8   34 1
    18    8    9 ar
    19    9   10 ar
    20    9   35 1
    21   10   11 ar
    22   10   36 1
    23   11   12 1
    24   12   13 1
    25   13   37 1
    26   13   38 1
    27   13   14 1
    28   14   15 ar
    29   14   28 ar
    30   15   39 1
    31   15   16 ar
    32   16   26 ar
    33   16   17 1
    34   17   31 2
    35   18   19 1
    36   18   40 1
    37   18   41 1
    38   19   42 1
    39   19   43 1
    40   20   21 1
    41   20   45 1
    42   20   44 1
    43   21   46 1
    44   21   47 1
    45   22   30 2
    46   22   23 1
    47   23   25 1
    48   23   24 1
    49   23   48 1
    50   24   25 1
    51   24   49 1
    52   24   50 1
    53   25   51 1
    54   25   52 1
    55   26   27 ar
    56   26   32 1
    57   27   28 ar
    58   27   53 1
    59   28   54 1
@<TRIPOS>SUBSTRUCTURE
1 UNL1 1
@<TRIPOS>COMMENT
Olaparib
PLANTSproteinTorsions
70
3 24.3070
48 261.6147
123 12.8478
171 142.6849
348 124.4933
606 92.9895
632 261.3657
655 66.4063
678 68.4408
700 73.1118
773 167.5742
807 103.8030
891 57.8548
933 14.9928
999 176.7359
1020 57.5428
1361 128.3770
1371 193.5225
1544 120.5525
1649 107.5854
1689 269.5738
1736 208.3108
1771 85.5884
2012 317.5333
2070 328.6581
2082 226.7316
2147 352.2319
2300 273.3835
2527 288.0063
2551 61.1627
2605 180.2399
2653 96.3814
2739 38.0962
2807 97.9139
2841 351.3908
2875 11.7918
2885 166.2470
2915 108.7229
3074 118.9902
3130 148.8602
3421 145.7381
3586 292.4307
3784 129.7551
3818 105.8354
3881 262.0830
3933 193.1529
4033 106.3882
4046 289.3365
4094 46.3409
4145 293.1046
4208 115.8940
4235 223.5120
4332 237.5248
4568 270.5077
4685 271.5987
4749 121.2364
4805 259.6117
4858 215.9853
4871 46.7799
4945 108.6243
4999 287.4280
5010 144.5013
5106 267.0224
5130 119.5279
5249 175.7222
5258 205.4909
5318 50.2538
5369 71.5450
5589 215.7079
5645 286.7444
PLANTSmolcadARTstart hb
PLANTSmolcadARTstart HB
LINES
19.1459 -8.05589 11.1649 20.767 -9.275 11.654 0 255 0 5
PLANTSmolcadARTstart HBCH
LINES
PLANTSmolcadARTstart HB-CHO
LINES
PLANTSmolcadARTend
PLANTSmolcadARTstart HB_WATER
LINES
PLANTSmolcadARTend

PLANTSmolcadARTend

