@<TRIPOS>MOLECULE
Olaparib_entry_00001_conf_68
55 59 1
SMALL
NO_CHARGES


@<TRIPOS>ATOM
      1 N          17.3658   -8.5550   12.2558 N.am      1 UNL1        0.0000
      2 N          17.9058   -9.4343    9.8718 N.am      1 UNL1        0.0000
      3 N          17.9190   -1.9055   14.2481 N.2       1 UNL1        0.0000
      4 N          18.8333   -1.0493   13.8614 N.am      1 UNL1        0.0000
      5 C          20.0669   -1.0051   14.3839 C.2       1 UNL1        0.0000
      6 C          20.3986   -1.9017   15.3788 C.ar      1 UNL1        0.0000
      7 C          21.6620   -1.8862   15.9710 C.ar      1 UNL1        0.0000
      8 C          21.9642   -2.7774   16.9780 C.ar      1 UNL1        0.0000
      9 C          20.9709   -3.6569   17.3534 C.ar      1 UNL1        0.0000
     10 C          19.7129   -3.6833   16.7748 C.ar      1 UNL1        0.0000
     11 C          19.4250   -2.7989   15.7774 C.ar      1 UNL1        0.0000
     12 C          18.1711   -2.8267   15.2284 C.2       1 UNL1        0.0000
     13 C          17.0926   -3.7627   15.5179 C.3       1 UNL1        0.0000
     14 C          16.6064   -4.4052   14.2656 C.ar      1 UNL1        0.0000
     15 C          16.6869   -5.8088   14.2344 C.ar      1 UNL1        0.0000
     16 C          16.2717   -6.4925   13.1169 C.ar      1 UNL1        0.0000
     17 C          16.3470   -7.9695   13.0523 C.2       1 UNL1        0.0000
     18 C          17.4733   -9.9758   12.1726 C.3       1 UNL1        0.0000
     19 C          18.1158  -10.4381   10.8824 C.3       1 UNL1        0.0000
     20 C          18.5005   -8.1148   10.1111 C.3       1 UNL1        0.0000
     21 C          18.2819   -7.6870   11.5395 C.3       1 UNL1        0.0000
     22 C          17.1714   -9.6823    8.7084 C.2       1 UNL1        0.0000
     23 C          16.5085  -10.9345    8.3349 C.3       1 UNL1        0.0000
     24 C          17.2894  -12.2040    8.5890 C.3       1 UNL1        0.0000
     25 C          17.0212  -11.7688    7.2165 C.3       1 UNL1        0.0000
     26 C          15.7683   -5.8732   11.9975 C.ar      1 UNL1        0.0000
     27 C          15.6901   -4.4992   12.0292 C.ar      1 UNL1        0.0000
     28 C          16.1138   -3.7984   13.1674 C.ar      1 UNL1        0.0000
     29 O          20.9574   -0.1925   14.0255 O.2       1 UNL1        0.0000
     30 O          17.0525   -8.7234    7.8647 O.2       1 UNL1        0.0000
     31 O          15.5473   -8.7070   13.6730 O.2       1 UNL1        0.0000
     32 F          15.3696   -6.5972   10.9115 F         1 UNL1        0.0000
     33 H          22.3716   -1.2070   15.6542 H         1 UNL1        0.0000
     34 H          22.8908   -2.7854   17.4303 H         1 UNL1        0.0000
     35 H          21.1759   -4.3316   18.1063 H         1 UNL1        0.0000
     36 H          19.0034   -4.3621   17.0929 H         1 UNL1        0.0000
     37 H          16.2839   -3.2362   15.9804 H         1 UNL1        0.0000
     38 H          17.4623   -4.5235   16.1735 H         1 UNL1        0.0000
     39 H          17.0569   -6.3239   15.0482 H         1 UNL1        0.0000
     40 H          16.4918  -10.3978   12.2373 H         1 UNL1        0.0000
     41 H          18.0975  -10.3005   12.9794 H         1 UNL1        0.0000
     42 H          17.6728  -11.3606   10.5709 H         1 UNL1        0.0000
     43 H          19.1647  -10.5878   11.0331 H         1 UNL1        0.0000
     44 H          18.0472   -7.3997    9.4570 H         1 UNL1        0.0000
     45 H          19.5528   -8.1703    9.9252 H         1 UNL1        0.0000
     46 H          17.8819   -6.6945   11.5416 H         1 UNL1        0.0000
     47 H          19.2266   -7.7373   12.0377 H         1 UNL1        0.0000
     48 H          15.5457  -10.5355    8.5760 H         1 UNL1        0.0000
     49 H          16.7945  -13.0670    8.9834 H         1 UNL1        0.0000
     50 H          18.1676  -12.4538    9.1470 H         1 UNL1        0.0000
     51 H          16.3357  -12.3220    6.6090 H         1 UNL1        0.0000
     52 H          17.6337  -11.5769    6.3613 H         1 UNL1        0.0000
     53 H          15.3190   -3.9849   11.2143 H         1 UNL1        0.0000
     54 H          16.0447   -2.7685   13.1649 H         1 UNL1        0.0000
     55 H          18.6023   -0.4071   13.1514 H         1 UNL1        0.0000
@<TRIPOS>BOND
     1    1   18 1
     2    1   21 1
     3    1   17 am
     4    2   19 1
     5    2   20 1
     6    2   22 am
     7    3    4 1
     8    3   12 2
     9    4    5 am
    10    4   55 1
    11    5   29 2
    12    5    6 1
    13    6    7 ar
    14    6   11 ar
    15    7    8 ar
    16    7   33 1
    17    8   34 1
    18    8    9 ar
    19    9   10 ar
    20    9   35 1
    21   10   11 ar
    22   10   36 1
    23   11   12 1
    24   12   13 1
    25   13   37 1
    26   13   38 1
    27   13   14 1
    28   14   15 ar
    29   14   28 ar
    30   15   39 1
    31   15   16 ar
    32   16   26 ar
    33   16   17 1
    34   17   31 2
    35   18   19 1
    36   18   40 1
    37   18   41 1
    38   19   42 1
    39   19   43 1
    40   20   21 1
    41   20   45 1
    42   20   44 1
    43   21   46 1
    44   21   47 1
    45   22   30 2
    46   22   23 1
    47   23   25 1
    48   23   24 1
    49   23   48 1
    50   24   25 1
    51   24   49 1
    52   24   50 1
    53   25   51 1
    54   25   52 1
    55   26   27 ar
    56   26   32 1
    57   27   28 ar
    58   27   53 1
    59   28   54 1
@<TRIPOS>SUBSTRUCTURE
1 UNL1 1
@<TRIPOS>COMMENT
Olaparib
PLANTSproteinTorsions
70
3 229.8299
48 231.3232
123 159.5974
171 50.6655
348 91.2455
606 259.2865
632 56.0064
655 87.2871
678 110.0150
700 192.3191
773 334.1447
807 155.0394
891 265.5180
933 158.9233
999 60.5125
1020 57.6962
1361 167.9696
1371 16.0018
1544 70.6502
1649 349.5581
1689 60.2717
1736 19.8592
1771 56.3222
2012 235.8012
2070 150.8166
2082 197.8495
2147 199.3374
2300 39.2436
2527 189.4377
2551 176.8204
2605 127.9232
2653 49.1761
2739 274.9108
2807 241.8610
2841 323.8982
2875 215.3539
2885 154.7325
2915 111.7248
3074 52.7290
3130 314.9384
3421 66.5931
3586 4.2758
3784 144.5256
3818 62.6750
3881 121.7960
3933 69.8251
4033 65.6376
4046 94.3092
4094 122.6652
4145 1.6053
4208 75.1312
4235 159.1828
4332 177.2705
4568 313.4229
4685 352.1026
4749 52.7472
4805 223.5182
4858 143.6205
4871 16.9685
4945 174.1928
4999 276.6938
5010 210.7456
5106 228.2999
5130 115.9327
5249 305.0722
5258 24.8371
5318 240.2847
5369 141.7482
5589 270.7424
5645 257.2201
PLANTSmolcadARTstart hb
PLANTSmolcadARTstart HB
LINES
PLANTSmolcadARTstart HBCH
LINES
PLANTSmolcadARTstart HB-CHO
LINES
PLANTSmolcadARTend
PLANTSmolcadARTstart HB_WATER
LINES
PLANTSmolcadARTend

PLANTSmolcadARTend

