@<TRIPOS>MOLECULE
Olaparib_entry_00001_conf_33
55 59 1
SMALL
NO_CHARGES


@<TRIPOS>ATOM
      1 N         -17.6132   -4.6500    8.5909 N.am      1 UNL1        0.0000
      2 N         -17.2044   -2.0852    8.6437 N.am      1 UNL1        0.0000
      3 N         -13.6557   -9.4114   12.8003 N.2       1 UNL1        0.0000
      4 N         -13.3608  -10.3919   13.6189 N.am      1 UNL1        0.0000
      5 C         -13.6414  -11.6766   13.3584 C.2       1 UNL1        0.0000
      6 C         -14.2721  -11.9907   12.1721 C.ar      1 UNL1        0.0000
      7 C         -14.6051  -13.3094   11.8602 C.ar      1 UNL1        0.0000
      8 C         -15.2541  -13.5972   10.6789 C.ar      1 UNL1        0.0000
      9 C         -15.5464  -12.5340    9.8509 C.ar      1 UNL1        0.0000
     10 C         -15.2223  -11.2208   10.1479 C.ar      1 UNL1        0.0000
     11 C         -14.5778  -10.9471   11.3182 C.ar      1 UNL1        0.0000
     12 C         -14.2804   -9.6417   11.6045 C.2       1 UNL1        0.0000
     13 C         -14.4916   -8.4740   10.7590 C.3       1 UNL1        0.0000
     14 C         -15.7547   -7.7790   11.1317 C.ar      1 UNL1        0.0000
     15 C         -16.4095   -7.1089   10.0829 C.ar      1 UNL1        0.0000
     16 C         -17.5780   -6.4292   10.3303 C.ar      1 UNL1        0.0000
     17 C         -18.2888   -5.7114    9.2482 C.2       1 UNL1        0.0000
     18 C         -18.2640   -3.9375    7.5393 C.3       1 UNL1        0.0000
     19 C         -17.7456   -2.5240    7.3838 C.3       1 UNL1        0.0000
     20 C         -16.0540   -2.8289    9.1687 C.3       1 UNL1        0.0000
     21 C         -16.2647   -4.3124    9.0074 C.3       1 UNL1        0.0000
     22 C         -17.7348   -1.0035    9.3528 C.2       1 UNL1        0.0000
     23 C         -18.8817   -0.1758    8.9698 C.3       1 UNL1        0.0000
     24 C         -18.5915    0.9713    8.0285 C.3       1 UNL1        0.0000
     25 C         -18.9874    1.2391    9.4129 C.3       1 UNL1        0.0000
     26 C         -18.1631   -6.3622   11.5725 C.ar      1 UNL1        0.0000
     27 C         -17.5213   -7.0185   12.5984 C.ar      1 UNL1        0.0000
     28 C         -16.3283   -7.7121   12.3496 C.ar      1 UNL1        0.0000
     29 O         -13.3654  -12.6306   14.1300 O.2       1 UNL1        0.0000
     30 O         -17.1720   -0.6855   10.4607 O.2       1 UNL1        0.0000
     31 O         -19.4543   -6.0110    8.9011 O.2       1 UNL1        0.0000
     32 F         -19.3249   -5.6731   11.7674 F         1 UNL1        0.0000
     33 H         -14.3645  -14.0704   12.5143 H         1 UNL1        0.0000
     34 H         -15.5100  -14.5636   10.4262 H         1 UNL1        0.0000
     35 H         -16.0332  -12.7275    8.9622 H         1 UNL1        0.0000
     36 H         -15.4643  -10.4600    9.4937 H         1 UNL1        0.0000
     37 H         -14.5492   -8.7850    9.7367 H         1 UNL1        0.0000
     38 H         -13.6739   -7.7970   10.8946 H         1 UNL1        0.0000
     39 H         -16.0135   -7.1272    9.1303 H         1 UNL1        0.0000
     40 H         -19.3124   -3.8969    7.7510 H         1 UNL1        0.0000
     41 H         -18.0649   -4.4576    6.6250 H         1 UNL1        0.0000
     42 H         -18.5464   -1.8777    7.0915 H         1 UNL1        0.0000
     43 H         -16.9839   -2.4978    6.6324 H         1 UNL1        0.0000
     44 H         -15.9317   -2.6023   10.2071 H         1 UNL1        0.0000
     45 H         -15.1789   -2.5438    8.6230 H         1 UNL1        0.0000
     46 H         -16.0689   -4.7893    9.9451 H         1 UNL1        0.0000
     47 H         -15.5990   -4.6497    8.2417 H         1 UNL1        0.0000
     48 H         -19.5443   -1.0144    9.0154 H         1 UNL1        0.0000
     49 H         -19.2661    1.1896    7.2269 H         1 UNL1        0.0000
     50 H         -17.7656    1.2516    7.4086 H         1 UNL1        0.0000
     51 H         -19.9493    1.6612    9.6173 H         1 UNL1        0.0000
     52 H         -18.5622    1.8046   10.2146 H         1 UNL1        0.0000
     53 H         -17.9191   -6.9999   13.5511 H         1 UNL1        0.0000
     54 H         -15.8671   -8.1954   13.1366 H         1 UNL1        0.0000
     55 H         -12.9103  -10.1738   14.4670 H         1 UNL1        0.0000
@<TRIPOS>BOND
     1    1   18 1
     2    1   21 1
     3    1   17 am
     4    2   19 1
     5    2   20 1
     6    2   22 am
     7    3    4 1
     8    3   12 2
     9    4    5 am
    10    4   55 1
    11    5   29 2
    12    5    6 1
    13    6    7 ar
    14    6   11 ar
    15    7    8 ar
    16    7   33 1
    17    8   34 1
    18    8    9 ar
    19    9   10 ar
    20    9   35 1
    21   10   11 ar
    22   10   36 1
    23   11   12 1
    24   12   13 1
    25   13   37 1
    26   13   38 1
    27   13   14 1
    28   14   15 ar
    29   14   28 ar
    30   15   39 1
    31   15   16 ar
    32   16   26 ar
    33   16   17 1
    34   17   31 2
    35   18   19 1
    36   18   40 1
    37   18   41 1
    38   19   42 1
    39   19   43 1
    40   20   21 1
    41   20   45 1
    42   20   44 1
    43   21   46 1
    44   21   47 1
    45   22   30 2
    46   22   23 1
    47   23   25 1
    48   23   24 1
    49   23   48 1
    50   24   25 1
    51   24   49 1
    52   24   50 1
    53   25   51 1
    54   25   52 1
    55   26   27 ar
    56   26   32 1
    57   27   28 ar
    58   27   53 1
    59   28   54 1
@<TRIPOS>SUBSTRUCTURE
1 UNL1 1
@<TRIPOS>COMMENT
Olaparib
PLANTSproteinTorsions
70
3 315.2794
48 23.7846
123 317.4063
171 97.2284
348 315.1427
606 18.6524
632 204.4517
655 347.7637
678 126.6402
700 24.6657
773 28.9337
807 71.8816
891 50.7369
933 139.0972
999 105.5064
1020 111.4767
1361 183.0386
1371 356.1832
1544 184.7125
1649 43.8057
1689 122.4859
1736 201.2009
1771 166.4310
2012 38.4971
2070 151.3372
2082 105.1153
2147 331.9121
2300 105.1875
2527 268.7247
2551 8.7745
2605 331.3731
2653 30.1194
2739 32.3992
2807 274.5054
2841 72.7133
2875 23.2423
2885 138.6275
2915 237.9505
3074 337.4981
3130 24.6849
3421 60.1907
3586 219.3931
3784 179.4478
3818 27.7179
3881 202.9917
3933 189.7309
4033 11.5518
4046 172.3697
4094 202.6402
4145 286.5495
4208 177.7056
4235 207.6802
4332 65.1716
4568 303.9116
4685 178.8902
4749 284.3542
4805 319.4727
4858 253.5545
4871 170.8814
4945 287.1720
4999 105.0240
5010 236.5603
5106 234.9138
5130 238.2499
5249 309.7613
5258 107.2768
5318 72.9210
5369 302.0093
5589 69.2522
5645 187.1689
PLANTSmolcadARTstart hb
PLANTSmolcadARTstart HB
LINES
-17.172 -0.68552 10.4607 -16.1929 -1.66974 12.037 0 255 0 5
PLANTSmolcadARTstart HBCH
LINES
PLANTSmolcadARTstart HB-CHO
LINES
PLANTSmolcadARTend
PLANTSmolcadARTstart HB_WATER
LINES
PLANTSmolcadARTend

PLANTSmolcadARTend

