@<TRIPOS>MOLECULE
Olaparib_entry_00001_conf_89
55 59 1
SMALL
NO_CHARGES


@<TRIPOS>ATOM
      1 N           9.1070   14.0290    2.3344 N.am      1 UNL1        0.0000
      2 N           6.6002   14.6996    2.2146 N.am      1 UNL1        0.0000
      3 N          11.1457    8.8319    7.1349 N.2       1 UNL1        0.0000
      4 N          11.5898    7.7267    7.6827 N.am      1 UNL1        0.0000
      5 C          12.8934    7.4525    7.8316 C.2       1 UNL1        0.0000
      6 C          13.8202    8.3737    7.3887 C.ar      1 UNL1        0.0000
      7 C          15.1894    8.1296    7.5010 C.ar      1 UNL1        0.0000
      8 C          16.0970    9.0548    7.0322 C.ar      1 UNL1        0.0000
      9 C          15.5839   10.2004    6.4615 C.ar      1 UNL1        0.0000
     10 C          14.2279   10.4555    6.3432 C.ar      1 UNL1        0.0000
     11 C          13.3383    9.5346    6.8126 C.ar      1 UNL1        0.0000
     12 C          12.0014    9.7944    6.6719 C.2       1 UNL1        0.0000
     13 C          11.3794   11.0026    6.1462 C.3       1 UNL1        0.0000
     14 C          10.9272   10.7910    4.7433 C.ar      1 UNL1        0.0000
     15 C          10.7182   11.9609    3.9914 C.ar      1 UNL1        0.0000
     16 C          10.2901   11.8687    2.6887 C.ar      1 UNL1        0.0000
     17 C          10.0579   13.0816    1.8725 C.2       1 UNL1        0.0000
     18 C           8.8593   15.2132    1.5772 C.3       1 UNL1        0.0000
     19 C           7.4701   15.7703    1.8024 C.3       1 UNL1        0.0000
     20 C           6.9228   14.0298    3.4792 C.3       1 UNL1        0.0000
     21 C           8.4038   13.7684    3.5767 C.3       1 UNL1        0.0000
     22 C           5.4937   14.2985    1.4602 C.2       1 UNL1        0.0000
     23 C           5.0523   14.8553    0.1787 C.3       1 UNL1        0.0000
     24 C           3.9701   15.9091    0.2468 C.3       1 UNL1        0.0000
     25 C           3.6824   14.5973   -0.3376 C.3       1 UNL1        0.0000
     26 C          10.0475   10.6717    2.0574 C.ar      1 UNL1        0.0000
     27 C          10.2524    9.5273    2.7944 C.ar      1 UNL1        0.0000
     28 C          10.6882    9.6178    4.1242 C.ar      1 UNL1        0.0000
     29 O          13.3386    6.3992    8.3554 O.2       1 UNL1        0.0000
     30 O           4.7752   13.3413    1.9214 O.2       1 UNL1        0.0000
     31 O          10.6695   13.2923    0.8000 O.2       1 UNL1        0.0000
     32 F           9.6224   10.6328    0.7611 F         1 UNL1        0.0000
     33 H          15.5233    7.2555    7.9363 H         1 UNL1        0.0000
     34 H          17.1135    8.8971    7.1044 H         1 UNL1        0.0000
     35 H          16.2462   10.9054    6.1030 H         1 UNL1        0.0000
     36 H          13.8948   11.3294    5.9066 H         1 UNL1        0.0000
     37 H          12.0888   11.8033    6.1705 H         1 UNL1        0.0000
     38 H          10.5285   11.2433    6.7490 H         1 UNL1        0.0000
     39 H          10.8855   12.8859    4.4166 H         1 UNL1        0.0000
     40 H           8.9729   14.9851    0.5377 H         1 UNL1        0.0000
     41 H           9.5613   15.9549    1.8984 H         1 UNL1        0.0000
     42 H           7.1045   16.2017    0.8944 H         1 UNL1        0.0000
     43 H           7.5008   16.5255    2.5602 H         1 UNL1        0.0000
     44 H           6.3978   13.0990    3.5293 H         1 UNL1        0.0000
     45 H           6.6305   14.6628    4.2909 H         1 UNL1        0.0000
     46 H           8.5530   12.7428    3.8433 H         1 UNL1        0.0000
     47 H           8.7992   14.4338    4.3143 H         1 UNL1        0.0000
     48 H           6.0305   14.7510   -0.2415 H         1 UNL1        0.0000
     49 H           4.0253   16.7742   -0.3807 H         1 UNL1        0.0000
     50 H           3.5395   16.5028    1.0259 H         1 UNL1        0.0000
     51 H           3.5196   14.5102   -1.3916 H         1 UNL1        0.0000
     52 H           2.9450   13.8448   -0.1554 H         1 UNL1        0.0000
     53 H          10.0851    8.6021    2.3675 H         1 UNL1        0.0000
     54 H          10.8336    8.7442    4.6546 H         1 UNL1        0.0000
     55 H          10.9330    7.0656    8.0010 H         1 UNL1        0.0000
@<TRIPOS>BOND
     1    1   18 1
     2    1   21 1
     3    1   17 am
     4    2   19 1
     5    2   20 1
     6    2   22 am
     7    3    4 1
     8    3   12 2
     9    4    5 am
    10    4   55 1
    11    5   29 2
    12    5    6 1
    13    6    7 ar
    14    6   11 ar
    15    7    8 ar
    16    7   33 1
    17    8   34 1
    18    8    9 ar
    19    9   10 ar
    20    9   35 1
    21   10   11 ar
    22   10   36 1
    23   11   12 1
    24   12   13 1
    25   13   37 1
    26   13   38 1
    27   13   14 1
    28   14   15 ar
    29   14   28 ar
    30   15   39 1
    31   15   16 ar
    32   16   26 ar
    33   16   17 1
    34   17   31 2
    35   18   19 1
    36   18   40 1
    37   18   41 1
    38   19   42 1
    39   19   43 1
    40   20   21 1
    41   20   45 1
    42   20   44 1
    43   21   46 1
    44   21   47 1
    45   22   30 2
    46   22   23 1
    47   23   25 1
    48   23   24 1
    49   23   48 1
    50   24   25 1
    51   24   49 1
    52   24   50 1
    53   25   51 1
    54   25   52 1
    55   26   27 ar
    56   26   32 1
    57   27   28 ar
    58   27   53 1
    59   28   54 1
@<TRIPOS>SUBSTRUCTURE
1 UNL1 1
@<TRIPOS>COMMENT
Olaparib
PLANTSproteinTorsions
70
3 122.0926
48 306.5380
123 20.7499
171 58.1529
348 13.5590
606 147.8853
632 202.2617
655 317.7953
678 4.8016
700 2.9681
773 91.2541
807 115.3803
891 137.8338
933 116.2075
999 355.6599
1020 199.6640
1361 163.2513
1371 142.1464
1544 261.8265
1649 240.6072
1689 339.6890
1736 66.2875
1771 9.8133
2012 33.5086
2070 245.8112
2082 203.7534
2147 320.2752
2300 160.8537
2527 105.0754
2551 93.3172
2605 71.5503
2653 45.9035
2739 304.5530
2807 255.1729
2841 128.9933
2875 112.9465
2885 5.5888
2915 94.1130
3074 128.3908
3130 142.8430
3421 132.2220
3586 273.0714
3784 262.0638
3818 30.9136
3881 71.8691
3933 146.4932
4033 245.6704
4046 270.0191
4094 322.2586
4145 250.6089
4208 173.9228
4235 191.3401
4332 150.5390
4568 265.8107
4685 149.3259
4749 55.5488
4805 64.9956
4858 250.1455
4871 84.4158
4945 151.2646
4999 249.2651
5010 182.5908
5106 26.8538
5130 225.0908
5249 280.5794
5258 157.8268
5318 221.7338
5369 123.6427
5589 86.8576
5645 125.2424
PLANTSmolcadARTstart hb
PLANTSmolcadARTstart HB
LINES
13.3386 6.3992 8.35536 15.126 5.6 7.995 0 255 0 5
PLANTSmolcadARTstart HBCH
LINES
PLANTSmolcadARTstart HB-CHO
LINES
PLANTSmolcadARTend
PLANTSmolcadARTstart HB_WATER
LINES
PLANTSmolcadARTend

PLANTSmolcadARTend

