@<TRIPOS>MOLECULE
Olaparib_entry_00001_conf_76
55 59 1
SMALL
NO_CHARGES


@<TRIPOS>ATOM
      1 N          17.3051   -8.7492   12.0670 N.am      1 UNL1        0.0000
      2 N          17.6522   -9.1410    9.5225 N.am      1 UNL1        0.0000
      3 N          15.5534   -1.7770   14.9923 N.2       1 UNL1        0.0000
      4 N          15.8572   -0.6260   15.5414 N.am      1 UNL1        0.0000
      5 C          16.4124    0.3882   14.8632 C.2       1 UNL1        0.0000
      6 C          16.6811    0.2202   13.5203 C.ar      1 UNL1        0.0000
      7 C          17.2766    1.2362   12.7719 C.ar      1 UNL1        0.0000
      8 C          17.5553    1.0383   11.4367 C.ar      1 UNL1        0.0000
      9 C          17.2210   -0.1884   10.9033 C.ar      1 UNL1        0.0000
     10 C          16.6302   -1.2056   11.6342 C.ar      1 UNL1        0.0000
     11 C          16.3562   -0.9986   12.9540 C.ar      1 UNL1        0.0000
     12 C          15.7881   -2.0207   13.6662 C.2       1 UNL1        0.0000
     13 C          15.3437   -3.3152   13.1663 C.3       1 UNL1        0.0000
     14 C          16.3108   -4.3825   13.5441 C.ar      1 UNL1        0.0000
     15 C          15.9708   -5.6824   13.1290 C.ar      1 UNL1        0.0000
     16 C          16.7960   -6.7367   13.4393 C.ar      1 UNL1        0.0000
     17 C          16.4638   -8.1169   13.0196 C.2       1 UNL1        0.0000
     18 C          17.0199  -10.0813   11.6414 C.3       1 UNL1        0.0000
     19 C          17.5480  -10.3767   10.2540 C.3       1 UNL1        0.0000
     20 C          18.5798   -8.1332   10.0478 C.3       1 UNL1        0.0000
     21 C          18.4454   -8.0194   11.5446 C.3       1 UNL1        0.0000
     22 C          16.9126   -8.8902    8.3631 C.2       1 UNL1        0.0000
     23 C          15.9420   -9.7843    7.7263 C.3       1 UNL1        0.0000
     24 C          16.4549  -11.1494    7.3269 C.3       1 UNL1        0.0000
     25 C          16.0817  -10.1751    6.2989 C.3       1 UNL1        0.0000
     26 C          17.9651   -6.5961   14.1488 C.ar      1 UNL1        0.0000
     27 C          18.2969   -5.3232   14.5546 C.ar      1 UNL1        0.0000
     28 C          17.4567   -4.2454   14.2406 C.ar      1 UNL1        0.0000
     29 O          16.7096    1.4995   15.3717 O.2       1 UNL1        0.0000
     30 O          17.0871   -7.7615    7.7792 O.2       1 UNL1        0.0000
     31 O          15.4741   -8.7340   13.4761 O.2       1 UNL1        0.0000
     32 F          18.7507   -7.6754   14.4326 F         1 UNL1        0.0000
     33 H          17.5082    2.1374   13.2183 H         1 UNL1        0.0000
     34 H          17.9945    1.7741   10.8631 H         1 UNL1        0.0000
     35 H          17.4224   -0.3578    9.9059 H         1 UNL1        0.0000
     36 H          16.3999   -2.1071   11.1873 H         1 UNL1        0.0000
     37 H          15.2649   -3.2728   12.0999 H         1 UNL1        0.0000
     38 H          14.3923   -3.5444   13.5992 H         1 UNL1        0.0000
     39 H          15.1041   -5.8443   12.5932 H         1 UNL1        0.0000
     40 H          15.9587  -10.2209   11.6413 H         1 UNL1        0.0000
     41 H          17.5066  -10.7492   12.3219 H         1 UNL1        0.0000
     42 H          16.8777  -11.0391    9.7479 H         1 UNL1        0.0000
     43 H          18.5104  -10.8399   10.3235 H         1 UNL1        0.0000
     44 H          18.3603   -7.1856    9.6024 H         1 UNL1        0.0000
     45 H          19.5812   -8.4284    9.8133 H         1 UNL1        0.0000
     46 H          18.3341   -6.9862   11.8001 H         1 UNL1        0.0000
     47 H          19.3246   -8.4452   11.9790 H         1 UNL1        0.0000
     48 H          15.1387   -9.3784    8.3045 H         1 UNL1        0.0000
     49 H          15.8490  -12.0169    7.4874 H         1 UNL1        0.0000
     50 H          17.3317  -11.7225    7.5454 H         1 UNL1        0.0000
     51 H          15.2068  -10.3393    5.7051 H         1 UNL1        0.0000
     52 H          16.5830   -9.7523    5.4544 H         1 UNL1        0.0000
     53 H          19.1649   -5.1626   15.0903 H         1 UNL1        0.0000
     54 H          17.7287   -3.3012   14.5572 H         1 UNL1        0.0000
     55 H          15.6674   -0.5002   16.4995 H         1 UNL1        0.0000
@<TRIPOS>BOND
     1    1   18 1
     2    1   21 1
     3    1   17 am
     4    2   19 1
     5    2   20 1
     6    2   22 am
     7    3    4 1
     8    3   12 2
     9    4    5 am
    10    4   55 1
    11    5   29 2
    12    5    6 1
    13    6    7 ar
    14    6   11 ar
    15    7    8 ar
    16    7   33 1
    17    8   34 1
    18    8    9 ar
    19    9   10 ar
    20    9   35 1
    21   10   11 ar
    22   10   36 1
    23   11   12 1
    24   12   13 1
    25   13   37 1
    26   13   38 1
    27   13   14 1
    28   14   15 ar
    29   14   28 ar
    30   15   39 1
    31   15   16 ar
    32   16   26 ar
    33   16   17 1
    34   17   31 2
    35   18   19 1
    36   18   40 1
    37   18   41 1
    38   19   42 1
    39   19   43 1
    40   20   21 1
    41   20   45 1
    42   20   44 1
    43   21   46 1
    44   21   47 1
    45   22   30 2
    46   22   23 1
    47   23   25 1
    48   23   24 1
    49   23   48 1
    50   24   25 1
    51   24   49 1
    52   24   50 1
    53   25   51 1
    54   25   52 1
    55   26   27 ar
    56   26   32 1
    57   27   28 ar
    58   27   53 1
    59   28   54 1
@<TRIPOS>SUBSTRUCTURE
1 UNL1 1
@<TRIPOS>COMMENT
Olaparib
PLANTSproteinTorsions
70
3 62.4037
48 130.8919
123 120.7410
171 322.1302
348 37.5271
606 13.5352
632 320.4483
655 143.6176
678 67.8881
700 136.4184
773 163.6327
807 40.6102
891 169.3031
933 124.2305
999 256.6113
1020 130.5099
1361 243.1427
1371 59.1394
1544 60.1729
1649 43.2614
1689 258.3234
1736 49.7442
1771 92.3274
2012 79.9626
2070 292.1240
2082 188.1336
2147 80.0828
2300 151.7699
2527 150.4396
2551 230.0435
2605 196.3266
2653 160.5791
2739 153.0723
2807 289.5972
2841 144.3640
2875 35.9706
2885 166.1747
2915 256.3536
3074 66.9858
3130 13.2095
3421 26.6283
3586 44.3685
3784 166.8491
3818 353.9014
3881 99.9235
3933 35.0720
4033 68.8743
4046 162.0316
4094 351.3696
4145 42.7690
4208 38.7417
4235 201.0716
4332 351.5044
4568 175.0631
4685 105.7931
4749 6.5806
4805 75.7108
4858 237.7934
4871 20.9258
4945 219.5119
4999 149.9182
5010 306.6936
5106 233.8525
5130 208.6300
5249 306.6070
5258 354.1529
5318 207.5442
5369 192.0402
5589 263.5515
5645 136.3670
PLANTSmolcadARTstart hb
PLANTSmolcadARTstart HB
LINES
15.6674 -0.500157 16.4995 14.734 -0.681 18.378 0 255 0 5
PLANTSmolcadARTstart HBCH
LINES
PLANTSmolcadARTstart HB-CHO
LINES
PLANTSmolcadARTend
PLANTSmolcadARTstart HB_WATER
LINES
PLANTSmolcadARTend

PLANTSmolcadARTend

