@<TRIPOS>MOLECULE
Olaparib_entry_00001_conf_41
55 59 1
SMALL
NO_CHARGES


@<TRIPOS>ATOM
      1 N          17.4088   -7.6222   13.2688 N.am      1 UNL1        0.0000
      2 N          16.3050   -5.4691   14.2144 N.am      1 UNL1        0.0000
      3 N          16.0632  -13.3099    8.8910 N.2       1 UNL1        0.0000
      4 N          16.4905  -13.9437    7.8259 N.am      1 UNL1        0.0000
      5 C          17.5133  -14.8100    7.8470 C.2       1 UNL1        0.0000
      6 C          18.1535  -15.0517    9.0451 C.ar      1 UNL1        0.0000
      7 C          19.2364  -15.9287    9.1194 C.ar      1 UNL1        0.0000
      8 C          19.8743  -16.1385   10.3230 C.ar      1 UNL1        0.0000
      9 C          19.3921  -15.4483   11.4149 C.ar      1 UNL1        0.0000
     10 C          18.3189  -14.5749   11.3556 C.ar      1 UNL1        0.0000
     11 C          17.6931  -14.3763   10.1603 C.ar      1 UNL1        0.0000
     12 C          16.6452  -13.4964   10.1156 C.2       1 UNL1        0.0000
     13 C          16.0333  -12.7827   11.2288 C.3       1 UNL1        0.0000
     14 C          15.9365  -11.3275   10.9282 C.ar      1 UNL1        0.0000
     15 C          16.8691  -10.5090   11.5900 C.ar      1 UNL1        0.0000
     16 C          16.8525   -9.1502   11.3851 C.ar      1 UNL1        0.0000
     17 C          17.8188   -8.2619   12.0697 C.2       1 UNL1        0.0000
     18 C          18.3142   -6.7622   13.9599 C.3       1 UNL1        0.0000
     19 C          17.6052   -5.7093   14.7844 C.3       1 UNL1        0.0000
     20 C          15.3673   -6.5971   14.1976 C.3       1 UNL1        0.0000
     21 C          16.0672   -7.8606   13.7675 C.3       1 UNL1        0.0000
     22 C          15.9314   -4.2267   13.6937 C.2       1 UNL1        0.0000
     23 C          16.7543   -3.0162   13.6256 C.3       1 UNL1        0.0000
     24 C          16.5562   -2.0117   14.7382 C.3       1 UNL1        0.0000
     25 C          16.1410   -1.6861   13.3719 C.3       1 UNL1        0.0000
     26 C          15.9574   -8.5241   10.5503 C.ar      1 UNL1        0.0000
     27 C          15.0450   -9.3263    9.9030 C.ar      1 UNL1        0.0000
     28 C          15.0584  -10.7130   10.1106 C.ar      1 UNL1        0.0000
     29 O          17.9366  -15.4282    6.8369 O.2       1 UNL1        0.0000
     30 O          14.7452   -4.1135   13.2190 O.2       1 UNL1        0.0000
     31 O          18.9729   -8.0621   11.6260 O.2       1 UNL1        0.0000
     32 F          15.9812   -7.1701   10.3806 F         1 UNL1        0.0000
     33 H          19.5598  -16.4214    8.2723 H         1 UNL1        0.0000
     34 H          20.6761  -16.7819   10.4029 H         1 UNL1        0.0000
     35 H          19.8561  -15.5900   12.3252 H         1 UNL1        0.0000
     36 H          17.9968  -14.0815   12.2031 H         1 UNL1        0.0000
     37 H          16.6290  -12.9220   12.1067 H         1 UNL1        0.0000
     38 H          15.0471  -13.1676   11.3855 H         1 UNL1        0.0000
     39 H          17.5636  -10.9275   12.2280 H         1 UNL1        0.0000
     40 H          18.9376   -6.2723   13.2409 H         1 UNL1        0.0000
     41 H          18.8864   -7.3682   14.6319 H         1 UNL1        0.0000
     42 H          18.1743   -4.8036   14.7768 H         1 UNL1        0.0000
     43 H          17.5020   -6.0484   15.7942 H         1 UNL1        0.0000
     44 H          14.5728   -6.3852   13.5131 H         1 UNL1        0.0000
     45 H          14.9772   -6.7379   15.1840 H         1 UNL1        0.0000
     46 H          15.4928   -8.3222   12.9915 H         1 UNL1        0.0000
     47 H          16.1523   -8.4892   14.6283 H         1 UNL1        0.0000
     48 H          17.5646   -3.5521   13.1778 H         1 UNL1        0.0000
     49 H          17.4018   -1.5201   15.1723 H         1 UNL1        0.0000
     50 H          16.0748   -2.0254   15.6938 H         1 UNL1        0.0000
     51 H          16.6813   -0.9496   12.8146 H         1 UNL1        0.0000
     52 H          15.2249   -1.3583   12.9285 H         1 UNL1        0.0000
     53 H          14.3508   -8.9063    9.2643 H         1 UNL1        0.0000
     54 H          14.3631  -11.2916    9.6132 H         1 UNL1        0.0000
     55 H          16.0372  -13.7754    6.9681 H         1 UNL1        0.0000
@<TRIPOS>BOND
     1    1   18 1
     2    1   21 1
     3    1   17 am
     4    2   19 1
     5    2   20 1
     6    2   22 am
     7    3    4 1
     8    3   12 2
     9    4    5 am
    10    4   55 1
    11    5   29 2
    12    5    6 1
    13    6    7 ar
    14    6   11 ar
    15    7    8 ar
    16    7   33 1
    17    8   34 1
    18    8    9 ar
    19    9   10 ar
    20    9   35 1
    21   10   11 ar
    22   10   36 1
    23   11   12 1
    24   12   13 1
    25   13   37 1
    26   13   38 1
    27   13   14 1
    28   14   15 ar
    29   14   28 ar
    30   15   39 1
    31   15   16 ar
    32   16   26 ar
    33   16   17 1
    34   17   31 2
    35   18   19 1
    36   18   40 1
    37   18   41 1
    38   19   42 1
    39   19   43 1
    40   20   21 1
    41   20   45 1
    42   20   44 1
    43   21   46 1
    44   21   47 1
    45   22   30 2
    46   22   23 1
    47   23   25 1
    48   23   24 1
    49   23   48 1
    50   24   25 1
    51   24   49 1
    52   24   50 1
    53   25   51 1
    54   25   52 1
    55   26   27 ar
    56   26   32 1
    57   27   28 ar
    58   27   53 1
    59   28   54 1
@<TRIPOS>SUBSTRUCTURE
1 UNL1 1
@<TRIPOS>COMMENT
Olaparib
PLANTSproteinTorsions
70
3 107.4577
48 126.1908
123 204.4541
171 125.4719
348 50.0112
606 4.7680
632 186.2047
655 91.9426
678 96.8755
700 187.9889
773 167.5851
807 59.7786
891 246.7198
933 262.3495
999 264.7636
1020 8.6266
1361 154.7209
1371 12.2189
1544 14.5577
1649 3.2020
1689 67.5160
1736 99.6667
1771 352.2736
2012 124.8422
2070 166.8889
2082 190.2987
2147 191.9675
2300 12.4500
2527 2.1532
2551 184.7001
2605 124.0997
2653 84.1927
2739 77.3807
2807 83.2470
2841 66.4115
2875 27.3437
2885 112.5731
2915 171.4241
3074 131.2201
3130 66.2483
3421 84.2513
3586 143.3598
3784 272.7203
3818 230.0412
3881 36.8670
3933 110.4655
4033 131.9542
4046 160.7084
4094 77.3546
4145 243.5971
4208 81.5100
4235 183.3601
4332 200.7543
4568 45.5437
4685 234.0686
4749 57.1141
4805 274.8169
4858 188.3598
4871 225.9484
4945 286.3338
4999 263.4675
5010 164.4647
5106 205.9345
5130 165.4816
5249 212.7330
5258 166.5544
5318 186.2389
5369 38.1629
5589 39.1723
5645 3.6769
PLANTSmolcadARTstart hb
PLANTSmolcadARTstart HB
LINES
18.9729 -8.06211 11.626 20.767 -9.275 11.654 0 255 0 5
PLANTSmolcadARTstart HBCH
LINES
PLANTSmolcadARTstart HB-CHO
LINES
PLANTSmolcadARTend
PLANTSmolcadARTstart HB_WATER
LINES
PLANTSmolcadARTend

PLANTSmolcadARTend

