@<TRIPOS>MOLECULE
Olaparib_entry_00001_conf_59_protein
188 118 70
SMALL
NO_CHARGES


@<TRIPOS>ATOM
      1 H         -19.8770    9.3544   10.3000 H       223 ASP223      0.0000
      2 N         -20.6100    9.4850   10.9640 N.4     223 ASP223      1.0000
      3 H2        -21.1917    8.6759   10.9873 H       223 ASP223      0.0000
      4 H3        -21.1524   10.2829   10.7144 H       223 ASP223      0.0000
      5 HG1       -24.0489    5.3469   16.3906 H       226 THR226      0.0000
      6 OG1       -23.6480    5.6080   15.5080 O.3     226 THR226      0.0000
      7 HH        -28.2931    2.4778   18.2179 H       230 TYR230      0.0000
      8 OH        -27.8370    3.0600   17.5440 O.3     230 TYR230      0.0000
      9 HG        -16.0591   -1.7130   11.9450 H       233 SER233      0.0000
     10 OG        -15.9490   -2.4540   12.6070 O.3     233 SER233      0.0000
     11 HZ1        -9.3129    4.4045    9.3347 H       243 LYS243      0.0000
     12 NZ         -8.7810    4.7010    8.5470 N.4     243 LYS243      1.0000
     13 HZ2        -8.1980    5.4688    8.7950 H       243 LYS243      0.0000
     14 HZ3        -9.3875    4.9574    7.7993 H       243 LYS243      0.0000
     15 HZ1        22.3117   10.2149    0.4013 H       259 LYS259      0.0000
     16 NZ         22.3540    9.4710   -0.2580 N.4     259 LYS259      1.0000
     17 HZ2        22.0736    8.6164    0.1653 H       259 LYS259      0.0000
     18 HZ3        23.2729    9.3890   -0.6295 H       259 LYS259      0.0000
     19 HH         14.4860   -4.0152   -2.9913 H       260 TYR260      0.0000
     20 OH         15.3870   -3.7430   -3.3350 O.3     260 TYR260      0.0000
     21 HG1        11.5089    3.2895   -6.3060 H       262 THR262      0.0000
     22 OG1        11.6660    3.1790   -5.3180 O.3     262 THR262      0.0000
     23 HZ1         8.7902    6.0884   -8.2719 H       263 LYS263      0.0000
     24 NZ          9.6700    5.6550   -8.4530 N.4     263 LYS263      1.0000
     25 HZ2         9.8952    5.0208   -7.7165 H       263 LYS263      0.0000
     26 HZ3        10.3806    6.3493   -8.5333 H       263 LYS263      0.0000
     27 HZ1        21.2588   -1.9991  -10.0444 H       264 LYS264      0.0000
     28 NZ         21.2250   -1.7280  -11.0010 N.4     264 LYS264      1.0000
     29 HZ2        21.9541   -2.1721  -11.5115 H       264 LYS264      0.0000
     30 HZ3        21.3002   -0.7386  -11.0820 H       264 LYS264      0.0000
     31 HZ1         8.0004   -5.5507   -9.1080 H       269 LYS269      0.0000
     32 NZ          7.3110   -6.1790   -9.4530 N.4     269 LYS269      1.0000
     33 HZ2         6.7994   -5.7581  -10.1950 H       269 LYS269      0.0000
     34 HZ3         6.6958   -6.4528   -8.7212 H       269 LYS269      0.0000
     35 HG1        15.0210  -12.8729   -3.2698 H       271 THR271      0.0000
     36 OG1        14.9200  -12.8790   -2.2680 O.3     271 THR271      0.0000
     37 HZ1        23.0611  -18.7302    4.2013 H       276 LYS276      0.0000
     38 NZ         22.5510  -17.9540    4.5780 N.4     276 LYS276      1.0000
     39 HZ2        22.7434  -17.8773    5.5590 H       276 LYS276      0.0000
     40 HZ3        21.5704  -18.1096    4.4455 H       276 LYS276      0.0000
     41 HH         19.0438   -7.9210    8.2092 H       279 TYR279      0.0000
     42 OH         19.8080   -7.2760    8.2120 O.3     279 TYR279      0.0000
     43 HZ1        34.6915  -11.7188    8.3471 H       283 LYS283      0.0000
     44 NZ         33.9490  -11.9430    7.7200 N.4     283 LYS283      1.0000
     45 HZ2        33.8831  -12.9311    7.6093 H       283 LYS283      0.0000
     46 HZ3        34.1073  -11.5105    6.8358 H       283 LYS283      0.0000
     47 HZ1        31.1048  -13.0084   -2.6956 H       284 LYS284      0.0000
     48 NZ         31.2280  -12.1170   -2.2610 N.4     284 LYS284      1.0000
     49 HZ2        30.3788  -11.8399   -1.8144 H       284 LYS284      0.0000
     50 HZ3        31.4830  -11.4396   -2.9498 H       284 LYS284      0.0000
     51 HH         28.3078    3.4651   -2.2855 H       306 TYR306      0.0000
     52 OH         27.7740    2.7440   -1.8460 O.3     306 TYR306      0.0000
     53 HG1        26.7757   -4.2678   -8.6521 H       307 THR307      0.0000
     54 OG1        26.3120   -4.9350   -9.2430 O.3     307 THR307      0.0000
     55 HG1        31.2182    9.9618   -9.7810 H       317 THR317      0.0000
     56 OG1        31.8950    9.2350   -9.6220 O.3     317 THR317      0.0000
     57 HG1        32.3253    6.0411    6.6899 H       323 THR323      0.0000
     58 OG1        32.4070    5.6740    7.6230 O.3     323 THR323      0.0000
     59 HZ1        30.1424    9.0933    7.2593 H       325 LYS325      0.0000
     60 NZ         29.1610    8.9330    7.2460 N.4     325 LYS325      1.0000
     61 HZ2        28.9704    7.9642    7.1216 H       325 LYS325      0.0000
     62 HZ3        28.7329    9.4658    6.5229 H       325 LYS325      0.0000
     63 HG         25.1957    1.8812   12.4337 H       328 SER328      0.0000
     64 OG         25.1580    2.2890   11.5220 O.3     328 SER328      0.0000
     65 HZ1        22.6123    2.6058    1.3706 H       330 LYS330      0.0000
     66 NZ         23.5180    3.0260    1.3810 N.4     330 LYS330      1.0000
     67 HZ2        23.4316    4.0090    1.5343 H       330 LYS330      0.0000
     68 HZ3        23.9771    2.8592    0.5100 H       330 LYS330      0.0000
     69 HZ1         8.8406  -14.9695    2.2349 H       345 LYS345      0.0000
     70 NZ          8.3930  -14.1050    2.4430 N.4     345 LYS345      1.0000
     71 HZ2         8.5126  -13.4658    1.6884 H       345 LYS345      0.0000
     72 HZ3         8.7645  -13.7189    3.2825 H       345 LYS345      0.0000
     73 HZ1         2.7267  -13.0443   -1.9399 H       348 LYS348      0.0000
     74 NZ          2.7670  -12.9680   -0.9450 N.4     348 LYS348      1.0000
     75 HZ2         3.7156  -13.0321   -0.6410 H       348 LYS348      0.0000
     76 HZ3         2.2292  -13.6998   -0.5285 H       348 LYS348      0.0000
     77 HG1        -5.8980   -7.3630    0.8273 H       349 THR349      0.0000
     78 OG1        -6.3420   -8.2570    0.9570 O.3     349 THR349      0.0000
     79 HG        -12.4320  -11.8523    5.8046 H       353 SER353      0.0000
     80 OG        -11.8450  -12.6320    5.5800 O.3     353 SER353      0.0000
     81 HH         -3.8747   -5.7310   19.8909 H       362 TYR362      0.0000
     82 OH         -4.7470   -6.1480   19.6250 O.3     362 TYR362      0.0000
     83 HG         -2.9623    6.7364   32.0565 H       376 SER376      0.0000
     84 OG         -3.5570    5.9650   31.8460 O.3     376 SER376      0.0000
     85 HH          3.8580    7.0333   39.4053 H       377 TYR377      0.0000
     86 OH          3.4610    6.1200   39.4630 O.3     377 TYR377      0.0000
     87 HZ1         3.2884   11.0580   38.8903 H       380 LYS380      0.0000
     88 NZ          2.3270   11.2610   38.6950 N.4     380 LYS380      1.0000
     89 HZ2         2.1454   12.2248   38.9002 H       380 LYS380      0.0000
     90 HZ3         1.7449   10.6863   39.2728 H       380 LYS380      0.0000
     91 HG          1.8254   10.7563   29.2804 H       383 SER383      0.0000
     92 OG          2.1950   11.6230   28.9400 O.3     383 SER383      0.0000
     93 HG         12.4709   12.0943   32.9640 H       388 SER388      0.0000
     94 OG         11.5430   12.3570   33.2060 O.3     388 SER388      0.0000
     95 HG1        21.9691   15.3452   23.6511 H       393 THR393      0.0000
     96 OG1        22.9410   15.5890   23.7600 O.3     393 THR393      0.0000
     97 HG         18.9920   21.1923   20.3061 H       395 SER395      0.0000
     98 OG         19.0240   21.7000   21.1650 O.3     395 SER395      0.0000
     99 HH         15.6018   13.2338   20.3124 H       397 TYR397      0.0000
    100 OH         14.8710   12.9690   19.6890 O.3     397 TYR397      0.0000
    101 HG1         7.7250   19.7545   21.5184 H       398 THR398      0.0000
    102 OG1         8.6220   20.0310   21.1580 O.3     398 THR398      0.0000
    103 HG1         3.7748   18.2636   22.2353 H       400 THR400      0.0000
    104 OG1         3.9170   17.8990   21.3100 O.3     400 THR400      0.0000
    105 HZ1         4.5979  -10.6914   16.9639 H       409 LYS409      0.0000
    106 NZ          4.4340  -11.4210   17.6290 N.4     409 LYS409      1.0000
    107 HZ2         4.5287  -12.3091   17.1773 H       409 LYS409      0.0000
    108 HZ3         3.5064  -11.3328   17.9958 H       409 LYS409      0.0000
    109 HZ1         1.4226  -10.7776   32.3390 H       413 LYS413      0.0000
    110 NZ          1.6780  -11.4650   33.0130 N.4     413 LYS413      1.0000
    111 HZ2         1.1252  -11.3609   33.8353 H       413 LYS413      0.0000
    112 HZ3         2.6448  -11.3826   33.2378 H       413 LYS413      0.0000
    113 HG         13.1516   -0.5309   14.1119 H       430 SER430      0.0000
    114 OG         13.4130    0.4260   14.0760 O.3     430 SER430      0.0000
    115 HG          6.5413   -8.3994   12.9040 H       440 SER440      0.0000
    116 OG          5.9710   -8.9830   12.3290 O.3     440 SER440      0.0000
    117 HG1        31.1266   -3.0525   10.8355 H       453 THR453      0.0000
    118 OG1        32.1320   -2.9810   10.8570 O.3     453 THR453      0.0000
    119 HH         23.2624   -6.5752   12.2353 H       455 TYR455      0.0000
    120 OH         23.2810   -5.5850   12.3310 O.3     455 TYR455      0.0000
    121 HZ1        26.1834  -10.1019   11.8074 H       459 LYS459      0.0000
    122 NZ         26.6110  -10.3810   12.6630 N.4     459 LYS459      1.0000
    123 HZ2        27.5786  -10.5693   12.5172 H       459 LYS459      0.0000
    124 HZ3        26.1559  -11.1896   13.0252 H       459 LYS459      0.0000
    125 HH         25.7155   -3.8862   20.3068 H       462 TYR462      0.0000
    126 OH         25.6260   -2.9400   20.0150 O.3     462 TYR462      0.0000
    127 HZ1        24.0520    5.1081   23.9716 H       469 LYS469      0.0000
    128 NZ         23.5700    5.9180   24.3040 N.4     469 LYS469      1.0000
    129 HZ2        24.1934    6.6988   24.3174 H       469 LYS469      0.0000
    130 HZ3        23.2246    5.7481   25.2261 H       469 LYS469      0.0000
    131 HG         16.7404    4.5764   22.6404 H       470 SER470      0.0000
    132 OG         15.8020    4.6360   22.9740 O.3     470 SER470      0.0000
    133 HH         22.4212    6.1113   18.6197 H       473 TYR473      0.0000
    134 OH         22.3100    5.5040   17.8300 O.3     473 TYR473      0.0000
    135 HG         10.6763   15.0280    7.5083 H       477 SER477      0.0000
    136 OG         11.1460   14.2360    7.8940 O.3     477 SER477      0.0000
    137 HZ1         4.3327   11.2276    5.0411 H       480 LYS480      0.0000
    138 NZ          5.0820   11.8220    4.7460 N.4     480 LYS480      1.0000
    139 HZ2         5.1743   12.5836    5.3884 H       480 LYS480      0.0000
    140 HZ3         4.8835   12.1789    3.8326 H       480 LYS480      0.0000
    141 HG1         3.2480   12.8210   13.5050 H       482 THR482      0.0000
    142 OG1         2.7330   12.0500   13.1080 O.3     482 THR482      0.0000
    143 HG         10.5377   -3.7645   24.2804 H       488 SER488      0.0000
    144 OG         10.3440   -2.9460   24.8140 O.3     488 SER488      0.0000
    145 HZ1        37.9279   -7.4372   18.4202 H       504 LYS504      0.0000
    146 NZ         37.6760   -7.8080   17.5340 N.4     504 LYS504      1.0000
    147 HZ2        38.4781   -7.9158   16.9586 H       504 LYS504      0.0000
    148 HZ3        37.0024   -7.2291   17.0903 H       504 LYS504      0.0000
    149 HZ1        31.1582   -6.6006   35.6738 H       512 LYS512      0.0000
    150 NZ         30.3650   -6.7700   36.2570 N.4     512 LYS512      1.0000
    151 HZ2        29.6282   -6.1414   36.0130 H       512 LYS512      0.0000
    152 HZ3        30.6175   -6.6379   37.2148 H       512 LYS512      0.0000
    153 HZ1        24.7837    3.0118   35.1839 H       516 LYS516      0.0000
    154 NZ         24.0380    2.5320   34.7210 N.4     516 LYS516      1.0000
    155 HZ2        23.1925    3.0558   34.8196 H       516 LYS516      0.0000
    156 HZ3        23.9192    1.6266   35.1295 H       516 LYS516      0.0000
    157 HZ1        30.0120   13.5256   26.1551 H       520 LYS520      0.0000
    158 NZ         30.6520   14.1570   26.5930 N.4     520 LYS520      1.0000
    159 HZ2        30.4607   15.0905   26.2905 H       520 LYS520      0.0000
    160 HZ3        31.5886   13.9106   26.3444 H       520 LYS520      0.0000
    161 HG         19.0879   12.4110   40.5036 H       524 SER524      0.0000
    162 OG         18.8770   11.4400   40.3940 O.3     524 SER524      0.0000
    163 HG         20.5048    7.0122   42.7069 H       525 SER525      0.0000
    164 OG         19.6990    6.6420   43.1690 O.3     525 SER525      0.0000
    165 HG1         7.8736   -0.2871   42.3138 H       530 THR530      0.0000
    166 OG1         7.6550    0.4270   41.6380 O.3     530 THR530      0.0000
    167 HG         10.0946   -3.7140   33.5921 H       534 SER534      0.0000
    168 OG          9.6090   -3.6750   34.4630 O.3     534 SER534      0.0000
    169 HG1        14.4842   -0.1432   39.5653 H       535 THR535      0.0000
    170 OG1        13.6020   -0.2690   39.0930 O.3     535 THR535      0.0000
    171 HG         21.9297   12.8486   37.4081 H       542 SER542      0.0000
    172 OG         22.1280   13.5570   38.0820 O.3     542 SER542      0.0000
    173 HG1        27.4721    9.8208   33.4319 H       544 THR544      0.0000
    174 OG1        28.0730    9.6670   34.2240 O.3     544 THR544      0.0000
    175 HH         39.0792   13.0333   18.5299 H       552 TYR552      0.0000
    176 OH         38.7990   13.4190   19.4090 O.3     552 TYR552      0.0000
    177 HG1        34.6816   10.5903   27.8655 H       553 THR553      0.0000
    178 OG1        34.2910    9.6820   28.0520 O.3     553 THR553      0.0000
    179 HH         22.8046   15.2763   25.4465 H       556 TYR556      0.0000
    180 OH         22.3900   15.0220   26.3220 O.3     556 TYR556      0.0000
    181 HH         20.2499    3.5042   32.6446 H       559 TYR559      0.0000
    182 OH         20.7160    2.6790   32.9500 O.3     559 TYR559      0.0000
    183 HH          1.4633   -0.4918   31.8553 H       571 TYR571      0.0000
    184 OH          2.2400    0.1330   31.8950 O.3     571 TYR571      0.0000
    185 HZ1        -2.1141    7.7075   14.2842 H       574 LYS574      0.0000
    186 NZ         -2.0400    8.5440   14.8270 N.4     574 LYS574      1.0000
    187 HZ2        -2.6120    8.4646   15.6427 H       574 LYS574      0.0000
    188 HZ3        -2.3416    9.3252   14.2813 H       574 LYS574      0.0000
@<TRIPOS>BOND
     1    2    1 1
     2    2    4 1
     3    2    3 1
     4    6    5 1
     5    8    7 1
     6   10    9 1
     7   12   11 1
     8   12   13 1
     9   12   14 1
    10   16   15 1
    11   16   17 1
    12   16   18 1
    13   20   19 1
    14   22   21 1
    15   24   26 1
    16   24   23 1
    17   24   25 1
    18   28   27 1
    19   28   30 1
    20   28   29 1
    21   32   33 1
    22   32   34 1
    23   32   31 1
    24   36   35 1
    25   38   37 1
    26   38   39 1
    27   38   40 1
    28   42   41 1
    29   44   43 1
    30   44   45 1
    31   44   46 1
    32   48   47 1
    33   48   49 1
    34   48   50 1
    35   52   51 1
    36   54   53 1
    37   56   55 1
    38   58   57 1
    39   60   61 1
    40   60   59 1
    41   60   62 1
    42   64   63 1
    43   66   65 1
    44   66   68 1
    45   66   67 1
    46   70   69 1
    47   70   71 1
    48   70   72 1
    49   74   73 1
    50   74   75 1
    51   74   76 1
    52   78   77 1
    53   80   79 1
    54   82   81 1
    55   84   83 1
    56   86   85 1
    57   88   87 1
    58   88   89 1
    59   88   90 1
    60   92   91 1
    61   94   93 1
    62   96   95 1
    63   98   97 1
    64  100   99 1
    65  102  101 1
    66  104  103 1
    67  106  107 1
    68  106  108 1
    69  106  105 1
    70  110  109 1
    71  110  112 1
    72  110  111 1
    73  114  113 1
    74  116  115 1
    75  118  117 1
    76  120  119 1
    77  122  121 1
    78  122  123 1
    79  122  124 1
    80  126  125 1
    81  128  127 1
    82  128  129 1
    83  128  130 1
    84  132  131 1
    85  134  133 1
    86  136  135 1
    87  138  137 1
    88  138  140 1
    89  138  139 1
    90  142  141 1
    91  144  143 1
    92  146  147 1
    93  146  145 1
    94  146  148 1
    95  150  151 1
    96  150  149 1
    97  150  152 1
    98  154  153 1
    99  154  155 1
   100  154  156 1
   101  158  157 1
   102  158  159 1
   103  158  160 1
   104  162  161 1
   105  164  163 1
   106  166  165 1
   107  168  167 1
   108  170  169 1
   109  172  171 1
   110  174  173 1
   111  176  175 1
   112  178  177 1
   113  180  179 1
   114  182  181 1
   115  184  183 1
   116  186  185 1
   117  186  188 1
   118  186  187 1
@<TRIPOS>SUBSTRUCTURE
223 ASP223 1
226 THR226 5
230 TYR230 7
233 SER233 9
243 LYS243 11
259 LYS259 15
260 TYR260 19
262 THR262 21
263 LYS263 23
264 LYS264 27
269 LYS269 31
271 THR271 35
276 LYS276 37
279 TYR279 41
283 LYS283 43
284 LYS284 47
306 TYR306 51
307 THR307 53
317 THR317 55
323 THR323 57
325 LYS325 59
328 SER328 63
330 LYS330 65
345 LYS345 69
348 LYS348 73
349 THR349 77
353 SER353 79
362 TYR362 81
376 SER376 83
377 TYR377 85
380 LYS380 87
383 SER383 91
388 SER388 93
393 THR393 95
395 SER395 97
397 TYR397 99
398 THR398 101
400 THR400 103
409 LYS409 105
413 LYS413 109
430 SER430 113
440 SER440 115
453 THR453 117
455 TYR455 119
459 LYS459 121
462 TYR462 125
469 LYS469 127
470 SER470 131
473 TYR473 133
477 SER477 135
480 LYS480 137
482 THR482 141
488 SER488 143
504 LYS504 145
512 LYS512 149
516 LYS516 153
520 LYS520 157
524 SER524 161
525 SER525 163
530 THR530 165
534 SER534 167
535 THR535 169
542 SER542 171
544 THR544 173
552 TYR552 175
553 THR553 177
556 TYR556 179
559 TYR559 181
571 TYR571 183
574 LYS574 185
@<TRIPOS>COMMENT
