@<TRIPOS>MOLECULE
Olaparib_entry_00001_conf_38
55 59 1
SMALL
NO_CHARGES


@<TRIPOS>ATOM
      1 N          16.1596   -8.5135   10.8323 N.am      1 UNL1        0.0000
      2 N          16.2603   -6.6505   12.6400 N.am      1 UNL1        0.0000
      3 N          15.3656  -13.4045   13.9875 N.2       1 UNL1        0.0000
      4 N          14.3348  -14.0608   14.4622 N.am      1 UNL1        0.0000
      5 C          14.3925  -14.8234   15.5631 C.2       1 UNL1        0.0000
      6 C          15.5927  -14.9283   16.2355 C.ar      1 UNL1        0.0000
      7 C          15.7131  -15.7244   17.3752 C.ar      1 UNL1        0.0000
      8 C          16.9273  -15.8312   18.0184 C.ar      1 UNL1        0.0000
      9 C          17.9834  -15.1257   17.4816 C.ar      1 UNL1        0.0000
     10 C          17.8785  -14.3323   16.3514 C.ar      1 UNL1        0.0000
     11 C          16.6718  -14.2314   15.7239 C.ar      1 UNL1        0.0000
     12 C          16.5895  -13.4570   14.5979 C.2       1 UNL1        0.0000
     13 C          17.6337  -12.6298   14.0075 C.3       1 UNL1        0.0000
     14 C          17.3798  -12.4237   12.5548 C.ar      1 UNL1        0.0000
     15 C          16.6553  -11.2644   12.2251 C.ar      1 UNL1        0.0000
     16 C          16.3622  -10.9924   10.9102 C.ar      1 UNL1        0.0000
     17 C          15.5984   -9.7822   10.5316 C.2       1 UNL1        0.0000
     18 C          15.4552   -7.3237   10.4784 C.3       1 UNL1        0.0000
     19 C          15.8061   -6.1507   11.3683 C.3       1 UNL1        0.0000
     20 C          17.4772   -7.4696   12.6366 C.3       1 UNL1        0.0000
     21 C          17.4478   -8.4564   11.4979 C.3       1 UNL1        0.0000
     22 C          15.5881   -6.3815   13.8358 C.2       1 UNL1        0.0000
     23 C          14.3611   -5.5976   13.9999 C.3       1 UNL1        0.0000
     24 C          14.5173   -4.0948   13.9437 C.3       1 UNL1        0.0000
     25 C          14.1493   -4.7486   15.2016 C.3       1 UNL1        0.0000
     26 C          16.7440  -11.8047    9.8688 C.ar      1 UNL1        0.0000
     27 C          17.4530  -12.9392   10.1927 C.ar      1 UNL1        0.0000
     28 C          17.7529  -13.2203   11.5334 C.ar      1 UNL1        0.0000
     29 O          13.4149  -15.4591   16.0344 O.2       1 UNL1        0.0000
     30 O          16.0817   -6.8644   14.9168 O.2       1 UNL1        0.0000
     31 O          14.4855   -9.8461    9.9605 O.2       1 UNL1        0.0000
     32 F          16.4276  -11.4911    8.5787 F         1 UNL1        0.0000
     33 H          14.8918  -16.2335   17.7375 H         1 UNL1        0.0000
     34 H          17.0408  -16.4128   18.8623 H         1 UNL1        0.0000
     35 H          18.9016  -15.1928   17.9471 H         1 UNL1        0.0000
     36 H          18.7006  -13.8243   15.9889 H         1 UNL1        0.0000
     37 H          18.5799  -13.1130   14.1345 H         1 UNL1        0.0000
     38 H          17.6360  -11.6769   14.4946 H         1 UNL1        0.0000
     39 H          16.3444  -10.6198   12.9683 H         1 UNL1        0.0000
     40 H          14.4045   -7.5116   10.5573 H         1 UNL1        0.0000
     41 H          15.7370   -7.0667    9.4781 H         1 UNL1        0.0000
     42 H          14.9419   -5.5367   11.5108 H         1 UNL1        0.0000
     43 H          16.5778   -5.5669   10.9110 H         1 UNL1        0.0000
     44 H          17.5462   -8.0027   13.5616 H         1 UNL1        0.0000
     45 H          18.3257   -6.8289   12.5155 H         1 UNL1        0.0000
     46 H          17.6755   -9.4287   11.8823 H         1 UNL1        0.0000
     47 H          18.1676   -8.1345   10.7757 H         1 UNL1        0.0000
     48 H          13.7754   -6.3514   13.5170 H         1 UNL1        0.0000
     49 H          13.7983   -3.5012   13.4185 H         1 UNL1        0.0000
     50 H          15.2933   -3.4253   13.6362 H         1 UNL1        0.0000
     51 H          13.1625   -4.6228   15.5959 H         1 UNL1        0.0000
     52 H          14.5524   -4.7419   16.1919 H         1 UNL1        0.0000
     53 H          17.7641  -13.5831    9.4478 H         1 UNL1        0.0000
     54 H          18.2855  -14.0778   11.7489 H         1 UNL1        0.0000
     55 H          13.4754  -13.9894   13.9866 H         1 UNL1        0.0000
@<TRIPOS>BOND
     1    1   18 1
     2    1   21 1
     3    1   17 am
     4    2   19 1
     5    2   20 1
     6    2   22 am
     7    3    4 1
     8    3   12 2
     9    4    5 am
    10    4   55 1
    11    5   29 2
    12    5    6 1
    13    6    7 ar
    14    6   11 ar
    15    7    8 ar
    16    7   33 1
    17    8   34 1
    18    8    9 ar
    19    9   10 ar
    20    9   35 1
    21   10   11 ar
    22   10   36 1
    23   11   12 1
    24   12   13 1
    25   13   37 1
    26   13   38 1
    27   13   14 1
    28   14   15 ar
    29   14   28 ar
    30   15   39 1
    31   15   16 ar
    32   16   26 ar
    33   16   17 1
    34   17   31 2
    35   18   19 1
    36   18   40 1
    37   18   41 1
    38   19   42 1
    39   19   43 1
    40   20   21 1
    41   20   45 1
    42   20   44 1
    43   21   46 1
    44   21   47 1
    45   22   30 2
    46   22   23 1
    47   23   25 1
    48   23   24 1
    49   23   48 1
    50   24   25 1
    51   24   49 1
    52   24   50 1
    53   25   51 1
    54   25   52 1
    55   26   27 ar
    56   26   32 1
    57   27   28 ar
    58   27   53 1
    59   28   54 1
@<TRIPOS>SUBSTRUCTURE
1 UNL1 1
@<TRIPOS>COMMENT
Olaparib
PLANTSproteinTorsions
70
3 51.8851
48 260.7389
123 41.5580
171 38.9706
348 343.0891
606 77.4488
632 240.2350
655 129.7270
678 101.8981
700 67.9600
773 129.0945
807 34.0640
891 114.5654
933 175.4630
999 156.2123
1020 139.8416
1361 286.6130
1371 115.5179
1544 249.7512
1649 338.0974
1689 105.3521
1736 24.7162
1771 157.9531
2012 263.4177
2070 57.7136
2082 233.7445
2147 101.8450
2300 240.6864
2527 240.7095
2551 272.4545
2605 186.5103
2653 182.0684
2739 172.1247
2807 117.8826
2841 139.6030
2875 179.5588
2885 159.5080
2915 151.6062
3074 191.9948
3130 159.0204
3421 145.7525
3586 82.0075
3784 149.4259
3818 137.1559
3881 104.4697
3933 93.1781
4033 319.8812
4046 90.9104
4094 72.4489
4145 50.8265
4208 161.3509
4235 251.3781
4332 287.8944
4568 79.3760
4685 71.4324
4749 278.9897
4805 118.9041
4858 213.5998
4871 82.2448
4945 81.1724
4999 258.6442
5010 219.8517
5106 213.5710
5130 130.8785
5249 72.7181
5258 24.8490
5318 159.5072
5369 81.8096
5589 222.4312
5645 190.9333
PLANTSmolcadARTstart hb
PLANTSmolcadARTstart HB
LINES
16.0817 -6.86441 14.9168 14.939 -7.462 16.94 0 255 0 5
PLANTSmolcadARTstart HBCH
LINES
PLANTSmolcadARTstart HB-CHO
LINES
PLANTSmolcadARTend
PLANTSmolcadARTstart HB_WATER
LINES
PLANTSmolcadARTend

PLANTSmolcadARTend

