@<TRIPOS>MOLECULE
Olaparib_entry_00001_conf_29
55 59 1
SMALL
NO_CHARGES


@<TRIPOS>ATOM
      1 N          16.4761   -8.1686   11.4747 N.am      1 UNL1        0.0000
      2 N          16.4897   -6.2857   13.2644 N.am      1 UNL1        0.0000
      3 N          16.8276  -15.6200   12.9341 N.2       1 UNL1        0.0000
      4 N          16.5185  -16.7422   12.3309 N.am      1 UNL1        0.0000
      5 C          15.2568  -17.1174   12.0780 C.2       1 UNL1        0.0000
      6 C          14.2265  -16.2872   12.4690 C.ar      1 UNL1        0.0000
      7 C          12.8943  -16.6388   12.2482 C.ar      1 UNL1        0.0000
      8 C          11.8808  -15.8037   12.6665 C.ar      1 UNL1        0.0000
      9 C          12.2533  -14.6363   13.2986 C.ar      1 UNL1        0.0000
     10 C          13.5710  -14.2750   13.5247 C.ar      1 UNL1        0.0000
     11 C          14.5663  -15.1072   13.1044 C.ar      1 UNL1        0.0000
     12 C          15.8629  -14.7434   13.3514 C.2       1 UNL1        0.0000
     13 C          16.3418  -13.5034   13.9483 C.3       1 UNL1        0.0000
     14 C          16.9678  -12.6326   12.9153 C.ar      1 UNL1        0.0000
     15 C          16.2189  -11.5027   12.5409 C.ar      1 UNL1        0.0000
     16 C          16.7086  -10.6436   11.5865 C.ar      1 UNL1        0.0000
     17 C          15.9425   -9.4478   11.1688 C.2       1 UNL1        0.0000
     18 C          15.7687   -6.9922   11.0839 C.3       1 UNL1        0.0000
     19 C          16.0732   -5.8054   11.9725 C.3       1 UNL1        0.0000
     20 C          17.7168   -7.0881   13.3118 C.3       1 UNL1        0.0000
     21 C          17.7397   -8.0870   12.1836 C.3       1 UNL1        0.0000
     22 C          15.7732   -6.0134   14.4334 C.2       1 UNL1        0.0000
     23 C          14.5309   -5.2445   14.5467 C.3       1 UNL1        0.0000
     24 C          14.6242   -3.7734   14.2101 C.3       1 UNL1        0.0000
     25 C          14.3707   -4.1969   15.5891 C.3       1 UNL1        0.0000
     26 C          17.9181  -10.8243   10.9584 C.ar      1 UNL1        0.0000
     27 C          18.6503  -11.9306   11.3256 C.ar      1 UNL1        0.0000
     28 C          18.1531  -12.8098   12.2983 C.ar      1 UNL1        0.0000
     29 O          14.9406  -18.1887   11.4998 O.2       1 UNL1        0.0000
     30 O          16.2355   -6.4782   15.5359 O.2       1 UNL1        0.0000
     31 O          14.8509   -9.5328   10.5605 O.2       1 UNL1        0.0000
     32 F          18.3606   -9.9423   10.0156 F         1 UNL1        0.0000
     33 H          12.6673  -17.5249   11.7704 H         1 UNL1        0.0000
     34 H          10.8891  -16.0416   12.5142 H         1 UNL1        0.0000
     35 H          11.5101  -13.9976   13.6209 H         1 UNL1        0.0000
     36 H          13.7972  -13.3891   14.0037 H         1 UNL1        0.0000
     37 H          17.0661  -13.7320   14.7021 H         1 UNL1        0.0000
     38 H          15.5110  -12.9837   14.3784 H         1 UNL1        0.0000
     39 H          15.3040  -11.3193   12.9814 H         1 UNL1        0.0000
     40 H          14.7184   -7.1935   11.1286 H         1 UNL1        0.0000
     41 H          16.0815   -6.7418   10.0912 H         1 UNL1        0.0000
     42 H          15.1966   -5.2017   12.0786 H         1 UNL1        0.0000
     43 H          16.8524   -5.2159   11.5357 H         1 UNL1        0.0000
     44 H          17.7608   -7.6105   14.2444 H         1 UNL1        0.0000
     45 H          18.5604   -6.4373   13.2130 H         1 UNL1        0.0000
     46 H          17.9668   -9.0522   12.5862 H         1 UNL1        0.0000
     47 H          18.4797   -7.7630   11.4831 H         1 UNL1        0.0000
     48 H          13.9428   -6.0883   14.2527 H         1 UNL1        0.0000
     49 H          13.8476   -3.3039   13.6429 H         1 UNL1        0.0000
     50 H          15.3501   -3.1512   13.7295 H         1 UNL1        0.0000
     51 H          13.4097   -4.0269   16.0280 H         1 UNL1        0.0000
     52 H          14.8415   -3.9999   16.5286 H         1 UNL1        0.0000
     53 H          19.5660  -12.1126   10.8845 H         1 UNL1        0.0000
     54 H          18.7221  -13.6320   12.5551 H         1 UNL1        0.0000
     55 H          17.2497  -17.3386   12.0493 H         1 UNL1        0.0000
@<TRIPOS>BOND
     1    1   18 1
     2    1   21 1
     3    1   17 am
     4    2   19 1
     5    2   20 1
     6    2   22 am
     7    3    4 1
     8    3   12 2
     9    4    5 am
    10    4   55 1
    11    5   29 2
    12    5    6 1
    13    6    7 ar
    14    6   11 ar
    15    7    8 ar
    16    7   33 1
    17    8   34 1
    18    8    9 ar
    19    9   10 ar
    20    9   35 1
    21   10   11 ar
    22   10   36 1
    23   11   12 1
    24   12   13 1
    25   13   37 1
    26   13   38 1
    27   13   14 1
    28   14   15 ar
    29   14   28 ar
    30   15   39 1
    31   15   16 ar
    32   16   26 ar
    33   16   17 1
    34   17   31 2
    35   18   19 1
    36   18   40 1
    37   18   41 1
    38   19   42 1
    39   19   43 1
    40   20   21 1
    41   20   45 1
    42   20   44 1
    43   21   46 1
    44   21   47 1
    45   22   30 2
    46   22   23 1
    47   23   25 1
    48   23   24 1
    49   23   48 1
    50   24   25 1
    51   24   49 1
    52   24   50 1
    53   25   51 1
    54   25   52 1
    55   26   27 ar
    56   26   32 1
    57   27   28 ar
    58   27   53 1
    59   28   54 1
@<TRIPOS>SUBSTRUCTURE
1 UNL1 1
@<TRIPOS>COMMENT
Olaparib
PLANTSproteinTorsions
70
3 243.9537
48 320.0766
123 86.7761
171 127.2550
348 188.3701
606 246.1035
632 42.0467
655 333.5346
678 47.4099
700 45.1535
773 49.0874
807 117.6968
891 349.8781
933 128.1531
999 220.4469
1020 36.9811
1361 95.9495
1371 66.7140
1544 212.7477
1649 60.7615
1689 240.7979
1736 135.9127
1771 65.6836
2012 273.0627
2070 18.8448
2082 17.8753
2147 303.5861
2300 146.9874
2527 17.6606
2551 282.8584
2605 318.7257
2653 29.2554
2739 3.6929
2807 111.9494
2841 126.2434
2875 290.6098
2885 90.6333
2915 147.1327
3074 153.6082
3130 192.9449
3421 54.6682
3586 228.4203
3784 232.6256
3818 170.6089
3881 83.8735
3933 82.5079
4033 201.7834
4046 302.0497
4094 39.9120
4145 354.0802
4208 90.3560
4235 220.2109
4332 197.8586
4568 164.4044
4685 4.9398
4749 36.1274
4805 142.2419
4858 90.8720
4871 352.8182
4945 151.2440
4999 159.5437
5010 186.1017
5106 168.6590
5130 54.4566
5249 116.9934
5258 238.3380
5318 46.2967
5369 230.9899
5589 226.8513
5645 171.5066
PLANTSmolcadARTstart hb
PLANTSmolcadARTstart HB
LINES
16.2355 -6.4782 15.5359 14.939 -7.462 16.94 0 255 0 5
PLANTSmolcadARTstart HBCH
LINES
PLANTSmolcadARTstart HB-CHO
LINES
PLANTSmolcadARTend
PLANTSmolcadARTstart HB_WATER
LINES
PLANTSmolcadARTend

PLANTSmolcadARTend

