@<TRIPOS>MOLECULE
Olaparib_entry_00001_conf_10
55 59 1
SMALL
NO_CHARGES


@<TRIPOS>ATOM
      1 N          21.0741    0.9548   13.8456 N.am      1 UNL1        0.0000
      2 N          23.2429    0.1812   15.0481 N.am      1 UNL1        0.0000
      3 N          15.5947   -3.5937   15.8870 N.2       1 UNL1        0.0000
      4 N          14.5254   -4.3516   15.8593 N.am      1 UNL1        0.0000
      5 C          14.5008   -5.5678   15.2961 C.2       1 UNL1        0.0000
      6 C          15.6539   -6.0531   14.7143 C.ar      1 UNL1        0.0000
      7 C          15.6780   -7.3041   14.0966 C.ar      1 UNL1        0.0000
      8 C          16.8356   -7.7595   13.5031 C.ar      1 UNL1        0.0000
      9 C          17.9338   -6.9273   13.5545 C.ar      1 UNL1        0.0000
     10 C          17.9240   -5.6835   14.1635 C.ar      1 UNL1        0.0000
     11 C          16.7742   -5.2435   14.7501 C.ar      1 UNL1        0.0000
     12 C          16.7767   -4.0043   15.3324 C.2       1 UNL1        0.0000
     13 C          17.9053   -3.0962   15.4893 C.3       1 UNL1        0.0000
     14 C          17.7851   -1.9448   14.5527 C.ar      1 UNL1        0.0000
     15 C          18.7450   -0.9298   14.7145 C.ar      1 UNL1        0.0000
     16 C          18.7103    0.1791   13.9035 C.ar      1 UNL1        0.0000
     17 C          19.7045    1.2659   14.0514 C.2       1 UNL1        0.0000
     18 C          22.0615    1.9772   13.9746 C.3       1 UNL1        0.0000
     19 C          23.4207    1.4314   14.3564 C.3       1 UNL1        0.0000
     20 C          22.6203   -0.9130   14.2951 C.3       1 UNL1        0.0000
     21 C          21.4404   -0.4076   13.5055 C.3       1 UNL1        0.0000
     22 C          23.6367   -0.0045   16.3765 C.2       1 UNL1        0.0000
     23 C          24.2544    0.9883   17.2596 C.3       1 UNL1        0.0000
     24 C          25.7270    1.2517   17.0398 C.3       1 UNL1        0.0000
     25 C          25.2739    0.5901   18.2655 C.3       1 UNL1        0.0000
     26 C          17.7709    0.3629   12.9167 C.ar      1 UNL1        0.0000
     27 C          16.8318   -0.6313   12.7593 C.ar      1 UNL1        0.0000
     28 C          16.8637   -1.7637   13.5857 C.ar      1 UNL1        0.0000
     29 O          13.4858   -6.3097   15.2607 O.2       1 UNL1        0.0000
     30 O          23.4445   -1.1608   16.8974 O.2       1 UNL1        0.0000
     31 O          19.3747    2.4370   14.3490 O.2       1 UNL1        0.0000
     32 F          17.7783    1.4831   12.1372 F         1 UNL1        0.0000
     33 H          14.8283   -7.8897   14.0847 H         1 UNL1        0.0000
     34 H          16.8780   -8.6804   13.0411 H         1 UNL1        0.0000
     35 H          18.8100   -7.2485   13.1150 H         1 UNL1        0.0000
     36 H          18.7739   -5.0980   14.1740 H         1 UNL1        0.0000
     37 H          18.8132   -3.6239   15.2839 H         1 UNL1        0.0000
     38 H          17.9120   -2.7239   16.4926 H         1 UNL1        0.0000
     39 H          19.4730   -1.0173   15.4403 H         1 UNL1        0.0000
     40 H          21.7443    2.6663   14.7295 H         1 UNL1        0.0000
     41 H          22.1604    2.4532   13.0208 H         1 UNL1        0.0000
     42 H          23.9211    2.1282   14.9954 H         1 UNL1        0.0000
     43 H          24.0104    1.2789   13.4764 H         1 UNL1        0.0000
     44 H          22.2891   -1.6672   14.9777 H         1 UNL1        0.0000
     45 H          23.3404   -1.3199   13.6161 H         1 UNL1        0.0000
     46 H          20.6019   -1.0437   13.6991 H         1 UNL1        0.0000
     47 H          21.7177   -0.4165   12.4729 H         1 UNL1        0.0000
     48 H          23.3481    1.5542   17.3123 H         1 UNL1        0.0000
     49 H          26.1034    2.2527   17.0796 H         1 UNL1        0.0000
     50 H          26.4309    1.0186   16.2684 H         1 UNL1        0.0000
     51 H          25.3291    1.1088   19.1998 H         1 UNL1        0.0000
     52 H          25.5228   -0.3281   18.7536 H         1 UNL1        0.0000
     53 H          16.1041   -0.5428   12.0321 H         1 UNL1        0.0000
     54 H          16.1476   -2.4942   13.4469 H         1 UNL1        0.0000
     55 H          13.6995   -4.0106   16.2733 H         1 UNL1        0.0000
@<TRIPOS>BOND
     1    1   18 1
     2    1   21 1
     3    1   17 am
     4    2   19 1
     5    2   20 1
     6    2   22 am
     7    3    4 1
     8    3   12 2
     9    4    5 am
    10    4   55 1
    11    5   29 2
    12    5    6 1
    13    6    7 ar
    14    6   11 ar
    15    7    8 ar
    16    7   33 1
    17    8   34 1
    18    8    9 ar
    19    9   10 ar
    20    9   35 1
    21   10   11 ar
    22   10   36 1
    23   11   12 1
    24   12   13 1
    25   13   37 1
    26   13   38 1
    27   13   14 1
    28   14   15 ar
    29   14   28 ar
    30   15   39 1
    31   15   16 ar
    32   16   26 ar
    33   16   17 1
    34   17   31 2
    35   18   19 1
    36   18   40 1
    37   18   41 1
    38   19   42 1
    39   19   43 1
    40   20   21 1
    41   20   45 1
    42   20   44 1
    43   21   46 1
    44   21   47 1
    45   22   30 2
    46   22   23 1
    47   23   25 1
    48   23   24 1
    49   23   48 1
    50   24   25 1
    51   24   49 1
    52   24   50 1
    53   25   51 1
    54   25   52 1
    55   26   27 ar
    56   26   32 1
    57   27   28 ar
    58   27   53 1
    59   28   54 1
@<TRIPOS>SUBSTRUCTURE
1 UNL1 1
@<TRIPOS>COMMENT
Olaparib
PLANTSproteinTorsions
70
3 134.3177
48 246.5438
123 6.3162
171 19.8968
348 90.3830
606 28.1707
632 43.8301
655 330.9505
678 61.3911
700 15.0458
773 2.8712
807 98.7270
891 185.8716
933 138.2439
999 122.9942
1020 51.3598
1361 132.3699
1371 296.4378
1544 91.6468
1649 38.3574
1689 0.7942
1736 123.4814
1771 98.3377
2012 3.1987
2070 105.5191
2082 149.3352
2147 23.8843
2300 118.1452
2527 32.9440
2551 323.5194
2605 187.0071
2653 135.3640
2739 132.4419
2807 161.9146
2841 330.5047
2875 182.1483
2885 103.1099
2915 81.5486
3074 72.9418
3130 323.0473
3421 76.4905
3586 342.9910
3784 120.3687
3818 56.9243
3881 350.7133
3933 211.4512
4033 75.3618
4046 67.2021
4094 32.7096
4145 176.4225
4208 129.1110
4235 20.7192
4332 158.4522
4568 324.1815
4685 292.5831
4749 17.2718
4805 103.7732
4858 87.9105
4871 106.7036
4945 202.8205
4999 230.3334
5010 155.6702
5106 324.9792
5130 55.7524
5249 264.4225
5258 175.2310
5318 108.3948
5369 270.2380
5589 247.9084
5645 187.5796
PLANTSmolcadARTstart hb
PLANTSmolcadARTstart HB
LINES
13.4858 -6.30967 15.2607 11.904 -6.659 14.188 0 255 0 5
PLANTSmolcadARTstart HBCH
LINES
PLANTSmolcadARTstart HB-CHO
LINES
PLANTSmolcadARTend
PLANTSmolcadARTstart HB_WATER
LINES
PLANTSmolcadARTend

PLANTSmolcadARTend

