@<TRIPOS>MOLECULE
Olaparib_entry_00001_conf_23
55 59 1
SMALL
NO_CHARGES


@<TRIPOS>ATOM
      1 N          17.7328   -8.0573   12.4831 N.am      1 UNL1        0.0000
      2 N          16.4402   -6.2095   13.7727 N.am      1 UNL1        0.0000
      3 N          15.0186  -12.8680    9.1866 N.2       1 UNL1        0.0000
      4 N          13.9186  -13.5802    9.2244 N.am      1 UNL1        0.0000
      5 C          13.7913  -14.7688    8.6179 C.2       1 UNL1        0.0000
      6 C          14.8665  -15.2745    7.9166 C.ar      1 UNL1        0.0000
      7 C          14.7814  -16.4974    7.2502 C.ar      1 UNL1        0.0000
      8 C          15.8614  -16.9729    6.5380 C.ar      1 UNL1        0.0000
      9 C          16.9954  -16.1887    6.5241 C.ar      1 UNL1        0.0000
     10 C          17.0938  -14.9732    7.1805 C.ar      1 UNL1        0.0000
     11 C          16.0202  -14.5130    7.8844 C.ar      1 UNL1        0.0000
     12 C          16.1282  -13.3014    8.5128 C.2       1 UNL1        0.0000
     13 C          17.3051  -12.4472    8.6042 C.3       1 UNL1        0.0000
     14 C          16.9131  -11.0492    8.9346 C.ar      1 UNL1        0.0000
     15 C          17.7376  -10.3931    9.8659 C.ar      1 UNL1        0.0000
     16 C          17.4511   -9.1028   10.2426 C.ar      1 UNL1        0.0000
     17 C          18.2978   -8.3866   11.2232 C.2       1 UNL1        0.0000
     18 C          18.5197   -7.3712   13.4564 C.3       1 UNL1        0.0000
     19 C          17.6802   -6.5565   14.4169 C.3       1 UNL1        0.0000
     20 C          15.5599   -7.3168   13.3839 C.3       1 UNL1        0.0000
     21 C          16.3567   -8.4299   12.7537 C.3       1 UNL1        0.0000
     22 C          16.0712   -4.8854   13.5181 C.2       1 UNL1        0.0000
     23 C          16.8430   -3.6798   13.8310 C.3       1 UNL1        0.0000
     24 C          16.3199   -2.8292   14.9663 C.3       1 UNL1        0.0000
     25 C          16.2791   -2.3255   13.5916 C.3       1 UNL1        0.0000
     26 C          16.3801   -8.3940    9.7520 C.ar      1 UNL1        0.0000
     27 C          15.5737   -9.0373    8.8404 C.ar      1 UNL1        0.0000
     28 C          15.8627  -10.3541    8.4547 C.ar      1 UNL1        0.0000
     29 O          12.7454  -15.4669    8.6439 O.2       1 UNL1        0.0000
     30 O          14.9396   -4.6825   12.9492 O.2       1 UNL1        0.0000
     31 O          19.4833   -8.0678   10.9751 O.2       1 UNL1        0.0000
     32 F          16.1373   -7.1140   10.1583 F         1 UNL1        0.0000
     33 H          13.9090  -17.0472    7.2909 H         1 UNL1        0.0000
     34 H          15.8227  -17.8738    6.0379 H         1 UNL1        0.0000
     35 H          17.8149  -16.5256    5.9958 H         1 UNL1        0.0000
     36 H          17.9663  -14.4234    7.1383 H         1 UNL1        0.0000
     37 H          17.8206  -12.4562    7.6666 H         1 UNL1        0.0000
     38 H          17.9417  -12.8183    9.3804 H         1 UNL1        0.0000
     39 H          18.5553  -10.8791   10.2656 H         1 UNL1        0.0000
     40 H          19.1952   -6.7141   12.9491 H         1 UNL1        0.0000
     41 H          19.0415   -8.1099   14.0291 H         1 UNL1        0.0000
     42 H          18.2067   -5.6656   14.6876 H         1 UNL1        0.0000
     43 H          17.4832   -7.1277   15.3004 H         1 UNL1        0.0000
     44 H          14.8358   -6.9616   12.6811 H         1 UNL1        0.0000
     45 H          15.0718   -7.6946   14.2580 H         1 UNL1        0.0000
     46 H          15.8905   -8.7034   11.8301 H         1 UNL1        0.0000
     47 H          16.3756   -9.2436   13.4471 H         1 UNL1        0.0000
     48 H          17.7608   -4.1557   13.5560 H         1 UNL1        0.0000
     49 H          17.0008   -2.4021   15.6729 H         1 UNL1        0.0000
     50 H          15.5990   -2.9661   15.7451 H         1 UNL1        0.0000
     51 H          16.9262   -1.5245   13.3007 H         1 UNL1        0.0000
     52 H          15.5069   -1.9386   12.9612 H         1 UNL1        0.0000
     53 H          14.7561   -8.5495    8.4407 H         1 UNL1        0.0000
     54 H          15.2417  -10.8135    7.7698 H         1 UNL1        0.0000
     55 H          13.1479  -13.2244    9.7238 H         1 UNL1        0.0000
@<TRIPOS>BOND
     1    1   18 1
     2    1   21 1
     3    1   17 am
     4    2   19 1
     5    2   20 1
     6    2   22 am
     7    3    4 1
     8    3   12 2
     9    4    5 am
    10    4   55 1
    11    5   29 2
    12    5    6 1
    13    6    7 ar
    14    6   11 ar
    15    7    8 ar
    16    7   33 1
    17    8   34 1
    18    8    9 ar
    19    9   10 ar
    20    9   35 1
    21   10   11 ar
    22   10   36 1
    23   11   12 1
    24   12   13 1
    25   13   37 1
    26   13   38 1
    27   13   14 1
    28   14   15 ar
    29   14   28 ar
    30   15   39 1
    31   15   16 ar
    32   16   26 ar
    33   16   17 1
    34   17   31 2
    35   18   19 1
    36   18   40 1
    37   18   41 1
    38   19   42 1
    39   19   43 1
    40   20   21 1
    41   20   45 1
    42   20   44 1
    43   21   46 1
    44   21   47 1
    45   22   30 2
    46   22   23 1
    47   23   25 1
    48   23   24 1
    49   23   48 1
    50   24   25 1
    51   24   49 1
    52   24   50 1
    53   25   51 1
    54   25   52 1
    55   26   27 ar
    56   26   32 1
    57   27   28 ar
    58   27   53 1
    59   28   54 1
@<TRIPOS>SUBSTRUCTURE
1 UNL1 1
@<TRIPOS>COMMENT
Olaparib
PLANTSproteinTorsions
70
3 216.7937
48 42.5824
123 2.1884
171 91.4380
348 86.0935
606 88.3320
632 277.4091
655 28.1246
678 81.4239
700 226.8544
773 170.6220
807 123.0601
891 168.5528
933 159.8290
999 167.7816
1020 108.5428
1361 352.5663
1371 299.8220
1544 141.9262
1649 52.1345
1689 0.6516
1736 195.6598
1771 131.0002
2012 322.4820
2070 180.5971
2082 45.7536
2147 39.8047
2300 162.6494
2527 114.8867
2551 355.2571
2605 93.1165
2653 92.9637
2739 16.9410
2807 245.7195
2841 36.6461
2875 148.2632
2885 126.0315
2915 96.5629
3074 125.6122
3130 340.0154
3421 126.9358
3586 239.2386
3784 345.2453
3818 118.0488
3881 81.6382
3933 254.8562
4033 171.6328
4046 244.2229
4094 190.7653
4145 334.8471
4208 160.3713
4235 253.5960
4332 101.7058
4568 234.6983
4685 267.8793
4749 250.8009
4805 199.6488
4858 320.0663
4871 5.3038
4945 279.2070
4999 262.3676
5010 153.2668
5106 268.6956
5130 293.7538
5249 99.9357
5258 163.0194
5318 6.7253
5369 249.8118
5589 313.6382
5645 225.3354
PLANTSmolcadARTstart hb
PLANTSmolcadARTstart HB
LINES
19.4833 -8.06782 10.9751 19.7352 -7.7517 9.08862 0 255 0 5
19.4833 -8.06782 10.9751 20.767 -9.275 11.654 0 255 0 5
PLANTSmolcadARTstart HBCH
LINES
PLANTSmolcadARTstart HB-CHO
LINES
PLANTSmolcadARTend
PLANTSmolcadARTstart HB_WATER
LINES
PLANTSmolcadARTend

PLANTSmolcadARTend

