@<TRIPOS>MOLECULE
Olaparib_entry_00001_conf_80
55 59 1
SMALL
NO_CHARGES


@<TRIPOS>ATOM
      1 N          28.8640  -12.7082   16.5779 N.am      1 UNL1        0.0000
      2 N          30.0727  -12.7149   14.2784 N.am      1 UNL1        0.0000
      3 N          33.0520  -14.4381   21.3183 N.2       1 UNL1        0.0000
      4 N          34.2484  -14.5774   21.8359 N.am      1 UNL1        0.0000
      5 C          34.4658  -15.0769   23.0607 C.2       1 UNL1        0.0000
      6 C          33.3819  -15.4657   23.8208 C.ar      1 UNL1        0.0000
      7 C          33.5503  -15.9733   25.1096 C.ar      1 UNL1        0.0000
      8 C          32.4516  -16.3353   25.8588 C.ar      1 UNL1        0.0000
      9 C          31.2139  -16.1684   25.2745 C.ar      1 UNL1        0.0000
     10 C          31.0319  -15.6657   23.9970 C.ar      1 UNL1        0.0000
     11 C          32.1259  -15.3129   23.2631 C.ar      1 UNL1        0.0000
     12 C          31.9275  -14.8012   22.0087 C.2       1 UNL1        0.0000
     13 C          30.6654  -14.6568   21.2951 C.3       1 UNL1        0.0000
     14 C          30.5867  -13.3245   20.6347 C.ar      1 UNL1        0.0000
     15 C          29.6882  -13.2351   19.5566 C.ar      1 UNL1        0.0000
     16 C          29.5528  -12.0486   18.8763 C.ar      1 UNL1        0.0000
     17 C          28.6181  -11.9239   17.7352 C.2       1 UNL1        0.0000
     18 C          27.9821  -12.6189   15.4592 C.3       1 UNL1        0.0000
     19 C          28.6607  -12.9664   14.1516 C.3       1 UNL1        0.0000
     20 C          30.8019  -13.5042   15.2770 C.3       1 UNL1        0.0000
     21 C          30.0162  -13.5902   16.5602 C.3       1 UNL1        0.0000
     22 C          30.7394  -11.7662   13.4976 C.2       1 UNL1        0.0000
     23 C          30.1518  -10.8958   12.4758 C.3       1 UNL1        0.0000
     24 C          30.1648  -11.4264   11.0600 C.3       1 UNL1        0.0000
     25 C          30.9953  -10.2752   11.4207 C.3       1 UNL1        0.0000
     26 C          30.2594  -10.9127   19.1931 C.ar      1 UNL1        0.0000
     27 C          31.1386  -11.0014   20.2486 C.ar      1 UNL1        0.0000
     28 C          31.2800  -12.2107   20.9442 C.ar      1 UNL1        0.0000
     29 O          35.6052  -15.2195   23.5737 O.2       1 UNL1        0.0000
     30 O          32.0013  -11.6268   13.6803 O.2       1 UNL1        0.0000
     31 O          27.6292  -11.1558   17.7626 O.2       1 UNL1        0.0000
     32 F          30.0897   -9.7578   18.4860 F         1 UNL1        0.0000
     33 H          34.4988  -16.0785   25.5024 H         1 UNL1        0.0000
     34 H          32.5508  -16.7131   26.8131 H         1 UNL1        0.0000
     35 H          30.3781  -16.4320   25.8187 H         1 UNL1        0.0000
     36 H          30.0829  -15.5597   23.6053 H         1 UNL1        0.0000
     37 H          29.8558  -14.7548   21.9879 H         1 UNL1        0.0000
     38 H          30.6044  -15.4168   20.5441 H         1 UNL1        0.0000
     39 H          29.1324  -14.0581   19.2768 H         1 UNL1        0.0000
     40 H          27.6090  -11.6177   15.3965 H         1 UNL1        0.0000
     41 H          27.1932  -13.3261   15.6123 H         1 UNL1        0.0000
     42 H          28.2569  -12.3632   13.3659 H         1 UNL1        0.0000
     43 H          28.4949  -13.9981   13.9202 H         1 UNL1        0.0000
     44 H          31.7454  -13.0397   15.4733 H         1 UNL1        0.0000
     45 H          30.9493  -14.4933   14.8964 H         1 UNL1        0.0000
     46 H          30.6597  -13.3256   17.3733 H         1 UNL1        0.0000
     47 H          29.6539  -14.5923   16.6481 H         1 UNL1        0.0000
     48 H          29.4356  -10.5088   13.1698 H         1 UNL1        0.0000
     49 H          29.3095  -11.2933   10.4307 H         1 UNL1        0.0000
     50 H          30.3457  -12.3805   10.6107 H         1 UNL1        0.0000
     51 H          30.7477   -9.3041   11.0456 H         1 UNL1        0.0000
     52 H          32.0369  -10.0499   11.3335 H         1 UNL1        0.0000
     53 H          31.6938  -10.1768   20.5280 H         1 UNL1        0.0000
     54 H          31.9465  -12.2502   21.7315 H         1 UNL1        0.0000
     55 H          35.0259  -14.3020   21.2979 H         1 UNL1        0.0000
@<TRIPOS>BOND
     1    1   18 1
     2    1   21 1
     3    1   17 am
     4    2   19 1
     5    2   20 1
     6    2   22 am
     7    3    4 1
     8    3   12 2
     9    4    5 am
    10    4   55 1
    11    5   29 2
    12    5    6 1
    13    6    7 ar
    14    6   11 ar
    15    7    8 ar
    16    7   33 1
    17    8   34 1
    18    8    9 ar
    19    9   10 ar
    20    9   35 1
    21   10   11 ar
    22   10   36 1
    23   11   12 1
    24   12   13 1
    25   13   37 1
    26   13   38 1
    27   13   14 1
    28   14   15 ar
    29   14   28 ar
    30   15   39 1
    31   15   16 ar
    32   16   26 ar
    33   16   17 1
    34   17   31 2
    35   18   19 1
    36   18   40 1
    37   18   41 1
    38   19   42 1
    39   19   43 1
    40   20   21 1
    41   20   45 1
    42   20   44 1
    43   21   46 1
    44   21   47 1
    45   22   30 2
    46   22   23 1
    47   23   25 1
    48   23   24 1
    49   23   48 1
    50   24   25 1
    51   24   49 1
    52   24   50 1
    53   25   51 1
    54   25   52 1
    55   26   27 ar
    56   26   32 1
    57   27   28 ar
    58   27   53 1
    59   28   54 1
@<TRIPOS>SUBSTRUCTURE
1 UNL1 1
@<TRIPOS>COMMENT
Olaparib
PLANTSproteinTorsions
70
3 161.6298
48 47.3717
123 16.1537
171 46.8774
348 199.1733
606 148.7153
632 326.4619
655 33.7115
678 175.7340
700 109.9420
773 41.9240
807 305.3466
891 205.7807
933 12.1729
999 41.1437
1020 93.0567
1361 84.4289
1371 197.1523
1544 113.2236
1649 29.8035
1689 98.5809
1736 241.7844
1771 239.9261
2012 121.6759
2070 192.9662
2082 100.1656
2147 78.0205
2300 33.3268
2527 11.4084
2551 159.6061
2605 235.6674
2653 245.6959
2739 60.2056
2807 195.1124
2841 261.4099
2875 201.4287
2885 167.0146
2915 191.9393
3074 301.2198
3130 257.7824
3421 113.5099
3586 29.5107
3784 77.4947
3818 251.3526
3881 295.2295
3933 266.9396
4033 131.4016
4046 208.9593
4094 143.8337
4145 88.7117
4208 79.9985
4235 80.8843
4332 184.1298
4568 126.7955
4685 197.0981
4749 121.1796
4805 239.2947
4858 250.1610
4871 180.7751
4945 48.8673
4999 346.8250
5010 158.9345
5106 23.0854
5130 112.3519
5249 30.7737
5258 266.6168
5318 242.8187
5369 251.4150
5589 307.8061
5645 208.7495
PLANTSmolcadARTstart hb
PLANTSmolcadARTstart HB
LINES
PLANTSmolcadARTstart HBCH
LINES
PLANTSmolcadARTstart HB-CHO
LINES
PLANTSmolcadARTend
PLANTSmolcadARTstart HB_WATER
LINES
PLANTSmolcadARTend

PLANTSmolcadARTend

