@<TRIPOS>MOLECULE
Olaparib_entry_00001_conf_03
55 59 1
SMALL
NO_CHARGES


@<TRIPOS>ATOM
      1 N           9.3579   13.7065    1.8921 N.am      1 UNL1        0.0000
      2 N           7.2399   13.9641    0.4102 N.am      1 UNL1        0.0000
      3 N          10.6919    9.6930    8.1578 N.2       1 UNL1        0.0000
      4 N          10.4579    8.7162    9.0002 N.am      1 UNL1        0.0000
      5 C          11.0807    7.5306    8.9424 C.2       1 UNL1        0.0000
      6 C          12.0155    7.3199    7.9498 C.ar      1 UNL1        0.0000
      7 C          12.6784    6.0977    7.8319 C.ar      1 UNL1        0.0000
      8 C          13.5928    5.9023    6.8193 C.ar      1 UNL1        0.0000
      9 C          13.8042    6.9563    5.9558 C.ar      1 UNL1        0.0000
     10 C          13.1533    8.1742    6.0607 C.ar      1 UNL1        0.0000
     11 C          12.2523    8.3581    7.0678 C.ar      1 UNL1        0.0000
     12 C          11.6049    9.5618    7.1466 C.2       1 UNL1        0.0000
     13 C          11.8183   10.7437    6.3215 C.3       1 UNL1        0.0000
     14 C          11.0366   10.6482    5.0577 C.ar      1 UNL1        0.0000
     15 C          11.1360   11.7573    4.1988 C.ar      1 UNL1        0.0000
     16 C          10.4425   11.7673    3.0124 C.ar      1 UNL1        0.0000
     17 C          10.5239   12.9213    2.0889 C.2       1 UNL1        0.0000
     18 C           9.3987   14.8301    1.0129 C.3       1 UNL1        0.0000
     19 C           8.0447   15.1580    0.4212 C.3       1 UNL1        0.0000
     20 C           6.9225   13.3638    1.7105 C.3       1 UNL1        0.0000
     21 C           8.1417   13.3448    2.5962 C.3       1 UNL1        0.0000
     22 C           6.7720   13.3849   -0.7730 C.2       1 UNL1        0.0000
     23 C           7.0141   13.8545   -2.1398 C.3       1 UNL1        0.0000
     24 C           6.0453   14.8862   -2.6718 C.3       1 UNL1        0.0000
     25 C           6.0651   13.5359   -3.2387 C.3       1 UNL1        0.0000
     26 C           9.6364   10.7323    2.6012 C.ar      1 UNL1        0.0000
     27 C           9.5398    9.6472    3.4427 C.ar      1 UNL1        0.0000
     28 C          10.2453    9.6342    4.6545 C.ar      1 UNL1        0.0000
     29 O          10.8709    6.5825    9.7417 O.2       1 UNL1        0.0000
     30 O           6.0524   12.3278   -0.6733 O.2       1 UNL1        0.0000
     31 O          11.5796   13.2202    1.4846 O.2       1 UNL1        0.0000
     32 F           8.9672   10.7902    1.4132 F         1 UNL1        0.0000
     33 H          12.4844    5.3390    8.5041 H         1 UNL1        0.0000
     34 H          14.0954    5.0084    6.7121 H         1 UNL1        0.0000
     35 H          14.4837    6.8306    5.1899 H         1 UNL1        0.0000
     36 H          13.3470    8.9322    5.3873 H         1 UNL1        0.0000
     37 H          12.8589   10.8260    6.0865 H         1 UNL1        0.0000
     38 H          11.4915   11.6068    6.8634 H         1 UNL1        0.0000
     39 H          11.7278   12.5615    4.4589 H         1 UNL1        0.0000
     40 H          10.0789   14.6160    0.2148 H         1 UNL1        0.0000
     41 H           9.7151   15.6774    1.5857 H         1 UNL1        0.0000
     42 H           8.1672   15.5185   -0.5784 H         1 UNL1        0.0000
     43 H           7.5656   15.9135    1.0086 H         1 UNL1        0.0000
     44 H           6.5806   12.3610    1.5620 H         1 UNL1        0.0000
     45 H           6.1611   13.9471    2.1848 H         1 UNL1        0.0000
     46 H           8.2596   12.3585    2.9943 H         1 UNL1        0.0000
     47 H           7.9899   14.0703    3.3668 H         1 UNL1        0.0000
     48 H           8.0721   13.7469   -2.0248 H         1 UNL1        0.0000
     49 H           6.4067   15.7135   -3.2466 H         1 UNL1        0.0000
     50 H           5.2961   15.5156   -2.2387 H         1 UNL1        0.0000
     51 H           6.4340   13.3826   -4.2313 H         1 UNL1        0.0000
     52 H           5.3248   12.7794   -3.3905 H         1 UNL1        0.0000
     53 H           8.9478    8.8427    3.1810 H         1 UNL1        0.0000
     54 H          10.1550    8.8084    5.2673 H         1 UNL1        0.0000
     55 H           9.7919    8.8610    9.7111 H         1 UNL1        0.0000
@<TRIPOS>BOND
     1    1   18 1
     2    1   21 1
     3    1   17 am
     4    2   19 1
     5    2   20 1
     6    2   22 am
     7    3    4 1
     8    3   12 2
     9    4    5 am
    10    4   55 1
    11    5   29 2
    12    5    6 1
    13    6    7 ar
    14    6   11 ar
    15    7    8 ar
    16    7   33 1
    17    8   34 1
    18    8    9 ar
    19    9   10 ar
    20    9   35 1
    21   10   11 ar
    22   10   36 1
    23   11   12 1
    24   12   13 1
    25   13   37 1
    26   13   38 1
    27   13   14 1
    28   14   15 ar
    29   14   28 ar
    30   15   39 1
    31   15   16 ar
    32   16   26 ar
    33   16   17 1
    34   17   31 2
    35   18   19 1
    36   18   40 1
    37   18   41 1
    38   19   42 1
    39   19   43 1
    40   20   21 1
    41   20   45 1
    42   20   44 1
    43   21   46 1
    44   21   47 1
    45   22   30 2
    46   22   23 1
    47   23   25 1
    48   23   24 1
    49   23   48 1
    50   24   25 1
    51   24   49 1
    52   24   50 1
    53   25   51 1
    54   25   52 1
    55   26   27 ar
    56   26   32 1
    57   27   28 ar
    58   27   53 1
    59   28   54 1
@<TRIPOS>SUBSTRUCTURE
1 UNL1 1
@<TRIPOS>COMMENT
Olaparib
PLANTSproteinTorsions
70
3 189.6380
48 302.4395
123 252.7975
171 353.1186
348 75.8328
606 219.4846
632 100.3861
655 12.3675
678 8.3152
700 18.6469
773 98.7645
807 121.7503
891 141.6403
933 120.4557
999 171.3082
1020 89.3205
1361 186.4798
1371 220.6558
1544 76.4282
1649 4.3212
1689 25.4703
1736 63.5505
1771 104.0589
2012 29.7366
2070 218.2513
2082 114.7953
2147 320.6851
2300 154.6456
2527 100.7577
2551 50.4263
2605 119.3060
2653 30.7186
2739 86.1579
2807 220.6929
2841 240.3888
2875 259.8276
2885 334.0699
2915 302.3135
3074 56.3169
3130 150.5307
3421 303.5601
3586 278.8259
3784 253.5558
3818 217.8570
3881 147.7406
3933 245.1509
4033 223.3917
4046 17.3176
4094 338.3003
4145 245.4466
4208 25.3679
4235 128.4430
4332 144.8529
4568 124.3626
4685 143.1575
4749 193.1898
4805 57.7137
4858 245.6667
4871 268.8113
4945 40.0860
4999 273.2469
5010 50.1571
5106 341.7846
5130 215.8939
5249 101.6018
5258 122.9291
5318 235.0923
5369 136.4079
5589 220.8859
5645 207.1030
PLANTSmolcadARTstart hb
PLANTSmolcadARTstart HB
LINES
10.8709 6.58253 9.74171 10.371 4.942 10.541 0 255 0 5
PLANTSmolcadARTstart HBCH
LINES
PLANTSmolcadARTstart HB-CHO
LINES
PLANTSmolcadARTend
PLANTSmolcadARTstart HB_WATER
LINES
PLANTSmolcadARTend

PLANTSmolcadARTend

