@<TRIPOS>MOLECULE
Olaparib_entry_00001_conf_20
55 59 1
SMALL
NO_CHARGES


@<TRIPOS>ATOM
      1 N          17.4037  -10.3657   11.2568 N.am      1 UNL1        0.0000
      2 N          17.2962  -12.6935   12.4048 N.am      1 UNL1        0.0000
      3 N          16.4006   -4.4568   15.8634 N.2       1 UNL1        0.0000
      4 N          16.4414   -3.1649   16.0825 N.am      1 UNL1        0.0000
      5 C          17.5754   -2.4989   16.3422 C.2       1 UNL1        0.0000
      6 C          18.7626   -3.2007   16.3833 C.ar      1 UNL1        0.0000
      7 C          19.9689   -2.5601   16.6691 C.ar      1 UNL1        0.0000
      8 C          21.1397   -3.2850   16.7259 C.ar      1 UNL1        0.0000
      9 C          21.0477   -4.6407   16.4917 C.ar      1 UNL1        0.0000
     10 C          19.8577   -5.2895   16.2074 C.ar      1 UNL1        0.0000
     11 C          18.7052   -4.5625   16.1510 C.ar      1 UNL1        0.0000
     12 C          17.5350   -5.2221   15.8861 C.2       1 UNL1        0.0000
     13 C          17.3610   -6.6319   15.5615 C.3       1 UNL1        0.0000
     14 C          16.9519   -6.7951   14.1391 C.ar      1 UNL1        0.0000
     15 C          17.6211   -7.8077   13.4288 C.ar      1 UNL1        0.0000
     16 C          17.3199   -8.0282   12.1062 C.ar      1 UNL1        0.0000
     17 C          18.0094   -9.0840   11.3308 C.2       1 UNL1        0.0000
     18 C          18.0360  -11.4079   10.5144 C.3       1 UNL1        0.0000
     19 C          17.6704  -12.7878   11.0177 C.3       1 UNL1        0.0000
     20 C          16.1196  -11.8771   12.7224 C.3       1 UNL1        0.0000
     21 C          16.1447  -10.5871   11.9435 C.3       1 UNL1        0.0000
     22 C          18.0071  -13.3405   13.4198 C.2       1 UNL1        0.0000
     23 C          19.2025  -14.1738   13.2652 C.3       1 UNL1        0.0000
     24 C          19.1193  -15.5716   13.8355 C.3       1 UNL1        0.0000
     25 C          20.0101  -14.5814   14.4447 C.3       1 UNL1        0.0000
     26 C          16.3792   -7.3015   11.4156 C.ar      1 UNL1        0.0000
     27 C          15.7248   -6.3106   12.1118 C.ar      1 UNL1        0.0000
     28 C          16.0304   -6.0823   13.4612 C.ar      1 UNL1        0.0000
     29 O          17.6349   -1.2605   16.5536 O.2       1 UNL1        0.0000
     30 O          17.5844  -13.2020   14.6229 O.2       1 UNL1        0.0000
     31 O          19.0979   -8.8801   10.7457 O.2       1 UNL1        0.0000
     32 F          16.1164   -7.5587   10.1012 F         1 UNL1        0.0000
     33 H          19.9847   -1.5421   16.8375 H         1 UNL1        0.0000
     34 H          22.0431   -2.8340   16.9347 H         1 UNL1        0.0000
     35 H          21.9122   -5.2021   16.5308 H         1 UNL1        0.0000
     36 H          19.8424   -6.3079   16.0402 H         1 UNL1        0.0000
     37 H          16.6061   -7.0487   16.1951 H         1 UNL1        0.0000
     38 H          18.2918   -7.1382   15.7118 H         1 UNL1        0.0000
     39 H          18.3366   -8.3833   13.8993 H         1 UNL1        0.0000
     40 H          19.0967  -11.2859   10.5882 H         1 UNL1        0.0000
     41 H          17.6988  -11.3332    9.5011 H         1 UNL1        0.0000
     42 H          18.5106  -13.4418   10.9153 H         1 UNL1        0.0000
     43 H          16.8532  -13.1771   10.4467 H         1 UNL1        0.0000
     44 H          16.1162  -11.6554   13.7691 H         1 UNL1        0.0000
     45 H          15.2378  -12.4224   12.4576 H         1 UNL1        0.0000
     46 H          15.9795   -9.7755   12.6211 H         1 UNL1        0.0000
     47 H          15.3798  -10.6470   11.1989 H         1 UNL1        0.0000
     48 H          19.4432  -13.7131   12.3302 H         1 UNL1        0.0000
     49 H          19.5289  -16.3970   13.2911 H         1 UNL1        0.0000
     50 H          18.3282  -16.1990   14.1897 H         1 UNL1        0.0000
     51 H          21.0702  -14.6921   14.3500 H         1 UNL1        0.0000
     52 H          20.1326  -14.1971   15.4350 H         1 UNL1        0.0000
     53 H          15.0085   -5.7357   11.6399 H         1 UNL1        0.0000
     54 H          15.5252   -5.3328   13.9599 H         1 UNL1        0.0000
     55 H          15.5972   -2.6587   16.0541 H         1 UNL1        0.0000
@<TRIPOS>BOND
     1    1   18 1
     2    1   21 1
     3    1   17 am
     4    2   19 1
     5    2   20 1
     6    2   22 am
     7    3    4 1
     8    3   12 2
     9    4    5 am
    10    4   55 1
    11    5   29 2
    12    5    6 1
    13    6    7 ar
    14    6   11 ar
    15    7    8 ar
    16    7   33 1
    17    8   34 1
    18    8    9 ar
    19    9   10 ar
    20    9   35 1
    21   10   11 ar
    22   10   36 1
    23   11   12 1
    24   12   13 1
    25   13   37 1
    26   13   38 1
    27   13   14 1
    28   14   15 ar
    29   14   28 ar
    30   15   39 1
    31   15   16 ar
    32   16   26 ar
    33   16   17 1
    34   17   31 2
    35   18   19 1
    36   18   40 1
    37   18   41 1
    38   19   42 1
    39   19   43 1
    40   20   21 1
    41   20   45 1
    42   20   44 1
    43   21   46 1
    44   21   47 1
    45   22   30 2
    46   22   23 1
    47   23   25 1
    48   23   24 1
    49   23   48 1
    50   24   25 1
    51   24   49 1
    52   24   50 1
    53   25   51 1
    54   25   52 1
    55   26   27 ar
    56   26   32 1
    57   27   28 ar
    58   27   53 1
    59   28   54 1
@<TRIPOS>SUBSTRUCTURE
1 UNL1 1
@<TRIPOS>COMMENT
Olaparib
PLANTSproteinTorsions
70
3 105.4380
48 105.8303
123 56.3582
171 148.8135
348 123.6638
606 183.3277
632 46.1415
655 317.9920
678 83.0002
700 44.9398
773 284.1670
807 63.5891
891 101.2428
933 331.6682
999 89.3542
1020 331.3065
1361 241.0269
1371 136.9043
1544 123.4262
1649 139.5635
1689 151.9923
1736 256.6628
1771 9.1137
2012 335.4015
2070 251.2565
2082 231.0802
2147 7.5480
2300 1.8296
2527 244.3603
2551 100.2188
2605 177.1730
2653 158.8913
2739 165.1405
2807 168.4735
2841 228.9021
2875 54.5265
2885 266.8380
2915 121.9157
3074 57.5416
3130 32.7767
3421 230.0035
3586 233.2417
3784 159.7611
3818 121.2028
3881 2.0407
3933 36.8523
4033 34.7444
4046 3.3745
4094 13.1925
4145 149.4560
4208 180.3268
4235 189.6029
4332 44.0995
4568 99.7582
4685 215.3282
4749 210.9483
4805 226.2906
4858 73.6941
4871 196.5075
4945 266.2563
4999 190.5515
5010 298.0887
5106 297.6785
5130 296.8802
5249 84.7118
5258 243.7604
5318 307.5926
5369 163.1318
5589 211.1435
5645 201.5157
PLANTSmolcadARTstart hb
PLANTSmolcadARTstart HB
LINES
19.0979 -8.8801 10.7457 20.767 -9.275 11.654 0 255 0 5
PLANTSmolcadARTstart HBCH
LINES
PLANTSmolcadARTstart HB-CHO
LINES
17.6349 -1.26052 16.5536 16.661 -1.26 18.856 0 255 255 5
PLANTSmolcadARTend
PLANTSmolcadARTstart HB_WATER
LINES
PLANTSmolcadARTend

PLANTSmolcadARTend

