@<TRIPOS>MOLECULE
Olaparib_entry_00001_conf_67_protein
188 118 70
SMALL
NO_CHARGES


@<TRIPOS>ATOM
      1 H         -21.4363    8.9332   11.0537 H       223 ASP223      0.0000
      2 N         -20.6100    9.4850   10.9640 N.4     223 ASP223      1.0000
      3 H2        -20.8366   10.3681   10.5612 H       223 ASP223      0.0000
      4 H3        -19.9495    9.0112   10.3875 H       223 ASP223      0.0000
      5 HG1       -23.3280    4.6569   15.4794 H       226 THR226      0.0000
      6 OG1       -23.6480    5.6080   15.5080 O.3     226 THR226      0.0000
      7 HH        -28.2700    2.4907   18.2437 H       230 TYR230      0.0000
      8 OH        -27.8370    3.0600   17.5440 O.3     230 TYR230      0.0000
      9 HG        -16.4093   -1.6602   12.2102 H       233 SER233      0.0000
     10 OG        -15.9490   -2.4540   12.6070 O.3     233 SER233      0.0000
     11 HZ1        -8.7123    5.4391    7.8824 H       243 LYS243      0.0000
     12 NZ         -8.7810    4.7010    8.5470 N.4     243 LYS243      1.0000
     13 HZ2        -9.7214    4.3807    8.6092 H       243 LYS243      0.0000
     14 HZ3        -8.4637    5.0109    9.4391 H       243 LYS243      0.0000
     15 HZ1        22.9063   10.2792   -0.0799 H       259 LYS259      0.0000
     16 NZ         22.3540    9.4710   -0.2580 N.4     259 LYS259      1.0000
     17 HZ2        21.8198    9.2323    0.5457 H       259 LYS259      0.0000
     18 HZ3        22.9325    8.7087   -0.5290 H       259 LYS259      0.0000
     19 HH         15.2127   -4.3592   -2.5643 H       260 TYR260      0.0000
     20 OH         15.3870   -3.7430   -3.3350 O.3     260 TYR260      0.0000
     21 HG1        10.8993    3.4464   -5.9128 H       262 THR262      0.0000
     22 OG1        11.6660    3.1790   -5.3180 O.3     262 THR262      0.0000
     23 HZ1         9.0033    5.2830   -7.8113 H       263 LYS263      0.0000
     24 NZ          9.6700    5.6550   -8.4530 N.4     263 LYS263      1.0000
     25 HZ2        10.5908    5.5595   -8.0810 H       263 LYS263      0.0000
     26 HZ3         9.4724    6.6158   -8.6293 H       263 LYS263      0.0000
     27 HZ1        21.3218   -0.7459  -11.1268 H       264 LYS264      0.0000
     28 NZ         21.2250   -1.7280  -11.0010 N.4     264 LYS264      1.0000
     29 HZ2        21.2388   -1.9548  -10.0326 H       264 LYS264      0.0000
     30 HZ3        21.9530   -2.2105  -11.4788 H       264 LYS264      0.0000
     31 HZ1         6.6488   -5.8716  -10.1283 H       269 LYS269      0.0000
     32 NZ          7.3110   -6.1790   -9.4530 N.4     269 LYS269      1.0000
     33 HZ2         6.8533   -6.4149   -8.6019 H       269 LYS269      0.0000
     34 HZ3         7.9946   -5.4746   -9.2937 H       269 LYS269      0.0000
     35 HG1        15.2339  -11.9325   -2.1286 H       271 THR271      0.0000
     36 OG1        14.9200  -12.8790   -2.2680 O.3     271 THR271      0.0000
     37 HZ1        21.5752  -18.1234    4.4242 H       276 LYS276      0.0000
     38 NZ         22.5510  -17.9540    4.5780 N.4     276 LYS276      1.0000
     39 HZ2        23.0806  -18.7263    4.2198 H       276 LYS276      0.0000
     40 HZ3        22.7186  -17.8672    5.5617 H       276 LYS276      0.0000
     41 HH         18.9438   -7.5365    7.7815 H       279 TYR279      0.0000
     42 OH         19.8080   -7.2760    8.2120 O.3     279 TYR279      0.0000
     43 HZ1        33.7865  -12.2698    6.7918 H       283 LYS283      0.0000
     44 NZ         33.9490  -11.9430    7.7200 N.4     283 LYS283      1.0000
     45 HZ2        34.6155  -11.2023    7.7087 H       283 LYS283      0.0000
     46 HZ3        34.2791  -12.6902    8.2915 H       283 LYS283      0.0000
     47 HZ1        31.6240  -11.8482   -3.1382 H       284 LYS284      0.0000
     48 NZ         31.2280  -12.1170   -2.2610 N.4     284 LYS284      1.0000
     49 HZ2        30.7810  -13.0055   -2.3515 H       284 LYS284      0.0000
     50 HZ3        30.5611  -11.4325   -1.9694 H       284 LYS284      0.0000
     51 HH         27.1982    3.5569   -1.9210 H       306 TYR306      0.0000
     52 OH         27.7740    2.7440   -1.8460 O.3     306 TYR306      0.0000
     53 HG1        26.3437   -5.2629  -10.1921 H       307 THR307      0.0000
     54 OG1        26.3120   -4.9350   -9.2430 O.3     307 THR307      0.0000
     55 HG1        32.6655    9.7429   -9.2221 H       317 THR317      0.0000
     56 OG1        31.8950    9.2350   -9.6220 O.3     317 THR317      0.0000
     57 HG1        31.8406    5.5622    8.4469 H       323 THR323      0.0000
     58 OG1        32.4070    5.6740    7.6230 O.3     323 THR323      0.0000
     59 HZ1        30.0707    8.5633    7.4032 H       325 LYS325      0.0000
     60 NZ         29.1610    8.9330    7.2460 N.4     325 LYS325      1.0000
     61 HZ2        28.5671    8.2362    6.8561 H       325 LYS325      0.0000
     62 HZ3        29.2079    9.7241    6.6444 H       325 LYS325      0.0000
     63 HG         25.0516    3.2683   11.6912 H       328 SER328      0.0000
     64 OG         25.1580    2.2890   11.5220 O.3     328 SER328      0.0000
     65 HZ1        22.6656    2.5155    1.2826 H       330 LYS330      0.0000
     66 NZ         23.5180    3.0260    1.3810 N.4     330 LYS330      1.0000
     67 HZ2        23.3165    3.9788    1.6021 H       330 LYS330      0.0000
     68 HZ3        24.0389    2.9796    0.5303 H       330 LYS330      0.0000
     69 HZ1         8.7105  -13.4956    3.1633 H       345 LYS345      0.0000
     70 NZ          8.3930  -14.1050    2.4430 N.4     345 LYS345      1.0000
     71 HZ2         8.8751  -14.9753    2.4920 H       345 LYS345      0.0000
     72 HZ3         8.5324  -13.6847    1.5509 H       345 LYS345      0.0000
     73 HZ1         2.1878  -13.6991   -0.5884 H       348 LYS348      0.0000
     74 NZ          2.7670  -12.9680   -0.9450 N.4     348 LYS348      1.0000
     75 HZ2         2.7926  -13.0151   -1.9417 H       348 LYS348      0.0000
     76 HZ3         3.6920  -13.0616   -0.5790 H       348 LYS348      0.0000
     77 HG1        -5.8615   -7.3835    0.8179 H       349 THR349      0.0000
     78 OG1        -6.3420   -8.2570    0.9570 O.3     349 THR349      0.0000
     79 HG        -11.2925  -13.3239    6.0480 H       353 SER353      0.0000
     80 OG        -11.8450  -12.6320    5.5800 O.3     353 SER353      0.0000
     81 HH         -3.8417   -5.8102   19.8929 H       362 TYR362      0.0000
     82 OH         -4.7470   -6.1480   19.6250 O.3     362 TYR362      0.0000
     83 HG         -3.9527    5.8244   30.9423 H       376 SER376      0.0000
     84 OG         -3.5570    5.9650   31.8460 O.3     376 SER376      0.0000
     85 HH          3.4661    6.6298   40.3204 H       377 TYR377      0.0000
     86 OH          3.4610    6.1200   39.4630 O.3     377 TYR377      0.0000
     87 HZ1         3.3172   11.3220   38.8345 H       380 LYS380      0.0000
     88 NZ          2.3270   11.2610   38.6950 N.4     380 LYS380      1.0000
     89 HZ2         1.9018   12.1262   38.9682 H       380 LYS380      0.0000
     90 HZ3         1.9595   10.5208   39.2607 H       380 LYS380      0.0000
     91 HG          2.3008   10.6305   28.8541 H       383 SER383      0.0000
     92 OG          2.1950   11.6230   28.9400 O.3     383 SER383      0.0000
     93 HG         10.6696   11.9844   33.5009 H       388 SER388      0.0000
     94 OG         11.5430   12.3570   33.2060 O.3     388 SER388      0.0000
     95 HG1        23.8113   15.1328   23.9845 H       393 THR393      0.0000
     96 OG1        22.9410   15.5890   23.7600 O.3     393 THR393      0.0000
     97 HG         18.7087   21.9693   20.2569 H       395 SER395      0.0000
     98 OG         19.0240   21.7000   21.1650 O.3     395 SER395      0.0000
     99 HH         14.5018   12.1743   19.2148 H       397 TYR397      0.0000
    100 OH         14.8710   12.9690   19.6890 O.3     397 TYR397      0.0000
    101 HG1         8.6874   19.6116   20.2465 H       398 THR398      0.0000
    102 OG1         8.6220   20.0310   21.1580 O.3     398 THR398      0.0000
    103 HG1         3.6362   18.4741   20.5356 H       400 THR400      0.0000
    104 OG1         3.9170   17.8990   21.3100 O.3     400 THR400      0.0000
    105 HZ1         3.8226  -12.1957   17.7954 H       409 LYS409      0.0000
    106 NZ          4.4340  -11.4210   17.6290 N.4     409 LYS409      1.0000
    107 HZ2         3.8960  -10.5785   17.5793 H       409 LYS409      0.0000
    108 HZ3         4.9151  -11.5589   16.7616 H       409 LYS409      0.0000
    109 HZ1         2.6246  -11.4133   33.3186 H       413 LYS413      0.0000
    110 NZ          1.6780  -11.4650   33.0130 N.4     413 LYS413      1.0000
    111 HZ2         1.5065  -10.7796   32.3106 H       413 LYS413      0.0000
    112 HZ3         1.0609  -11.3281   33.7827 H       413 LYS413      0.0000
    113 HG         13.6196   -0.4950   14.3831 H       430 SER430      0.0000
    114 OG         13.4130    0.4260   14.0760 O.3     430 SER430      0.0000
    115 HG          6.6040   -8.5018   12.9325 H       440 SER440      0.0000
    116 OG          5.9710   -8.9830   12.3290 O.3     440 SER440      0.0000
    117 HG1        32.4186   -3.8822   10.5075 H       453 THR453      0.0000
    118 OG1        32.1320   -2.9810   10.8570 O.3     453 THR453      0.0000
    119 HH         22.3432   -5.6168   12.6620 H       455 TYR455      0.0000
    120 OH         23.2810   -5.5850   12.3310 O.3     455 TYR455      0.0000
    121 HZ1        27.4386  -10.2376   12.1270 H       459 LYS459      0.0000
    122 NZ         26.6110  -10.3810   12.6630 N.4     459 LYS459      1.0000
    123 HZ2        26.6669  -11.2455   13.1553 H       459 LYS459      0.0000
    124 HZ3        25.8126  -10.3775   12.0674 H       459 LYS459      0.0000
    125 HH         26.1308   -3.1252   20.8513 H       462 TYR462      0.0000
    126 OH         25.6260   -2.9400   20.0150 O.3     462 TYR462      0.0000
    127 HZ1        24.2892    6.5975   24.1632 H       469 LYS469      0.0000
    128 NZ         23.5700    5.9180   24.3040 N.4     469 LYS469      1.0000
    129 HZ2        23.2563    5.9515   25.2520 H       469 LYS469      0.0000
    130 HZ3        23.9248    5.0066   24.0997 H       469 LYS469      0.0000
    131 HG         16.2739    3.9788   22.3902 H       470 SER470      0.0000
    132 OG         15.8020    4.6360   22.9740 O.3     470 SER470      0.0000
    133 HH         22.6981    4.5814   17.8823 H       473 TYR473      0.0000
    134 OH         22.3100    5.5040   17.8300 O.3     473 TYR473      0.0000
    135 HG         11.5114   14.0527    6.9832 H       477 SER477      0.0000
    136 OG         11.1460   14.2360    7.8940 O.3     477 SER477      0.0000
    137 HZ1         5.2777   12.7693    5.0032 H       480 LYS480      0.0000
    138 NZ          5.0820   11.8220    4.7460 N.4     480 LYS480      1.0000
    139 HZ2         4.6537   11.8051    3.8418 H       480 LYS480      0.0000
    140 HZ3         4.4599   11.4169    5.4168 H       480 LYS480      0.0000
    141 HG1         2.9493   12.7763   12.4425 H       482 THR482      0.0000
    142 OG1         2.7330   12.0500   13.1080 O.3     482 THR482      0.0000
    143 HG         10.2019   -1.9711   24.6670 H       488 SER488      0.0000
    144 OG         10.3440   -2.9460   24.8140 O.3     488 SER488      0.0000
    145 HZ1        37.1521   -7.1444   18.0551 H       504 LYS504      0.0000
    146 NZ         37.6760   -7.8080   17.5340 N.4     504 LYS504      1.0000
    147 HZ2        38.6168   -7.8382   17.8505 H       504 LYS504      0.0000
    148 HZ3        37.6398   -7.5996   16.5639 H       504 LYS504      0.0000
    149 HZ1        29.5786   -6.1549   36.2226 H       512 LYS512      0.0000
    150 NZ         30.3650   -6.7700   36.2570 N.4     512 LYS512      1.0000
    151 HZ2        30.8127   -6.6936   37.1465 H       512 LYS512      0.0000
    152 HZ3        31.0109   -6.5310   35.5329 H       512 LYS512      0.0000
    153 HZ1        24.4951    3.3439   35.0848 H       516 LYS516      0.0000
    154 NZ         24.0380    2.5320   34.7210 N.4     516 LYS516      1.0000
    155 HZ2        23.0493    2.6287   34.8308 H       516 LYS516      0.0000
    156 HZ3        24.3512    1.7219   35.2175 H       516 LYS516      0.0000
    157 HZ1        30.3856   13.2855   26.1815 H       520 LYS520      0.0000
    158 NZ         30.6520   14.1570   26.5930 N.4     520 LYS520      1.0000
    159 HZ2        30.0686   14.8870   26.2375 H       520 LYS520      0.0000
    160 HZ3        31.6067   14.3543   26.3710 H       520 LYS520      0.0000
    161 HG         18.6312   12.2297   39.8326 H       524 SER524      0.0000
    162 OG         18.8770   11.4400   40.3940 O.3     524 SER524      0.0000
    163 HG         20.6613    6.4392   42.9881 H       525 SER525      0.0000
    164 OG         19.6990    6.6420   43.1690 O.3     525 SER525      0.0000
    165 HG1         7.5001   -0.5276   41.9194 H       530 THR530      0.0000
    166 OG1         7.6550    0.4270   41.6380 O.3     530 THR530      0.0000
    167 HG         10.4288   -4.1785   34.7277 H       534 SER534      0.0000
    168 OG          9.6090   -3.6750   34.4630 O.3     534 SER534      0.0000
    169 HG1        14.5227   -0.2239   39.5022 H       535 THR535      0.0000
    170 OG1        13.6020   -0.2690   39.0930 O.3     535 THR535      0.0000
    171 HG         21.2886   13.1100   37.7807 H       542 SER542      0.0000
    172 OG         22.1280   13.5570   38.0820 O.3     542 SER542      0.0000
    173 HG1        28.1393   10.6604   34.0792 H       544 THR544      0.0000
    174 OG1        28.0730    9.6670   34.2240 O.3     544 THR544      0.0000
    175 HH         39.2433   12.9384   18.6529 H       552 TYR552      0.0000
    176 OH         38.7990   13.4190   19.4090 O.3     552 TYR552      0.0000
    177 HG1        34.6971   10.5720   27.8167 H       553 THR553      0.0000
    178 OG1        34.2910    9.6820   28.0520 O.3     553 THR553      0.0000
    179 HH         22.8294   15.2794   25.4596 H       556 TYR556      0.0000
    180 OH         22.3900   15.0220   26.3220 O.3     556 TYR556      0.0000
    181 HH         21.6563    2.9453   33.1407 H       559 TYR559      0.0000
    182 OH         20.7160    2.6790   32.9500 O.3     559 TYR559      0.0000
    183 HH          3.0552    0.0287   32.4605 H       571 TYR571      0.0000
    184 OH          2.2400    0.1330   31.8950 O.3     571 TYR571      0.0000
    185 HZ1        -2.2286    9.0841   14.0069 H       574 LYS574      0.0000
    186 NZ         -2.0400    8.5440   14.8270 N.4     574 LYS574      1.0000
    187 HZ2        -2.1957    7.5761   14.6326 H       574 LYS574      0.0000
    188 HZ3        -2.6432    8.8380   15.5677 H       574 LYS574      0.0000
@<TRIPOS>BOND
     1    2    1 1
     2    2    4 1
     3    2    3 1
     4    6    5 1
     5    8    7 1
     6   10    9 1
     7   12   11 1
     8   12   13 1
     9   12   14 1
    10   16   15 1
    11   16   17 1
    12   16   18 1
    13   20   19 1
    14   22   21 1
    15   24   26 1
    16   24   23 1
    17   24   25 1
    18   28   27 1
    19   28   30 1
    20   28   29 1
    21   32   33 1
    22   32   34 1
    23   32   31 1
    24   36   35 1
    25   38   37 1
    26   38   39 1
    27   38   40 1
    28   42   41 1
    29   44   43 1
    30   44   45 1
    31   44   46 1
    32   48   47 1
    33   48   49 1
    34   48   50 1
    35   52   51 1
    36   54   53 1
    37   56   55 1
    38   58   57 1
    39   60   61 1
    40   60   59 1
    41   60   62 1
    42   64   63 1
    43   66   65 1
    44   66   68 1
    45   66   67 1
    46   70   69 1
    47   70   71 1
    48   70   72 1
    49   74   73 1
    50   74   75 1
    51   74   76 1
    52   78   77 1
    53   80   79 1
    54   82   81 1
    55   84   83 1
    56   86   85 1
    57   88   87 1
    58   88   89 1
    59   88   90 1
    60   92   91 1
    61   94   93 1
    62   96   95 1
    63   98   97 1
    64  100   99 1
    65  102  101 1
    66  104  103 1
    67  106  107 1
    68  106  108 1
    69  106  105 1
    70  110  109 1
    71  110  112 1
    72  110  111 1
    73  114  113 1
    74  116  115 1
    75  118  117 1
    76  120  119 1
    77  122  121 1
    78  122  123 1
    79  122  124 1
    80  126  125 1
    81  128  127 1
    82  128  129 1
    83  128  130 1
    84  132  131 1
    85  134  133 1
    86  136  135 1
    87  138  137 1
    88  138  140 1
    89  138  139 1
    90  142  141 1
    91  144  143 1
    92  146  147 1
    93  146  145 1
    94  146  148 1
    95  150  151 1
    96  150  149 1
    97  150  152 1
    98  154  153 1
    99  154  155 1
   100  154  156 1
   101  158  157 1
   102  158  159 1
   103  158  160 1
   104  162  161 1
   105  164  163 1
   106  166  165 1
   107  168  167 1
   108  170  169 1
   109  172  171 1
   110  174  173 1
   111  176  175 1
   112  178  177 1
   113  180  179 1
   114  182  181 1
   115  184  183 1
   116  186  185 1
   117  186  188 1
   118  186  187 1
@<TRIPOS>SUBSTRUCTURE
223 ASP223 1
226 THR226 5
230 TYR230 7
233 SER233 9
243 LYS243 11
259 LYS259 15
260 TYR260 19
262 THR262 21
263 LYS263 23
264 LYS264 27
269 LYS269 31
271 THR271 35
276 LYS276 37
279 TYR279 41
283 LYS283 43
284 LYS284 47
306 TYR306 51
307 THR307 53
317 THR317 55
323 THR323 57
325 LYS325 59
328 SER328 63
330 LYS330 65
345 LYS345 69
348 LYS348 73
349 THR349 77
353 SER353 79
362 TYR362 81
376 SER376 83
377 TYR377 85
380 LYS380 87
383 SER383 91
388 SER388 93
393 THR393 95
395 SER395 97
397 TYR397 99
398 THR398 101
400 THR400 103
409 LYS409 105
413 LYS413 109
430 SER430 113
440 SER440 115
453 THR453 117
455 TYR455 119
459 LYS459 121
462 TYR462 125
469 LYS469 127
470 SER470 131
473 TYR473 133
477 SER477 135
480 LYS480 137
482 THR482 141
488 SER488 143
504 LYS504 145
512 LYS512 149
516 LYS516 153
520 LYS520 157
524 SER524 161
525 SER525 163
530 THR530 165
534 SER534 167
535 THR535 169
542 SER542 171
544 THR544 173
552 TYR552 175
553 THR553 177
556 TYR556 179
559 TYR559 181
571 TYR571 183
574 LYS574 185
@<TRIPOS>COMMENT
