@<TRIPOS>MOLECULE
Olaparib_entry_00001_conf_36
55 59 1
SMALL
NO_CHARGES


@<TRIPOS>ATOM
      1 N         -24.9327   -4.2639   12.4439 N.am      1 UNL1        0.0000
      2 N         -23.1488   -6.1505   12.3593 N.am      1 UNL1        0.0000
      3 N         -27.5645   -2.2407   19.1617 N.2       1 UNL1        0.0000
      4 N         -28.3209   -1.4670   19.9019 N.am      1 UNL1        0.0000
      5 C         -27.8969   -0.3083   20.4259 C.2       1 UNL1        0.0000
      6 C         -26.6013    0.0969   20.1789 C.ar      1 UNL1        0.0000
      7 C         -26.1028    1.2842   20.7165 C.ar      1 UNL1        0.0000
      8 C         -24.7987    1.6585   20.4740 C.ar      1 UNL1        0.0000
      9 C         -24.0402    0.8124   19.6929 C.ar      1 UNL1        0.0000
     10 C         -24.5217   -0.3687   19.1534 C.ar      1 UNL1        0.0000
     11 C         -25.8143   -0.7286   19.3972 C.ar      1 UNL1        0.0000
     12 C         -26.2692   -1.9079   18.8710 C.2       1 UNL1        0.0000
     13 C         -25.5588   -2.8204   17.9845 C.3       1 UNL1        0.0000
     14 C         -26.2891   -2.9732   16.6959 C.ar      1 UNL1        0.0000
     15 C         -25.4898   -2.9411   15.5393 C.ar      1 UNL1        0.0000
     16 C         -26.0738   -3.0638   14.3013 C.ar      1 UNL1        0.0000
     17 C         -25.2599   -3.0303   13.0653 C.2       1 UNL1        0.0000
     18 C         -24.1537   -4.2719   11.2480 C.3       1 UNL1        0.0000
     19 C         -23.3749   -5.5570   11.0671 C.3       1 UNL1        0.0000
     20 C         -24.3346   -6.5587   13.1204 C.3       1 UNL1        0.0000
     21 C         -25.4028   -5.4983   13.0449 C.3       1 UNL1        0.0000
     22 C         -21.8674   -6.3380   12.8856 C.2       1 UNL1        0.0000
     23 C         -20.5948   -5.9724   12.2580 C.3       1 UNL1        0.0000
     24 C         -20.3099   -6.6009   10.9126 C.3       1 UNL1        0.0000
     25 C         -19.5114   -6.9749   12.0821 C.3       1 UNL1        0.0000
     26 C         -27.4272   -3.2210   14.1180 C.ar      1 UNL1        0.0000
     27 C         -28.2086   -3.2523   15.2509 C.ar      1 UNL1        0.0000
     28 C         -27.6161   -3.1263   16.5156 C.ar      1 UNL1        0.0000
     29 O         -28.6074    0.4476   21.1368 O.2       1 UNL1        0.0000
     30 O         -21.7738   -6.8867   14.0412 O.2       1 UNL1        0.0000
     31 O         -24.8576   -1.9575   12.5592 O.2       1 UNL1        0.0000
     32 F         -27.9594   -3.3379   12.8667 F         1 UNL1        0.0000
     33 H         -26.7113    1.8834   21.2958 H         1 UNL1        0.0000
     34 H         -24.4079    2.5313   20.8598 H         1 UNL1        0.0000
     35 H         -23.0609    1.0733   19.5003 H         1 UNL1        0.0000
     36 H         -23.9121   -0.9680   18.5750 H         1 UNL1        0.0000
     37 H         -25.4747   -3.7767   18.4572 H         1 UNL1        0.0000
     38 H         -24.5870   -2.4198   17.7835 H         1 UNL1        0.0000
     39 H         -24.4677   -2.8253   15.6199 H         1 UNL1        0.0000
     40 H         -23.4634   -3.4547   11.2836 H         1 UNL1        0.0000
     41 H         -24.8289   -4.1837   10.4220 H         1 UNL1        0.0000
     42 H         -22.4365   -5.3456   10.5991 H         1 UNL1        0.0000
     43 H         -23.9289   -6.2327   10.4490 H         1 UNL1        0.0000
     44 H         -24.0619   -6.7104   14.1437 H         1 UNL1        0.0000
     45 H         -24.7192   -7.4656   12.7024 H         1 UNL1        0.0000
     46 H         -25.7437   -5.2855   14.0367 H         1 UNL1        0.0000
     47 H         -26.1880   -5.8772   12.4260 H         1 UNL1        0.0000
     48 H         -20.6295   -4.9909   12.6819 H         1 UNL1        0.0000
     49 H         -19.8724   -6.0160   10.1305 H         1 UNL1        0.0000
     50 H         -20.8893   -7.1345   10.1883 H         1 UNL1        0.0000
     51 H         -18.4883   -6.6680   12.1460 H         1 UNL1        0.0000
     52 H         -19.2688   -7.9031   12.5542 H         1 UNL1        0.0000
     53 H         -29.2313   -3.3688   15.1688 H         1 UNL1        0.0000
     54 H         -28.2250   -3.1527   17.3488 H         1 UNL1        0.0000
     55 H         -29.2466   -1.7510   20.0812 H         1 UNL1        0.0000
@<TRIPOS>BOND
     1    1   18 1
     2    1   21 1
     3    1   17 am
     4    2   19 1
     5    2   20 1
     6    2   22 am
     7    3    4 1
     8    3   12 2
     9    4    5 am
    10    4   55 1
    11    5   29 2
    12    5    6 1
    13    6    7 ar
    14    6   11 ar
    15    7    8 ar
    16    7   33 1
    17    8   34 1
    18    8    9 ar
    19    9   10 ar
    20    9   35 1
    21   10   11 ar
    22   10   36 1
    23   11   12 1
    24   12   13 1
    25   13   37 1
    26   13   38 1
    27   13   14 1
    28   14   15 ar
    29   14   28 ar
    30   15   39 1
    31   15   16 ar
    32   16   26 ar
    33   16   17 1
    34   17   31 2
    35   18   19 1
    36   18   40 1
    37   18   41 1
    38   19   42 1
    39   19   43 1
    40   20   21 1
    41   20   45 1
    42   20   44 1
    43   21   46 1
    44   21   47 1
    45   22   30 2
    46   22   23 1
    47   23   25 1
    48   23   24 1
    49   23   48 1
    50   24   25 1
    51   24   49 1
    52   24   50 1
    53   25   51 1
    54   25   52 1
    55   26   27 ar
    56   26   32 1
    57   27   28 ar
    58   27   53 1
    59   28   54 1
@<TRIPOS>SUBSTRUCTURE
1 UNL1 1
@<TRIPOS>COMMENT
Olaparib
PLANTSproteinTorsions
70
3 31.8284
48 58.3679
123 11.1971
171 106.0668
348 309.3188
606 67.9432
632 73.8904
655 278.0811
678 239.2677
700 210.7093
773 254.9678
807 123.2422
891 140.6998
933 175.1714
999 272.8413
1020 271.5714
1361 198.1662
1371 75.5918
1544 228.3279
1649 358.4902
1689 106.7244
1736 267.9451
1771 302.5642
2012 7.3774
2070 49.6715
2082 65.6658
2147 210.0809
2300 272.5924
2527 302.1912
2551 173.7180
2605 109.3782
2653 154.1371
2739 137.5156
2807 144.5619
2841 228.8288
2875 249.6051
2885 229.6878
2915 161.9871
3074 155.8481
3130 97.9715
3421 75.5441
3586 245.8011
3784 276.1816
3818 89.4363
3881 165.9807
3933 153.0610
4033 57.5606
4046 310.1547
4094 333.0308
4145 176.4724
4208 160.2970
4235 185.5845
4332 301.5466
4568 245.1012
4685 336.8981
4749 227.7212
4805 27.8625
4858 31.1546
4871 54.3499
4945 30.5160
4999 248.9413
5010 115.2303
5106 243.0534
5130 26.5477
5249 221.3887
5258 72.0998
5318 75.9873
5369 100.6803
5589 299.8046
5645 192.0823
PLANTSmolcadARTstart hb
PLANTSmolcadARTstart HB
LINES
PLANTSmolcadARTstart HBCH
LINES
PLANTSmolcadARTstart HB-CHO
LINES
PLANTSmolcadARTend
PLANTSmolcadARTstart HB_WATER
LINES
PLANTSmolcadARTend

PLANTSmolcadARTend

