@<TRIPOS>MOLECULE
Olaparib_entry_00001_conf_90
55 59 1
SMALL
NO_CHARGES


@<TRIPOS>ATOM
      1 N          15.2924   -4.8491   14.5805 N.am      1 UNL1        0.0000
      2 N          15.4055   -2.3708   13.8103 N.am      1 UNL1        0.0000
      3 N          17.1215  -11.2672   10.5785 N.2       1 UNL1        0.0000
      4 N          17.5523  -11.5430    9.3714 N.am      1 UNL1        0.0000
      5 C          17.4026  -10.7126    8.3299 C.2       1 UNL1        0.0000
      6 C          16.7643   -9.5058    8.5298 C.ar      1 UNL1        0.0000
      7 C          16.5643   -8.6131    7.4762 C.ar      1 UNL1        0.0000
      8 C          15.9051   -7.4227    7.6948 C.ar      1 UNL1        0.0000
      9 C          15.4676   -7.1769    8.9791 C.ar      1 UNL1        0.0000
     10 C          15.6588   -8.0536   10.0339 C.ar      1 UNL1        0.0000
     11 C          16.3146   -9.2277    9.8074 C.ar      1 UNL1        0.0000
     12 C          16.4797  -10.0910   10.8572 C.2       1 UNL1        0.0000
     13 C          16.1108   -9.8794   12.2509 C.3       1 UNL1        0.0000
     14 C          16.8835   -8.7464   12.8309 C.ar      1 UNL1        0.0000
     15 C          16.1608   -7.8951   13.6857 C.ar      1 UNL1        0.0000
     16 C          16.7849   -6.8147   14.2618 C.ar      1 UNL1        0.0000
     17 C          16.0503   -5.8985   15.1632 C.2       1 UNL1        0.0000
     18 C          14.5668   -3.9485   15.4169 C.3       1 UNL1        0.0000
     19 C          14.3599   -2.5936   14.7747 C.3       1 UNL1        0.0000
     20 C          15.4702   -3.2957   12.6735 C.3       1 UNL1        0.0000
     21 C          15.2731   -4.7166   13.1356 C.3       1 UNL1        0.0000
     22 C          16.3289   -1.3282   13.9314 C.2       1 UNL1        0.0000
     23 C          16.4033   -0.3377   15.0086 C.3       1 UNL1        0.0000
     24 C          17.0373    0.9881   14.6529 C.3       1 UNL1        0.0000
     25 C          17.7118    0.0764   15.5797 C.3       1 UNL1        0.0000
     26 C          18.1076   -6.5061   14.0495 C.ar      1 UNL1        0.0000
     27 C          18.8141   -7.3400   13.2126 C.ar      1 UNL1        0.0000
     28 C          18.1802   -8.4427   12.6223 C.ar      1 UNL1        0.0000
     29 O          17.8099  -10.9587    7.1657 O.2       1 UNL1        0.0000
     30 O          17.2149   -1.2090   13.0117 O.2       1 UNL1        0.0000
     31 O          16.0786   -6.0223   16.4092 O.2       1 UNL1        0.0000
     32 F          18.6818   -5.4205   14.6449 F         1 UNL1        0.0000
     33 H          16.9109   -8.8440    6.5320 H         1 UNL1        0.0000
     34 H          15.7458   -6.7470    6.9324 H         1 UNL1        0.0000
     35 H          14.9706   -6.2920    9.1641 H         1 UNL1        0.0000
     36 H          15.3108   -7.8225   10.9778 H         1 UNL1        0.0000
     37 H          16.3174  -10.7687   12.8089 H         1 UNL1        0.0000
     38 H          15.0677   -9.6450   12.3002 H         1 UNL1        0.0000
     39 H          15.1646   -8.0810   13.8796 H         1 UNL1        0.0000
     40 H          15.1098   -3.8160   16.3296 H         1 UNL1        0.0000
     41 H          13.6005   -4.3755   15.5899 H         1 UNL1        0.0000
     42 H          14.3937   -1.8316   15.5247 H         1 UNL1        0.0000
     43 H          13.4062   -2.5641   14.2898 H         1 UNL1        0.0000
     44 H          16.4267   -3.2091   12.2022 H         1 UNL1        0.0000
     45 H          14.6933   -3.0479   11.9807 H         1 UNL1        0.0000
     46 H          16.0571   -5.3203   12.7281 H         1 UNL1        0.0000
     47 H          14.3094   -5.0332   12.7977 H         1 UNL1        0.0000
     48 H          15.4886   -0.6878   15.4388 H         1 UNL1        0.0000
     49 H          16.6099    1.9000   15.0149 H         1 UNL1        0.0000
     50 H          17.3069    1.4777   13.7405 H         1 UNL1        0.0000
     51 H          17.7822    0.3305   16.6167 H         1 UNL1        0.0000
     52 H          18.6845   -0.3660   15.6158 H         1 UNL1        0.0000
     53 H          19.8112   -7.1532   13.0199 H         1 UNL1        0.0000
     54 H          18.7327   -9.0519   11.9984 H         1 UNL1        0.0000
     55 H          18.0090  -12.4028    9.2228 H         1 UNL1        0.0000
@<TRIPOS>BOND
     1    1   18 1
     2    1   21 1
     3    1   17 am
     4    2   19 1
     5    2   20 1
     6    2   22 am
     7    3    4 1
     8    3   12 2
     9    4    5 am
    10    4   55 1
    11    5   29 2
    12    5    6 1
    13    6    7 ar
    14    6   11 ar
    15    7    8 ar
    16    7   33 1
    17    8   34 1
    18    8    9 ar
    19    9   10 ar
    20    9   35 1
    21   10   11 ar
    22   10   36 1
    23   11   12 1
    24   12   13 1
    25   13   37 1
    26   13   38 1
    27   13   14 1
    28   14   15 ar
    29   14   28 ar
    30   15   39 1
    31   15   16 ar
    32   16   26 ar
    33   16   17 1
    34   17   31 2
    35   18   19 1
    36   18   40 1
    37   18   41 1
    38   19   42 1
    39   19   43 1
    40   20   21 1
    41   20   45 1
    42   20   44 1
    43   21   46 1
    44   21   47 1
    45   22   30 2
    46   22   23 1
    47   23   25 1
    48   23   24 1
    49   23   48 1
    50   24   25 1
    51   24   49 1
    52   24   50 1
    53   25   51 1
    54   25   52 1
    55   26   27 ar
    56   26   32 1
    57   27   28 ar
    58   27   53 1
    59   28   54 1
@<TRIPOS>SUBSTRUCTURE
1 UNL1 1
@<TRIPOS>COMMENT
Olaparib
PLANTSproteinTorsions
70
3 107.6621
48 49.1252
123 14.8516
171 91.7773
348 91.0471
606 22.3827
632 263.4743
655 27.4781
678 147.3883
700 25.7737
773 357.8716
807 4.4344
891 174.6306
933 218.6651
999 135.5312
1020 342.3541
1361 173.7945
1371 312.5169
1544 122.0475
1649 17.0681
1689 221.4507
1736 108.9420
1771 310.4661
2012 40.4818
2070 183.0263
2082 226.0755
2147 40.2401
2300 121.0277
2527 186.9252
2551 346.1139
2605 126.3260
2653 114.4573
2739 18.9084
2807 246.3334
2841 78.0625
2875 191.1966
2885 119.7820
2915 91.2597
3074 255.3441
3130 324.0323
3421 73.1942
3586 286.7745
3784 269.7195
3818 101.8309
3881 283.1950
3933 194.1685
4033 141.4564
4046 330.8438
4094 160.9726
4145 243.4939
4208 4.9346
4235 162.3652
4332 170.8119
4568 268.7908
4685 278.5446
4749 268.3752
4805 260.0675
4858 84.1809
4871 117.6750
4945 213.9961
4999 270.8690
5010 160.8695
5106 255.7328
5130 124.1715
5249 106.2557
5258 167.5901
5318 113.8127
5369 42.6775
5589 221.0404
5645 128.2215
PLANTSmolcadARTstart hb
PLANTSmolcadARTstart HB
LINES
16.0786 -6.02228 16.4092 14.939 -7.462 16.94 0 255 0 5
PLANTSmolcadARTstart HBCH
LINES
PLANTSmolcadARTstart HB-CHO
LINES
PLANTSmolcadARTend
PLANTSmolcadARTstart HB_WATER
LINES
PLANTSmolcadARTend

PLANTSmolcadARTend

