@<TRIPOS>MOLECULE
Olaparib_entry_00001_conf_18
55 59 1
SMALL
NO_CHARGES


@<TRIPOS>ATOM
      1 N          10.9418   10.5194   -0.7720 N.am      1 UNL1        0.0000
      2 N          12.7100   11.5779   -2.3537 N.am      1 UNL1        0.0000
      3 N          11.9481    8.8681    4.7861 N.2       1 UNL1        0.0000
      4 N          13.0473    8.3708    5.2990 N.am      1 UNL1        0.0000
      5 C          13.1249    7.8941    6.5494 C.2       1 UNL1        0.0000
      6 C          11.9963    7.9251    7.3426 C.ar      1 UNL1        0.0000
      7 C          12.0269    7.4603    8.6579 C.ar      1 UNL1        0.0000
      8 C          10.8928    7.5208    9.4387 C.ar      1 UNL1        0.0000
      9 C           9.7616    8.0540    8.8580 C.ar      1 UNL1        0.0000
     10 C           9.7170    8.5193    7.5544 C.ar      1 UNL1        0.0000
     11 C          10.8440    8.4525    6.7895 C.ar      1 UNL1        0.0000
     12 C          10.7875    8.9329    5.5086 C.2       1 UNL1        0.0000
     13 C           9.6222    9.4461    4.8004 C.3       1 UNL1        0.0000
     14 C          10.0234   10.4954    3.8231 C.ar      1 UNL1        0.0000
     15 C           9.7573   10.2002    2.4741 C.ar      1 UNL1        0.0000
     16 C          10.1010   11.1026    1.4963 C.ar      1 UNL1        0.0000
     17 C           9.8372   10.8193    0.0675 C.2       1 UNL1        0.0000
     18 C          10.7267   10.2361   -2.1542 C.3       1 UNL1        0.0000
     19 C          11.9313   10.5609   -3.0112 C.3       1 UNL1        0.0000
     20 C          13.2854   11.2352   -1.0485 C.3       1 UNL1        0.0000
     21 C          12.2751   10.5077   -0.1993 C.3       1 UNL1        0.0000
     22 C          12.9206   12.8415   -2.9134 C.2       1 UNL1        0.0000
     23 C          12.4044   13.3358   -4.1925 C.3       1 UNL1        0.0000
     24 C          12.3860   14.8374   -4.3687 C.3       1 UNL1        0.0000
     25 C          11.1282   14.0948   -4.2618 C.3       1 UNL1        0.0000
     26 C          10.7044   12.3091    1.7618 C.ar      1 UNL1        0.0000
     27 C          10.9644   12.5970    3.0825 C.ar      1 UNL1        0.0000
     28 C          10.6160   11.6780    4.0827 C.ar      1 UNL1        0.0000
     29 O          14.1692    7.4122    7.0585 O.2       1 UNL1        0.0000
     30 O          13.6396   13.6724   -2.2516 O.2       1 UNL1        0.0000
     31 O           8.6813   10.8364   -0.4145 O.2       1 UNL1        0.0000
     32 F          11.0271   13.1717    0.7546 F         1 UNL1        0.0000
     33 H          12.8996    7.0700    9.0466 H         1 UNL1        0.0000
     34 H          10.8907    7.1831   10.4130 H         1 UNL1        0.0000
     35 H           8.9020    8.1098    9.4257 H         1 UNL1        0.0000
     36 H           8.8441    8.9106    7.1667 H         1 UNL1        0.0000
     37 H           8.9374    9.8665    5.5071 H         1 UNL1        0.0000
     38 H           9.1586    8.6409    4.2693 H         1 UNL1        0.0000
     39 H           9.3056    9.3083    2.2192 H         1 UNL1        0.0000
     40 H           9.8953   10.8163   -2.4973 H         1 UNL1        0.0000
     41 H          10.5398    9.1858   -2.2436 H         1 UNL1        0.0000
     42 H          11.6072   10.9172   -3.9663 H         1 UNL1        0.0000
     43 H          12.5253    9.6815   -3.1498 H         1 UNL1        0.0000
     44 H          13.5840   12.1324   -0.5481 H         1 UNL1        0.0000
     45 H          14.1315   10.5977   -1.1996 H         1 UNL1        0.0000
     46 H          12.2364   10.9758    0.7622 H         1 UNL1        0.0000
     47 H          12.5866    9.4869   -0.1337 H         1 UNL1        0.0000
     48 H          12.7839   12.4821   -4.7136 H         1 UNL1        0.0000
     49 H          12.6744   15.2702   -5.3040 H         1 UNL1        0.0000
     50 H          12.8235   15.6658   -3.8515 H         1 UNL1        0.0000
     51 H          10.4966   13.9948   -5.1198 H         1 UNL1        0.0000
     52 H          10.2686   14.1700   -3.6303 H         1 UNL1        0.0000
     53 H          11.4160   13.4902    3.3363 H         1 UNL1        0.0000
     54 H          10.8225   11.9184    5.0651 H         1 UNL1        0.0000
     55 H          13.8559    8.3457    4.7375 H         1 UNL1        0.0000
@<TRIPOS>BOND
     1    1   18 1
     2    1   21 1
     3    1   17 am
     4    2   19 1
     5    2   20 1
     6    2   22 am
     7    3    4 1
     8    3   12 2
     9    4    5 am
    10    4   55 1
    11    5   29 2
    12    5    6 1
    13    6    7 ar
    14    6   11 ar
    15    7    8 ar
    16    7   33 1
    17    8   34 1
    18    8    9 ar
    19    9   10 ar
    20    9   35 1
    21   10   11 ar
    22   10   36 1
    23   11   12 1
    24   12   13 1
    25   13   37 1
    26   13   38 1
    27   13   14 1
    28   14   15 ar
    29   14   28 ar
    30   15   39 1
    31   15   16 ar
    32   16   26 ar
    33   16   17 1
    34   17   31 2
    35   18   19 1
    36   18   40 1
    37   18   41 1
    38   19   42 1
    39   19   43 1
    40   20   21 1
    41   20   45 1
    42   20   44 1
    43   21   46 1
    44   21   47 1
    45   22   30 2
    46   22   23 1
    47   23   25 1
    48   23   24 1
    49   23   48 1
    50   24   25 1
    51   24   49 1
    52   24   50 1
    53   25   51 1
    54   25   52 1
    55   26   27 ar
    56   26   32 1
    57   27   28 ar
    58   27   53 1
    59   28   54 1
@<TRIPOS>SUBSTRUCTURE
1 UNL1 1
@<TRIPOS>COMMENT
Olaparib
PLANTSproteinTorsions
70
3 159.8675
48 38.6525
123 266.5717
171 35.3268
348 97.5865
606 166.4672
632 136.2239
655 167.9893
678 291.8269
700 85.0109
773 277.3109
807 147.7340
891 178.8639
933 158.8096
999 9.9774
1020 6.2817
1361 49.4649
1371 141.9879
1544 27.2418
1649 112.0084
1689 220.7385
1736 140.5082
1771 74.3026
2012 9.8674
2070 200.2394
2082 180.8044
2147 125.6259
2300 16.3361
2527 20.5337
2551 142.4417
2605 128.2879
2653 326.6070
2739 224.1095
2807 206.7100
2841 307.0205
2875 82.2981
2885 119.1163
2915 60.6236
3074 78.9439
3130 167.2589
3421 319.3859
3586 78.1145
3784 87.4029
3818 13.6877
3881 17.0443
3933 58.1961
4033 270.3117
4046 118.1997
4094 183.5030
4145 345.7280
4208 162.2079
4235 150.1714
4332 272.3673
4568 189.2744
4685 275.4611
4749 80.6737
4805 139.5618
4858 214.2559
4871 244.2411
4945 111.0048
4999 254.6200
5010 241.2187
5106 137.7597
5130 144.3938
5249 102.8883
5258 15.7022
5318 209.8212
5369 311.4104
5589 218.4987
5645 87.5816
PLANTSmolcadARTstart hb
PLANTSmolcadARTstart HB
LINES
PLANTSmolcadARTstart HBCH
LINES
PLANTSmolcadARTstart HB-CHO
LINES
PLANTSmolcadARTend
PLANTSmolcadARTstart HB_WATER
LINES
PLANTSmolcadARTend

PLANTSmolcadARTend

