@<TRIPOS>MOLECULE
Olaparib_entry_00001_conf_65
55 59 1
SMALL
NO_CHARGES


@<TRIPOS>ATOM
      1 N          18.3222   -2.2986   14.9277 N.am      1 UNL1        0.0000
      2 N          19.3639   -1.4040   17.1329 N.am      1 UNL1        0.0000
      3 N          16.3657   -6.8800   11.2542 N.2       1 UNL1        0.0000
      4 N          15.7031   -7.1508   10.1559 N.am      1 UNL1        0.0000
      5 C          15.3668   -8.3952    9.7881 C.2       1 UNL1        0.0000
      6 C          15.7330   -9.4489   10.6001 C.ar      1 UNL1        0.0000
      7 C          15.4259  -10.7655   10.2546 C.ar      1 UNL1        0.0000
      8 C          15.8204  -11.8039   11.0704 C.ar      1 UNL1        0.0000
      9 C          16.5171  -11.4716   12.2129 C.ar      1 UNL1        0.0000
     10 C          16.8290  -10.1698   12.5679 C.ar      1 UNL1        0.0000
     11 C          16.4317   -9.1494   11.7551 C.ar      1 UNL1        0.0000
     12 C          16.7634   -7.8698   12.1117 C.2       1 UNL1        0.0000
     13 C          17.4336   -7.4296   13.3283 C.3       1 UNL1        0.0000
     14 C          16.6609   -6.3405   13.9871 C.ar      1 UNL1        0.0000
     15 C          17.1923   -5.0468   13.8406 C.ar      1 UNL1        0.0000
     16 C          16.5556   -3.9765   14.4218 C.ar      1 UNL1        0.0000
     17 C          17.0919   -2.6032   14.2885 C.2       1 UNL1        0.0000
     18 C          18.8736   -0.9868   14.8178 C.3       1 UNL1        0.0000
     19 C          19.7639   -0.6277   15.9881 C.3       1 UNL1        0.0000
     20 C          19.4902   -2.8615   17.0254 C.3       1 UNL1        0.0000
     21 C          18.9959   -3.3380   15.6838 C.3       1 UNL1        0.0000
     22 C          18.8737   -0.8176   18.3034 C.2       1 UNL1        0.0000
     23 C          18.6767    0.6120   18.5572 C.3       1 UNL1        0.0000
     24 C          19.0075    1.5441   17.4136 C.3       1 UNL1        0.0000
     25 C          19.8323    1.5446   18.6240 C.3       1 UNL1        0.0000
     26 C          15.3998   -4.0947   15.1568 C.ar      1 UNL1        0.0000
     27 C          14.8806   -5.3616   15.2996 C.ar      1 UNL1        0.0000
     28 C          15.5282   -6.4560   14.7088 C.ar      1 UNL1        0.0000
     29 O          14.7308   -8.6747    8.7397 O.2       1 UNL1        0.0000
     30 O          18.5556   -1.5975   19.2708 O.2       1 UNL1        0.0000
     31 O          16.4981   -1.7145   13.6356 O.2       1 UNL1        0.0000
     32 F          14.8053   -3.0004   15.7151 F         1 UNL1        0.0000
     33 H          14.9021  -10.9622    9.3875 H         1 UNL1        0.0000
     34 H          15.6048  -12.7848   10.8365 H         1 UNL1        0.0000
     35 H          16.8229  -12.2341   12.8369 H         1 UNL1        0.0000
     36 H          17.3539   -9.9739   13.4348 H         1 UNL1        0.0000
     37 H          18.4103   -7.0688   13.0816 H         1 UNL1        0.0000
     38 H          17.5040   -8.2576   14.0027 H         1 UNL1        0.0000
     39 H          18.0581   -4.9015   13.2984 H         1 UNL1        0.0000
     40 H          18.0706   -0.2809   14.7687 H         1 UNL1        0.0000
     41 H          19.4763   -0.9625   13.9334 H         1 UNL1        0.0000
     42 H          19.6656    0.4145   16.2078 H         1 UNL1        0.0000
     43 H          20.7847   -0.8386   15.7450 H         1 UNL1        0.0000
     44 H          18.9114   -3.3236   17.7974 H         1 UNL1        0.0000
     45 H          20.5215   -3.1283   17.1272 H         1 UNL1        0.0000
     46 H          18.3100   -4.1445   15.8391 H         1 UNL1        0.0000
     47 H          19.8496   -3.6439   15.1174 H         1 UNL1        0.0000
     48 H          17.8483    0.4167   19.2053 H         1 UNL1        0.0000
     49 H          18.3698    2.3766   17.2000 H         1 UNL1        0.0000
     50 H          19.1966    1.4217   16.3676 H         1 UNL1        0.0000
     51 H          19.8001    2.3836   19.2874 H         1 UNL1        0.0000
     52 H          20.8777    1.4262   18.8146 H         1 UNL1        0.0000
     53 H          14.0137   -5.5055   15.8419 H         1 UNL1        0.0000
     54 H          15.1180   -7.3952   14.8316 H         1 UNL1        0.0000
     55 H          15.4388   -6.4027    9.5725 H         1 UNL1        0.0000
@<TRIPOS>BOND
     1    1   18 1
     2    1   21 1
     3    1   17 am
     4    2   19 1
     5    2   20 1
     6    2   22 am
     7    3    4 1
     8    3   12 2
     9    4    5 am
    10    4   55 1
    11    5   29 2
    12    5    6 1
    13    6    7 ar
    14    6   11 ar
    15    7    8 ar
    16    7   33 1
    17    8   34 1
    18    8    9 ar
    19    9   10 ar
    20    9   35 1
    21   10   11 ar
    22   10   36 1
    23   11   12 1
    24   12   13 1
    25   13   37 1
    26   13   38 1
    27   13   14 1
    28   14   15 ar
    29   14   28 ar
    30   15   39 1
    31   15   16 ar
    32   16   26 ar
    33   16   17 1
    34   17   31 2
    35   18   19 1
    36   18   40 1
    37   18   41 1
    38   19   42 1
    39   19   43 1
    40   20   21 1
    41   20   45 1
    42   20   44 1
    43   21   46 1
    44   21   47 1
    45   22   30 2
    46   22   23 1
    47   23   25 1
    48   23   24 1
    49   23   48 1
    50   24   25 1
    51   24   49 1
    52   24   50 1
    53   25   51 1
    54   25   52 1
    55   26   27 ar
    56   26   32 1
    57   27   28 ar
    58   27   53 1
    59   28   54 1
@<TRIPOS>SUBSTRUCTURE
1 UNL1 1
@<TRIPOS>COMMENT
Olaparib
PLANTSproteinTorsions
70
3 146.2993
48 282.4050
123 328.7072
171 188.0193
348 106.7629
606 30.5792
632 233.8990
655 202.3111
678 15.6017
700 198.2006
773 292.9507
807 179.8381
891 202.5021
933 163.4376
999 49.1351
1020 234.9409
1361 196.7602
1371 37.5398
1544 117.1439
1649 11.4540
1689 5.3161
1736 124.6104
1771 122.0529
2012 348.1582
2070 108.6250
2082 242.4110
2147 48.8966
2300 139.0704
2527 50.7968
2551 7.0370
2605 144.5318
2653 17.1716
2739 19.6033
2807 221.4321
2841 64.0450
2875 150.7112
2885 90.5911
2915 71.3156
3074 2.6496
3130 116.3958
3421 79.8328
3586 13.9267
3784 244.8723
3818 81.5686
3881 159.5374
3933 304.9644
4033 75.5320
4046 96.9172
4094 107.7257
4145 136.6824
4208 249.6177
4235 75.9522
4332 15.8905
4568 148.4428
4685 189.0023
4749 331.7009
4805 102.8894
4858 8.4851
4871 26.7855
4945 3.8721
4999 240.3554
5010 217.1948
5106 230.8233
5130 220.3683
5249 218.6158
5258 56.8370
5318 0.6968
5369 246.3951
5589 238.9785
5645 169.5537
PLANTSmolcadARTstart hb
PLANTSmolcadARTstart HB
LINES
15.4388 -6.40269 9.57253 14.932 -4.537 8.164 0 255 0 5
18.5556 -1.59754 19.2708 18.799 -3.091 20.86 0 255 0 5
PLANTSmolcadARTstart HBCH
LINES
PLANTSmolcadARTstart HB-CHO
LINES
18.5556 -1.59754 19.2708 16.661 -1.26 18.856 0 255 255 5
PLANTSmolcadARTend
PLANTSmolcadARTstart HB_WATER
LINES
PLANTSmolcadARTend

PLANTSmolcadARTend

