@<TRIPOS>MOLECULE
Olaparib_entry_00001_conf_27
55 59 1
SMALL
NO_CHARGES


@<TRIPOS>ATOM
      1 N          17.7378   -2.7322   16.6304 N.am      1 UNL1        0.0000
      2 N          19.8897   -1.3991   16.0468 N.am      1 UNL1        0.0000
      3 N          17.2153   -7.0551   11.5591 N.2       1 UNL1        0.0000
      4 N          16.9969   -7.1763   10.2722 N.am      1 UNL1        0.0000
      5 C          16.9001   -8.3604    9.6513 C.2       1 UNL1        0.0000
      6 C          17.0363   -9.5135   10.3966 C.ar      1 UNL1        0.0000
      7 C          16.9642  -10.7716    9.7974 C.ar      1 UNL1        0.0000
      8 C          17.1245  -11.9096   10.5582 C.ar      1 UNL1        0.0000
      9 C          17.3550  -11.7332   11.9062 C.ar      1 UNL1        0.0000
     10 C          17.4294  -10.4910   12.5140 C.ar      1 UNL1        0.0000
     11 C          17.2667   -9.3713   11.7525 C.ar      1 UNL1        0.0000
     12 C          17.3607   -8.1510   12.3660 C.2       1 UNL1        0.0000
     13 C          17.5329   -7.8794   13.7871 C.3       1 UNL1        0.0000
     14 C          16.7901   -6.6498   14.1791 C.ar      1 UNL1        0.0000
     15 C          17.3218   -5.9438   15.2729 C.ar      1 UNL1        0.0000
     16 C          16.7003   -4.8010   15.7162 C.ar      1 UNL1        0.0000
     17 C          17.2336   -4.0378   16.8671 C.2       1 UNL1        0.0000
     18 C          18.2559   -1.9637   17.7158 C.3       1 UNL1        0.0000
     19 C          19.2843   -0.9457   17.2720 C.3       1 UNL1        0.0000
     20 C          19.0084   -1.5434   14.8830 C.3       1 UNL1        0.0000
     21 C          17.7136   -2.2054   15.2785 C.3       1 UNL1        0.0000
     22 C          21.2523   -1.6954   15.9474 C.2       1 UNL1        0.0000
     23 C          22.2517   -1.6155   17.0160 C.3       1 UNL1        0.0000
     24 C          22.7050   -0.2259   17.4026 C.3       1 UNL1        0.0000
     25 C          23.6337   -1.1434   16.7387 C.3       1 UNL1        0.0000
     26 C          15.5606   -4.2907   15.1410 C.ar      1 UNL1        0.0000
     27 C          15.0410   -4.9826   14.0704 C.ar      1 UNL1        0.0000
     28 C          15.6721   -6.1495   13.6162 C.ar      1 UNL1        0.0000
     29 O          16.6897   -8.4969    8.4189 O.2       1 UNL1        0.0000
     30 O          21.6951   -2.0812   14.8071 O.2       1 UNL1        0.0000
     31 O          17.2517   -4.5063   18.0285 O.2       1 UNL1        0.0000
     32 F          14.9801   -3.1517   15.6189 F         1 UNL1        0.0000
     33 H          16.7899  -10.8504    8.7833 H         1 UNL1        0.0000
     34 H          17.0749  -12.8500   10.1382 H         1 UNL1        0.0000
     35 H          17.4791  -12.5720   12.4936 H         1 UNL1        0.0000
     36 H          17.6048  -10.4130   13.5281 H         1 UNL1        0.0000
     37 H          18.5735   -7.7438   13.9964 H         1 UNL1        0.0000
     38 H          17.1474   -8.7067   14.3460 H         1 UNL1        0.0000
     39 H          18.1761   -6.2830   15.7416 H         1 UNL1        0.0000
     40 H          18.7130   -2.6288   18.4188 H         1 UNL1        0.0000
     41 H          17.4380   -1.4282   18.1521 H         1 UNL1        0.0000
     42 H          20.0349   -0.8407   18.0269 H         1 UNL1        0.0000
     43 H          18.8121    0.0018   17.1148 H         1 UNL1        0.0000
     44 H          19.4970   -2.1415   14.1426 H         1 UNL1        0.0000
     45 H          18.7926   -0.5720   14.4894 H         1 UNL1        0.0000
     46 H          17.5220   -3.0124   14.6024 H         1 UNL1        0.0000
     47 H          16.9472   -1.4609   15.2384 H         1 UNL1        0.0000
     48 H          21.8515   -2.4812   17.5005 H         1 UNL1        0.0000
     49 H          22.8447    0.0240   18.4338 H         1 UNL1        0.0000
     50 H          22.3526    0.7661   17.2109 H         1 UNL1        0.0000
     51 H          24.4555   -1.5549   17.2867 H         1 UNL1        0.0000
     52 H          24.2408   -1.0846   15.8605 H         1 UNL1        0.0000
     53 H          14.1863   -4.6417   13.6019 H         1 UNL1        0.0000
     54 H          15.2615   -6.6494   12.8118 H         1 UNL1        0.0000
     55 H          16.8985   -6.3567    9.7351 H         1 UNL1        0.0000
@<TRIPOS>BOND
     1    1   18 1
     2    1   21 1
     3    1   17 am
     4    2   19 1
     5    2   20 1
     6    2   22 am
     7    3    4 1
     8    3   12 2
     9    4    5 am
    10    4   55 1
    11    5   29 2
    12    5    6 1
    13    6    7 ar
    14    6   11 ar
    15    7    8 ar
    16    7   33 1
    17    8   34 1
    18    8    9 ar
    19    9   10 ar
    20    9   35 1
    21   10   11 ar
    22   10   36 1
    23   11   12 1
    24   12   13 1
    25   13   37 1
    26   13   38 1
    27   13   14 1
    28   14   15 ar
    29   14   28 ar
    30   15   39 1
    31   15   16 ar
    32   16   26 ar
    33   16   17 1
    34   17   31 2
    35   18   19 1
    36   18   40 1
    37   18   41 1
    38   19   42 1
    39   19   43 1
    40   20   21 1
    41   20   45 1
    42   20   44 1
    43   21   46 1
    44   21   47 1
    45   22   30 2
    46   22   23 1
    47   23   25 1
    48   23   24 1
    49   23   48 1
    50   24   25 1
    51   24   49 1
    52   24   50 1
    53   25   51 1
    54   25   52 1
    55   26   27 ar
    56   26   32 1
    57   27   28 ar
    58   27   53 1
    59   28   54 1
@<TRIPOS>SUBSTRUCTURE
1 UNL1 1
@<TRIPOS>COMMENT
Olaparib
PLANTSproteinTorsions
70
3 177.4086
48 79.9558
123 338.5154
171 233.8990
348 165.5779
606 74.7501
632 210.0940
655 301.5002
678 111.2372
700 46.8973
773 163.8775
807 117.2055
891 160.9652
933 171.5914
999 184.6161
1020 50.9541
1361 43.7386
1371 17.2788
1544 184.9507
1649 15.0500
1689 21.7155
1736 190.2204
1771 96.0542
2012 60.6231
2070 175.5567
2082 41.5294
2147 187.9565
2300 148.9571
2527 115.8781
2551 9.7337
2605 58.3783
2653 312.7018
2739 347.1355
2807 155.3062
2841 188.1600
2875 346.0866
2885 289.7395
2915 103.0861
3074 335.8447
3130 294.2094
3421 290.6028
3586 61.5878
3784 314.4426
3818 121.4338
3881 3.1810
3933 330.2773
4033 349.5798
4046 212.0512
4094 164.9197
4145 315.5985
4208 130.1491
4235 288.8006
4332 73.7803
4568 273.4301
4685 276.5086
4749 247.1182
4805 216.1794
4858 342.2205
4871 8.7425
4945 218.1234
4999 287.2732
5010 252.8407
5106 230.9292
5130 123.0064
5249 169.5214
5258 142.4864
5318 64.4276
5369 146.2200
5589 264.7097
5645 201.6777
PLANTSmolcadARTstart hb
PLANTSmolcadARTstart HB
LINES
PLANTSmolcadARTstart HBCH
LINES
PLANTSmolcadARTstart HB-CHO
LINES
PLANTSmolcadARTend
PLANTSmolcadARTstart HB_WATER
LINES
PLANTSmolcadARTend

PLANTSmolcadARTend

