@<TRIPOS>MOLECULE
Olaparib_entry_00001_conf_12
55 59 1
SMALL
NO_CHARGES


@<TRIPOS>ATOM
      1 N           7.8683    7.8267    7.0159 N.am      1 UNL1        0.0000
      2 N           5.2922    8.1563    6.9561 N.am      1 UNL1        0.0000
      3 N           8.4406   12.2875    2.0572 N.2       1 UNL1        0.0000
      4 N           8.6618   13.4505    1.4941 N.am      1 UNL1        0.0000
      5 C           9.6435   13.6626    0.6064 C.2       1 UNL1        0.0000
      6 C          10.4667   12.6099    0.2632 C.ar      1 UNL1        0.0000
      7 C          11.5162   12.7806   -0.6404 C.ar      1 UNL1        0.0000
      8 C          12.3391   11.7198   -0.9521 C.ar      1 UNL1        0.0000
      9 C          12.0703   10.5172   -0.3336 C.ar      1 UNL1        0.0000
     10 C          11.0328   10.3336    0.5652 C.ar      1 UNL1        0.0000
     11 C          10.2228   11.3890    0.8648 C.ar      1 UNL1        0.0000
     12 C           9.2127   11.1949    1.7685 C.2       1 UNL1        0.0000
     13 C           8.8206    9.9477    2.4117 C.3       1 UNL1        0.0000
     14 C           9.7018    9.6597    3.5769 C.ar      1 UNL1        0.0000
     15 C           9.0424    9.2383    4.7453 C.ar      1 UNL1        0.0000
     16 C           9.7697    8.9583    5.8774 C.ar      1 UNL1        0.0000
     17 C           9.1044    8.5161    7.1236 C.2       1 UNL1        0.0000
     18 C           7.1992    7.3804    8.1950 C.3       1 UNL1        0.0000
     19 C           5.7020    7.2619    8.0073 C.3       1 UNL1        0.0000
     20 C           5.8382    7.9046    5.6180 C.3       1 UNL1        0.0000
     21 C           7.3099    7.5898    5.6976 C.3       1 UNL1        0.0000
     22 C           4.4162    9.2231    7.1769 C.2       1 UNL1        0.0000
     23 C           3.8020    9.6101    8.4497 C.3       1 UNL1        0.0000
     24 C           3.6819   11.0950    8.7080 C.3       1 UNL1        0.0000
     25 C           4.5971   10.2812    9.5113 C.3       1 UNL1        0.0000
     26 C          11.1387    9.0668    5.9403 C.ar      1 UNL1        0.0000
     27 C          11.7831    9.4794    4.7960 C.ar      1 UNL1        0.0000
     28 C          11.0440    9.7668    3.6395 C.ar      1 UNL1        0.0000
     29 O           9.8704   14.7700    0.0549 O.2       1 UNL1        0.0000
     30 O           4.1046    9.9545    6.1703 O.2       1 UNL1        0.0000
     31 O           9.5960    8.7304    8.2555 O.2       1 UNL1        0.0000
     32 F          11.8159    8.7776    7.0895 F         1 UNL1        0.0000
     33 H          11.6762   13.7021   -1.0766 H         1 UNL1        0.0000
     34 H          13.1205   11.8213   -1.6171 H         1 UNL1        0.0000
     35 H          12.6751    9.7106   -0.5520 H         1 UNL1        0.0000
     36 H          10.8741    9.4119    1.0019 H         1 UNL1        0.0000
     37 H           8.8979    9.1476    1.7054 H         1 UNL1        0.0000
     38 H           7.8121   10.0400    2.7579 H         1 UNL1        0.0000
     39 H           8.0154    9.1399    4.7529 H         1 UNL1        0.0000
     40 H           7.3918    8.0785    8.9830 H         1 UNL1        0.0000
     41 H           7.5740    6.4055    8.4298 H         1 UNL1        0.0000
     42 H           5.2040    7.5238    8.9171 H         1 UNL1        0.0000
     43 H           5.4477    6.2553    7.7474 H         1 UNL1        0.0000
     44 H           5.6972    8.7737    5.0102 H         1 UNL1        0.0000
     45 H           5.3295    7.0670    5.1882 H         1 UNL1        0.0000
     46 H           7.8295    8.2047    4.9926 H         1 UNL1        0.0000
     47 H           7.4276    6.5492    5.4821 H         1 UNL1        0.0000
     48 H           3.1607    8.7539    8.4387 H         1 UNL1        0.0000
     49 H           2.7907   11.4912    9.1486 H         1 UNL1        0.0000
     50 H           3.7779   11.9775    8.1107 H         1 UNL1        0.0000
     51 H           4.3746   10.0926   10.5409 H         1 UNL1        0.0000
     52 H           5.6399   10.3374    9.7407 H         1 UNL1        0.0000
     53 H          12.8110    9.5769    4.7896 H         1 UNL1        0.0000
     54 H          11.5518   10.0747    2.7952 H         1 UNL1        0.0000
     55 H           8.0772   14.2055    1.7349 H         1 UNL1        0.0000
@<TRIPOS>BOND
     1    1   18 1
     2    1   21 1
     3    1   17 am
     4    2   19 1
     5    2   20 1
     6    2   22 am
     7    3    4 1
     8    3   12 2
     9    4    5 am
    10    4   55 1
    11    5   29 2
    12    5    6 1
    13    6    7 ar
    14    6   11 ar
    15    7    8 ar
    16    7   33 1
    17    8   34 1
    18    8    9 ar
    19    9   10 ar
    20    9   35 1
    21   10   11 ar
    22   10   36 1
    23   11   12 1
    24   12   13 1
    25   13   37 1
    26   13   38 1
    27   13   14 1
    28   14   15 ar
    29   14   28 ar
    30   15   39 1
    31   15   16 ar
    32   16   26 ar
    33   16   17 1
    34   17   31 2
    35   18   19 1
    36   18   40 1
    37   18   41 1
    38   19   42 1
    39   19   43 1
    40   20   21 1
    41   20   45 1
    42   20   44 1
    43   21   46 1
    44   21   47 1
    45   22   30 2
    46   22   23 1
    47   23   25 1
    48   23   24 1
    49   23   48 1
    50   24   25 1
    51   24   49 1
    52   24   50 1
    53   25   51 1
    54   25   52 1
    55   26   27 ar
    56   26   32 1
    57   27   28 ar
    58   27   53 1
    59   28   54 1
@<TRIPOS>SUBSTRUCTURE
1 UNL1 1
@<TRIPOS>COMMENT
Olaparib
PLANTSproteinTorsions
70
3 230.7592
48 294.6770
123 227.3564
171 170.1533
348 154.3087
606 147.9629
632 200.0323
655 143.4597
678 73.7440
700 142.9346
773 256.7176
807 134.5190
891 266.6132
933 129.0294
999 234.1115
1020 202.5657
1361 134.6358
1371 141.5440
1544 73.4220
1649 89.0822
1689 223.2755
1736 7.8396
1771 167.1299
2012 19.5352
2070 269.6338
2082 126.1384
2147 97.6855
2300 334.0187
2527 217.0945
2551 34.4556
2605 127.3890
2653 6.9361
2739 182.6024
2807 137.5645
2841 28.6018
2875 17.4568
2885 131.6613
2915 111.4577
3074 232.9837
3130 176.1505
3421 158.0150
3586 13.5650
3784 128.4024
3818 237.9276
3881 138.3301
3933 134.8380
4033 61.3028
4046 9.5503
4094 51.9414
4145 38.3245
4208 159.1507
4235 159.7162
4332 2.7196
4568 171.4376
4685 342.1086
4749 328.3116
4805 8.5550
4858 156.0355
4871 83.3342
4945 98.3234
4999 222.7471
5010 26.2260
5106 128.9509
5130 51.3485
5249 12.4121
5258 73.0830
5318 171.6279
5369 112.4545
5589 175.8661
5645 228.7909
PLANTSmolcadARTstart hb
PLANTSmolcadARTstart HB
LINES
4.10456 9.95453 6.1703 4.39727 11.3222 5.27812 0 255 0 5
PLANTSmolcadARTstart HBCH
LINES
PLANTSmolcadARTstart HB-CHO
LINES
PLANTSmolcadARTend
PLANTSmolcadARTstart HB_WATER
LINES
PLANTSmolcadARTend

PLANTSmolcadARTend

