@<TRIPOS>MOLECULE
Olaparib_entry_00001_conf_84
55 59 1
SMALL
NO_CHARGES


@<TRIPOS>ATOM
      1 N          28.9640  -13.9146   16.5446 N.am      1 UNL1        0.0000
      2 N          30.4307  -12.9613   14.6241 N.am      1 UNL1        0.0000
      3 N          32.6415  -12.6478   18.6662 N.2       1 UNL1        0.0000
      4 N          33.6114  -13.1101   17.9149 N.am      1 UNL1        0.0000
      5 C          34.8927  -13.1441   18.3073 C.2       1 UNL1        0.0000
      6 C          35.2151  -12.6706   19.5625 C.ar      1 UNL1        0.0000
      7 C          36.5358  -12.6643   20.0130 C.ar      1 UNL1        0.0000
      8 C          36.8373  -12.1667   21.2624 C.ar      1 UNL1        0.0000
      9 C          35.7858  -11.6888   22.0156 C.ar      1 UNL1        0.0000
     10 C          34.4708  -11.6885   21.5811 C.ar      1 UNL1        0.0000
     11 C          34.1829  -12.1855   20.3442 C.ar      1 UNL1        0.0000
     12 C          32.8804  -12.1617   19.9231 C.2       1 UNL1        0.0000
     13 C          31.7078  -11.7399   20.6782 C.3       1 UNL1        0.0000
     14 C          30.5965  -12.7164   20.5085 C.ar      1 UNL1        0.0000
     15 C          29.9586  -12.6962   19.2554 C.ar      1 UNL1        0.0000
     16 C          28.9140  -13.5539   19.0063 C.ar      1 UNL1        0.0000
     17 C          28.2202  -13.5542   17.6987 C.2       1 UNL1        0.0000
     18 C          28.3284  -13.9313   15.2669 C.3       1 UNL1        0.0000
     19 C          29.2993  -13.7012   14.1287 C.3       1 UNL1        0.0000
     20 C          31.2451  -13.6058   15.6600 C.3       1 UNL1        0.0000
     21 C          30.3653  -14.2610   16.6934 C.3       1 UNL1        0.0000
     22 C          30.7569  -11.6853   14.1554 C.2       1 UNL1        0.0000
     23 C          30.0384  -10.9085   13.1417 C.3       1 UNL1        0.0000
     24 C          29.7802  -11.6068   11.8257 C.3       1 UNL1        0.0000
     25 C          30.7107  -10.4775   11.8880 C.3       1 UNL1        0.0000
     26 C          28.4414  -14.4552   19.9305 C.ar      1 UNL1        0.0000
     27 C          29.0665  -14.4741   21.1568 C.ar      1 UNL1        0.0000
     28 C          30.1320  -13.5997   21.4146 C.ar      1 UNL1        0.0000
     29 O          35.8362  -13.5846   17.6019 O.2       1 UNL1        0.0000
     30 O          31.7922  -11.1155   14.6540 O.2       1 UNL1        0.0000
     31 O          27.0107  -13.2495   17.5841 O.2       1 UNL1        0.0000
     32 F          27.3997  -15.2861   19.6349 F         1 UNL1        0.0000
     33 H          37.2878  -13.0333   19.4104 H         1 UNL1        0.0000
     34 H          37.8053  -12.1520   21.6174 H         1 UNL1        0.0000
     35 H          35.9899  -11.3107   22.9534 H         1 UNL1        0.0000
     36 H          33.7193  -11.3183   22.1840 H         1 UNL1        0.0000
     37 H          31.3897  -10.7801   20.3280 H         1 UNL1        0.0000
     38 H          31.9651  -11.6890   21.7158 H         1 UNL1        0.0000
     39 H          30.2737  -12.0391   18.5250 H         1 UNL1        0.0000
     40 H          27.5849  -13.1617   15.2442 H         1 UNL1        0.0000
     41 H          27.8971  -14.9020   15.1331 H         1 UNL1        0.0000
     42 H          28.8174  -13.1449   13.3524 H         1 UNL1        0.0000
     43 H          29.6247  -14.6414   13.7342 H         1 UNL1        0.0000
     44 H          31.8577  -12.8692   16.1363 H         1 UNL1        0.0000
     45 H          31.8569  -14.3554   15.2032 H         1 UNL1        0.0000
     46 H          30.6908  -13.9520   17.6649 H         1 UNL1        0.0000
     47 H          30.4495  -15.3188   16.5624 H         1 UNL1        0.0000
     48 H          29.4723  -10.3939   13.8894 H         1 UNL1        0.0000
     49 H          28.8347  -11.4950   11.3370 H         1 UNL1        0.0000
     50 H          29.8377  -12.6182   11.4813 H         1 UNL1        0.0000
     51 H          30.4442   -9.5449   11.4359 H         1 UNL1        0.0000
     52 H          31.7299  -10.3335   11.5984 H         1 UNL1        0.0000
     53 H          28.7505  -15.1327   21.8866 H         1 UNL1        0.0000
     54 H          30.5830  -13.6341   22.3425 H         1 UNL1        0.0000
     55 H          33.3872  -13.4497   17.0182 H         1 UNL1        0.0000
@<TRIPOS>BOND
     1    1   18 1
     2    1   21 1
     3    1   17 am
     4    2   19 1
     5    2   20 1
     6    2   22 am
     7    3    4 1
     8    3   12 2
     9    4    5 am
    10    4   55 1
    11    5   29 2
    12    5    6 1
    13    6    7 ar
    14    6   11 ar
    15    7    8 ar
    16    7   33 1
    17    8   34 1
    18    8    9 ar
    19    9   10 ar
    20    9   35 1
    21   10   11 ar
    22   10   36 1
    23   11   12 1
    24   12   13 1
    25   13   37 1
    26   13   38 1
    27   13   14 1
    28   14   15 ar
    29   14   28 ar
    30   15   39 1
    31   15   16 ar
    32   16   26 ar
    33   16   17 1
    34   17   31 2
    35   18   19 1
    36   18   40 1
    37   18   41 1
    38   19   42 1
    39   19   43 1
    40   20   21 1
    41   20   45 1
    42   20   44 1
    43   21   46 1
    44   21   47 1
    45   22   30 2
    46   22   23 1
    47   23   25 1
    48   23   24 1
    49   23   48 1
    50   24   25 1
    51   24   49 1
    52   24   50 1
    53   25   51 1
    54   25   52 1
    55   26   27 ar
    56   26   32 1
    57   27   28 ar
    58   27   53 1
    59   28   54 1
@<TRIPOS>SUBSTRUCTURE
1 UNL1 1
@<TRIPOS>COMMENT
Olaparib
PLANTSproteinTorsions
70
3 142.6475
48 54.4780
123 80.4149
171 57.2414
348 67.0818
606 87.6479
632 5.1974
655 24.0024
678 14.2072
700 182.1612
773 29.9415
807 319.0325
891 10.5220
933 102.4095
999 107.0773
1020 98.3913
1361 79.1096
1371 5.4829
1544 112.4873
1649 330.6204
1689 21.2701
1736 161.7674
1771 241.3912
2012 45.1588
2070 67.0478
2082 115.1676
2147 281.3081
2300 250.5029
2527 276.1316
2551 293.5724
2605 98.5907
2653 236.5331
2739 37.5751
2807 142.2769
2841 223.9994
2875 211.2187
2885 106.1536
2915 156.7327
3074 255.4643
3130 188.7388
3421 110.6445
3586 73.6276
3784 261.8560
3818 118.6635
3881 256.5482
3933 224.6029
4033 57.0357
4046 237.2887
4094 127.6003
4145 166.1191
4208 113.2807
4235 164.0973
4332 71.6499
4568 86.7015
4685 278.0764
4749 172.7546
4805 265.1074
4858 173.5107
4871 155.5252
4945 17.5932
4999 45.6564
5010 251.5518
5106 55.6511
5130 198.3031
5249 162.3350
5258 76.8245
5318 216.8444
5369 63.5127
5589 275.8773
5645 211.7560
PLANTSmolcadARTstart hb
PLANTSmolcadARTstart HB
LINES
PLANTSmolcadARTstart HBCH
LINES
PLANTSmolcadARTstart HB-CHO
LINES
PLANTSmolcadARTend
PLANTSmolcadARTstart HB_WATER
LINES
PLANTSmolcadARTend

PLANTSmolcadARTend

