@<TRIPOS>MOLECULE
Olaparib_entry_00001_conf_50
55 59 1
SMALL
NO_CHARGES


@<TRIPOS>ATOM
      1 N          17.5330   -7.6064   13.1124 N.am      1 UNL1        0.0000
      2 N          16.3185   -5.5660   14.1659 N.am      1 UNL1        0.0000
      3 N          18.8317  -13.0936   11.2669 N.2       1 UNL1        0.0000
      4 N          19.6006  -13.4866   12.2533 N.am      1 UNL1        0.0000
      5 C          19.1326  -13.8035   13.4688 C.2       1 UNL1        0.0000
      6 C          17.7755  -13.7138   13.7014 C.ar      1 UNL1        0.0000
      7 C          17.2378  -14.0125   14.9539 C.ar      1 UNL1        0.0000
      8 C          15.8816  -13.8954   15.1694 C.ar      1 UNL1        0.0000
      9 C          15.1131  -13.4761   14.1041 C.ar      1 UNL1        0.0000
     10 C          15.6332  -13.1760   12.8562 C.ar      1 UNL1        0.0000
     11 C          16.9762  -13.2977   12.6527 C.ar      1 UNL1        0.0000
     12 C          17.4762  -12.9802   11.4183 C.2       1 UNL1        0.0000
     13 C          16.7302  -12.5976   10.2267 C.3       1 UNL1        0.0000
     14 C          16.4366  -11.1378   10.2388 C.ar      1 UNL1        0.0000
     15 C          17.3133  -10.3501   11.0060 C.ar      1 UNL1        0.0000
     16 C          17.1182   -8.9922   11.0876 C.ar      1 UNL1        0.0000
     17 C          18.0216   -8.1368   11.8897 C.2       1 UNL1        0.0000
     18 C          18.3762   -6.7813   13.9157 C.3       1 UNL1        0.0000
     19 C          17.5952   -5.8170   14.7824 C.3       1 UNL1        0.0000
     20 C          15.4174   -6.7132   14.0112 C.3       1 UNL1        0.0000
     21 C          16.1759   -7.9193   13.5200 C.3       1 UNL1        0.0000
     22 C          15.9339   -4.2960   13.7261 C.2       1 UNL1        0.0000
     23 C          16.7222   -3.0628   13.7969 C.3       1 UNL1        0.0000
     24 C          16.9990   -2.5269   15.1834 C.3       1 UNL1        0.0000
     25 C          16.1159   -1.7924   14.2747 C.3       1 UNL1        0.0000
     26 C          16.0921   -8.3379   10.4480 C.ar      1 UNL1        0.0000
     27 C          15.2345   -9.1099    9.6974 C.ar      1 UNL1        0.0000
     28 C          15.4301  -10.4959    9.6128 C.ar      1 UNL1        0.0000
     29 O          19.8536  -14.1834   14.4266 O.2       1 UNL1        0.0000
     30 O          14.7701   -4.1761   13.2004 O.2       1 UNL1        0.0000
     31 O          19.1899   -7.8718   11.5242 O.2       1 UNL1        0.0000
     32 F          15.9402   -6.9863   10.5609 F         1 UNL1        0.0000
     33 H          17.8562  -14.3223   15.7199 H         1 UNL1        0.0000
     34 H          15.4610  -14.1108   16.0859 H         1 UNL1        0.0000
     35 H          14.0956  -13.3804   14.2445 H         1 UNL1        0.0000
     36 H          15.0143  -12.8651   12.0909 H         1 UNL1        0.0000
     37 H          15.8093  -13.1418   10.1977 H         1 UNL1        0.0000
     38 H          17.3205  -12.8223    9.3627 H         1 UNL1        0.0000
     39 H          18.1007  -10.7906   11.5066 H         1 UNL1        0.0000
     40 H          19.0196   -6.2191   13.2712 H         1 UNL1        0.0000
     41 H          18.9321   -7.4242   14.5667 H         1 UNL1        0.0000
     42 H          18.1363   -4.8991   14.8761 H         1 UNL1        0.0000
     43 H          17.4519   -6.2388   15.7556 H         1 UNL1        0.0000
     44 H          14.6521   -6.4678   13.3050 H         1 UNL1        0.0000
     45 H          14.9829   -6.9430   14.9617 H         1 UNL1        0.0000
     46 H          15.6553   -8.3319   12.6810 H         1 UNL1        0.0000
     47 H          16.2369   -8.6125   14.3317 H         1 UNL1        0.0000
     48 H          17.2815   -3.3310   12.9254 H         1 UNL1        0.0000
     49 H          17.9659   -2.1358   15.4228 H         1 UNL1        0.0000
     50 H          16.9111   -2.9152   16.1766 H         1 UNL1        0.0000
     51 H          16.4387   -0.8606   13.8592 H         1 UNL1        0.0000
     52 H          15.1153   -1.4218   14.3438 H         1 UNL1        0.0000
     53 H          14.4473   -8.6678    9.1964 H         1 UNL1        0.0000
     54 H          14.7724  -11.0516    9.0435 H         1 UNL1        0.0000
     55 H          20.5700  -13.5528   12.0930 H         1 UNL1        0.0000
@<TRIPOS>BOND
     1    1   18 1
     2    1   21 1
     3    1   17 am
     4    2   19 1
     5    2   20 1
     6    2   22 am
     7    3    4 1
     8    3   12 2
     9    4    5 am
    10    4   55 1
    11    5   29 2
    12    5    6 1
    13    6    7 ar
    14    6   11 ar
    15    7    8 ar
    16    7   33 1
    17    8   34 1
    18    8    9 ar
    19    9   10 ar
    20    9   35 1
    21   10   11 ar
    22   10   36 1
    23   11   12 1
    24   12   13 1
    25   13   37 1
    26   13   38 1
    27   13   14 1
    28   14   15 ar
    29   14   28 ar
    30   15   39 1
    31   15   16 ar
    32   16   26 ar
    33   16   17 1
    34   17   31 2
    35   18   19 1
    36   18   40 1
    37   18   41 1
    38   19   42 1
    39   19   43 1
    40   20   21 1
    41   20   45 1
    42   20   44 1
    43   21   46 1
    44   21   47 1
    45   22   30 2
    46   22   23 1
    47   23   25 1
    48   23   24 1
    49   23   48 1
    50   24   25 1
    51   24   49 1
    52   24   50 1
    53   25   51 1
    54   25   52 1
    55   26   27 ar
    56   26   32 1
    57   27   28 ar
    58   27   53 1
    59   28   54 1
@<TRIPOS>SUBSTRUCTURE
1 UNL1 1
@<TRIPOS>COMMENT
Olaparib
PLANTSproteinTorsions
70
3 113.6303
48 194.1980
123 354.7035
171 113.5477
348 243.8440
606 132.3233
632 133.3341
655 351.3159
678 242.5109
700 102.9277
773 31.1008
807 95.3137
891 218.1177
933 124.4661
999 260.9399
1020 13.4457
1361 124.7053
1371 261.4785
1544 70.4127
1649 243.4683
1689 335.0399
1736 52.1740
1771 110.8052
2012 344.3514
2070 78.2030
2082 194.9441
2147 148.6254
2300 138.4668
2527 140.8495
2551 244.0918
2605 119.3616
2653 147.8184
2739 130.6782
2807 302.5273
2841 57.8949
2875 146.6242
2885 223.7130
2915 273.7087
3074 175.3770
3130 138.4458
3421 168.4272
3586 262.6749
3784 175.8899
3818 99.7920
3881 96.3432
3933 41.0258
4033 208.7952
4046 200.9804
4094 336.2982
4145 292.8147
4208 129.1814
4235 99.0348
4332 237.3804
4568 245.1393
4685 186.9917
4749 244.2002
4805 321.4054
4858 101.9102
4871 212.6925
4945 45.7950
4999 259.1603
5010 191.0655
5106 274.6603
5130 212.0423
5249 255.3145
5258 314.8656
5318 319.0861
5369 113.2894
5589 91.5011
5645 242.3241
PLANTSmolcadARTstart hb
PLANTSmolcadARTstart HB
LINES
19.1899 -7.87182 11.5242 20.767 -9.275 11.654 0 255 0 5
PLANTSmolcadARTstart HBCH
LINES
PLANTSmolcadARTstart HB-CHO
LINES
PLANTSmolcadARTend
PLANTSmolcadARTstart HB_WATER
LINES
PLANTSmolcadARTend

PLANTSmolcadARTend

