@<TRIPOS>MOLECULE
Olaparib_entry_00001_conf_59
55 59 1
SMALL
NO_CHARGES


@<TRIPOS>ATOM
      1 N          17.3467   -8.4473   12.1094 N.am      1 UNL1        0.0000
      2 N          16.5403   -6.5857   13.7319 N.am      1 UNL1        0.0000
      3 N          16.8193  -14.5625   10.1902 N.2       1 UNL1        0.0000
      4 N          17.8560  -15.2183    9.7278 N.am      1 UNL1        0.0000
      5 C          18.9150  -15.5454   10.4818 C.2       1 UNL1        0.0000
      6 C          18.9221  -15.1768   11.8114 C.ar      1 UNL1        0.0000
      7 C          20.0078  -15.4743   12.6359 C.ar      1 UNL1        0.0000
      8 C          20.0023  -15.0775   13.9558 C.ar      1 UNL1        0.0000
      9 C          18.8925  -14.3882   14.3968 C.ar      1 UNL1        0.0000
     10 C          17.8085  -14.0858   13.5898 C.ar      1 UNL1        0.0000
     11 C          17.8228  -14.4853   12.2860 C.ar      1 UNL1        0.0000
     12 C          16.7510  -14.1629   11.4974 C.2       1 UNL1        0.0000
     13 C          15.5166  -13.5011   11.8992 C.3       1 UNL1        0.0000
     14 C          15.3103  -12.2546   11.1113 C.ar      1 UNL1        0.0000
     15 C          16.2768  -11.2510   11.3014 C.ar      1 UNL1        0.0000
     16 C          16.1668  -10.0593   10.6256 C.ar      1 UNL1        0.0000
     17 C          17.1661   -8.9824   10.8071 C.2       1 UNL1        0.0000
     18 C          18.3044   -7.4112   12.3247 C.3       1 UNL1        0.0000
     19 C          17.9625   -6.5377   13.5126 C.3       1 UNL1        0.0000
     20 C          15.9636   -7.8905   14.0737 C.3       1 UNL1        0.0000
     21 C          16.5463   -8.9717   13.2003 C.3       1 UNL1        0.0000
     22 C          15.7260   -5.4541   13.6284 C.2       1 UNL1        0.0000
     23 C          16.1475   -4.0937   13.2838 C.3       1 UNL1        0.0000
     24 C          16.5206   -3.1974   14.4430 C.3       1 UNL1        0.0000
     25 C          15.3180   -2.9174   13.6552 C.3       1 UNL1        0.0000
     26 C          15.1435   -9.7799    9.7511 C.ar      1 UNL1        0.0000
     27 C          14.1980  -10.7630    9.5659 C.ar      1 UNL1        0.0000
     28 C          14.3066  -11.9796   10.2546 C.ar      1 UNL1        0.0000
     29 O          19.9175  -16.1748   10.0569 O.2       1 UNL1        0.0000
     30 O          14.4721   -5.6013   13.8546 O.2       1 UNL1        0.0000
     31 O          17.8479   -8.5365    9.8557 O.2       1 UNL1        0.0000
     32 F          15.0782   -8.5799    9.1041 F         1 UNL1        0.0000
     33 H          20.8158  -15.9928   12.2573 H         1 UNL1        0.0000
     34 H          20.7925  -15.2861   14.5845 H         1 UNL1        0.0000
     35 H          18.8688  -14.0808   15.3812 H         1 UNL1        0.0000
     36 H          17.0012  -13.5662   13.9688 H         1 UNL1        0.0000
     37 H          15.5711  -13.2554   12.9393 H         1 UNL1        0.0000
     38 H          14.6952  -14.1626   11.7175 H         1 UNL1        0.0000
     39 H          17.0663  -11.4087   11.9468 H         1 UNL1        0.0000
     40 H          18.3476   -6.7974   11.4489 H         1 UNL1        0.0000
     41 H          19.2461   -7.8784   12.5271 H         1 UNL1        0.0000
     42 H          18.2624   -5.5299   13.3157 H         1 UNL1        0.0000
     43 H          18.4763   -6.8913   14.3824 H         1 UNL1        0.0000
     44 H          14.9040   -7.8562   13.9305 H         1 UNL1        0.0000
     45 H          16.1912   -8.1129   15.0953 H         1 UNL1        0.0000
     46 H          15.7439   -9.5469   12.7875 H         1 UNL1        0.0000
     47 H          17.1898   -9.5668   13.8125 H         1 UNL1        0.0000
     48 H          16.5868   -4.4263   12.3669 H         1 UNL1        0.0000
     49 H          17.3714   -2.5526   14.3687 H         1 UNL1        0.0000
     50 H          16.7278   -3.3498   15.4816 H         1 UNL1        0.0000
     51 H          15.2918   -2.0619   13.0130 H         1 UNL1        0.0000
     52 H          14.2853   -2.7772   13.8942 H         1 UNL1        0.0000
     53 H          13.4087  -10.6041    8.9193 H         1 UNL1        0.0000
     54 H          13.5839  -12.6998   10.0978 H         1 UNL1        0.0000
     55 H          17.8564  -15.4843    8.7796 H         1 UNL1        0.0000
@<TRIPOS>BOND
     1    1   18 1
     2    1   21 1
     3    1   17 am
     4    2   19 1
     5    2   20 1
     6    2   22 am
     7    3    4 1
     8    3   12 2
     9    4    5 am
    10    4   55 1
    11    5   29 2
    12    5    6 1
    13    6    7 ar
    14    6   11 ar
    15    7    8 ar
    16    7   33 1
    17    8   34 1
    18    8    9 ar
    19    9   10 ar
    20    9   35 1
    21   10   11 ar
    22   10   36 1
    23   11   12 1
    24   12   13 1
    25   13   37 1
    26   13   38 1
    27   13   14 1
    28   14   15 ar
    29   14   28 ar
    30   15   39 1
    31   15   16 ar
    32   16   26 ar
    33   16   17 1
    34   17   31 2
    35   18   19 1
    36   18   40 1
    37   18   41 1
    38   19   42 1
    39   19   43 1
    40   20   21 1
    41   20   45 1
    42   20   44 1
    43   21   46 1
    44   21   47 1
    45   22   30 2
    46   22   23 1
    47   23   25 1
    48   23   24 1
    49   23   48 1
    50   24   25 1
    51   24   49 1
    52   24   50 1
    53   25   51 1
    54   25   52 1
    55   26   27 ar
    56   26   32 1
    57   27   28 ar
    58   27   53 1
    59   28   54 1
@<TRIPOS>SUBSTRUCTURE
1 UNL1 1
@<TRIPOS>COMMENT
Olaparib
PLANTSproteinTorsions
70
3 91.3723
48 211.0258
123 206.7164
171 107.4573
348 29.7761
606 209.4098
632 288.5702
655 118.4111
678 74.0538
700 237.5799
773 86.2320
807 58.3011
891 301.7802
933 86.1570
999 304.4496
1020 222.8287
1361 29.5358
1371 342.9431
1544 16.9019
1649 358.1361
1689 53.4127
1736 102.6895
1771 69.0639
2012 216.7966
2070 73.7923
2082 148.6565
2147 108.9995
2300 115.3505
2527 99.0888
2551 25.2762
2605 74.2872
2653 352.8821
2739 65.7492
2807 89.7093
2841 27.0536
2875 77.0186
2885 151.2944
2915 203.9545
3074 337.3812
3130 105.7482
3421 136.5551
3586 59.0450
3784 98.5873
3818 56.4378
3881 73.4218
3933 321.2280
4033 347.7014
4046 169.0506
4094 162.8271
4145 112.9333
4208 143.1109
4235 310.7886
4332 319.2249
4568 325.4598
4685 29.9055
4749 26.4167
4805 284.8276
4858 256.1523
4871 324.0950
4945 261.0642
4999 98.2871
5010 191.4080
5106 2.6048
5130 46.0754
5249 215.9477
5258 62.1591
5318 227.2454
5369 10.8794
5589 232.7769
5645 294.2996
PLANTSmolcadARTstart hb
PLANTSmolcadARTstart HB
LINES
17.8479 -8.53649 9.85568 19.0438 -7.92101 8.20922 0 255 0 5
PLANTSmolcadARTstart HBCH
LINES
PLANTSmolcadARTstart HB-CHO
LINES
PLANTSmolcadARTend
PLANTSmolcadARTstart HB_WATER
LINES
PLANTSmolcadARTend

PLANTSmolcadARTend

