@<TRIPOS>MOLECULE
Olaparib_entry_00001_conf_30
55 59 1
SMALL
NO_CHARGES


@<TRIPOS>ATOM
      1 N          16.2850   -2.6255   14.9154 N.am      1 UNL1        0.0000
      2 N          18.2257   -0.9019   15.0204 N.am      1 UNL1        0.0000
      3 N          18.4378   -8.3055   10.6541 N.2       1 UNL1        0.0000
      4 N          18.3784   -8.9732    9.5275 N.am      1 UNL1        0.0000
      5 C          17.8268  -10.1904    9.4226 C.2       1 UNL1        0.0000
      6 C          17.2933  -10.7767   10.5519 C.ar      1 UNL1        0.0000
      7 C          16.7252  -12.0503   10.5028 C.ar      1 UNL1        0.0000
      8 C          16.2176  -12.6251   11.6479 C.ar      1 UNL1        0.0000
      9 C          16.3046  -11.8872   12.8095 C.ar      1 UNL1        0.0000
     10 C          16.8659  -10.6228   12.8729 C.ar      1 UNL1        0.0000
     11 C          17.3630  -10.0620   11.7335 C.ar      1 UNL1        0.0000
     12 C          17.9303   -8.8187   11.8170 C.2       1 UNL1        0.0000
     13 C          18.0008   -7.9484   12.9835 C.3       1 UNL1        0.0000
     14 C          17.0275   -6.8281   12.8607 C.ar      1 UNL1        0.0000
     15 C          16.9484   -5.9701   13.9720 C.ar      1 UNL1        0.0000
     16 C          16.0711   -4.9123   13.9577 C.ar      1 UNL1        0.0000
     17 C          15.9622   -3.9936   15.1133 C.2       1 UNL1        0.0000
     18 C          16.1874   -1.7083   16.0046 C.3       1 UNL1        0.0000
     19 C          17.1147   -0.5216   15.8535 C.3       1 UNL1        0.0000
     20 C          17.9193   -1.2905   13.6394 C.3       1 UNL1        0.0000
     21 C          16.7097   -2.1885   13.5985 C.3       1 UNL1        0.0000
     22 C          19.5443   -0.9092   15.4846 C.2       1 UNL1        0.0000
     23 C          20.0062   -0.5636   16.8316 C.3       1 UNL1        0.0000
     24 C          21.1957   -1.3408   17.3486 C.3       1 UNL1        0.0000
     25 C          19.8762   -1.5264   17.9567 C.3       1 UNL1        0.0000
     26 C          15.2441   -4.6326   12.8957 C.ar      1 UNL1        0.0000
     27 C          15.3224   -5.4733   11.8084 C.ar      1 UNL1        0.0000
     28 C          16.2157   -6.5541   11.8201 C.ar      1 UNL1        0.0000
     29 O          17.7592  -10.8456    8.3512 O.2       1 UNL1        0.0000
     30 O          20.4634   -1.2533   14.6587 O.2       1 UNL1        0.0000
     31 O          15.5976   -4.3850   16.2459 O.2       1 UNL1        0.0000
     32 F          14.3889   -3.5696   12.9301 F         1 UNL1        0.0000
     33 H          16.6844  -12.5624    9.6078 H         1 UNL1        0.0000
     34 H          15.7926  -13.5646   11.6365 H         1 UNL1        0.0000
     35 H          15.9318  -12.2997   13.6784 H         1 UNL1        0.0000
     36 H          16.9075  -10.1117   13.7686 H         1 UNL1        0.0000
     37 H          18.9898   -7.5483   13.0652 H         1 UNL1        0.0000
     38 H          17.7591   -8.5197   13.8556 H         1 UNL1        0.0000
     39 H          17.5472   -6.1344   14.7961 H         1 UNL1        0.0000
     40 H          16.4348   -2.2237   16.9094 H         1 UNL1        0.0000
     41 H          15.1843   -1.3348   16.0237 H         1 UNL1        0.0000
     42 H          17.4727   -0.2206   16.8155 H         1 UNL1        0.0000
     43 H          16.5879    0.2954   15.4056 H         1 UNL1        0.0000
     44 H          18.7573   -1.8109   13.2252 H         1 UNL1        0.0000
     45 H          17.7134   -0.4089   13.0690 H         1 UNL1        0.0000
     46 H          16.9453   -3.0527   13.0129 H         1 UNL1        0.0000
     47 H          15.9063   -1.6255   13.1732 H         1 UNL1        0.0000
     48 H          19.7256    0.4604   16.7011 H         1 UNL1        0.0000
     49 H          21.9691   -0.8378   17.8908 H         1 UNL1        0.0000
     50 H          21.9257   -1.9883   16.9096 H         1 UNL1        0.0000
     51 H          19.6929   -1.1645   18.9469 H         1 UNL1        0.0000
     52 H          19.2541   -2.3753   18.1452 H         1 UNL1        0.0000
     53 H          14.7231   -5.3073   10.9841 H         1 UNL1        0.0000
     54 H          16.2543   -7.1693   10.9921 H         1 UNL1        0.0000
     55 H          18.7572   -8.5596    8.7181 H         1 UNL1        0.0000
@<TRIPOS>BOND
     1    1   18 1
     2    1   21 1
     3    1   17 am
     4    2   19 1
     5    2   20 1
     6    2   22 am
     7    3    4 1
     8    3   12 2
     9    4    5 am
    10    4   55 1
    11    5   29 2
    12    5    6 1
    13    6    7 ar
    14    6   11 ar
    15    7    8 ar
    16    7   33 1
    17    8   34 1
    18    8    9 ar
    19    9   10 ar
    20    9   35 1
    21   10   11 ar
    22   10   36 1
    23   11   12 1
    24   12   13 1
    25   13   37 1
    26   13   38 1
    27   13   14 1
    28   14   15 ar
    29   14   28 ar
    30   15   39 1
    31   15   16 ar
    32   16   26 ar
    33   16   17 1
    34   17   31 2
    35   18   19 1
    36   18   40 1
    37   18   41 1
    38   19   42 1
    39   19   43 1
    40   20   21 1
    41   20   45 1
    42   20   44 1
    43   21   46 1
    44   21   47 1
    45   22   30 2
    46   22   23 1
    47   23   25 1
    48   23   24 1
    49   23   48 1
    50   24   25 1
    51   24   49 1
    52   24   50 1
    53   25   51 1
    54   25   52 1
    55   26   27 ar
    56   26   32 1
    57   27   28 ar
    58   27   53 1
    59   28   54 1
@<TRIPOS>SUBSTRUCTURE
1 UNL1 1
@<TRIPOS>COMMENT
Olaparib
PLANTSproteinTorsions
70
3 2.1378
48 47.7547
123 308.1494
171 105.5919
348 356.8976
606 11.3075
632 195.9120
655 351.2458
678 45.5174
700 206.1595
773 159.2299
807 119.4262
891 44.5328
933 225.2478
999 27.5013
1020 62.0201
1361 141.3242
1371 138.8148
1544 79.2464
1649 55.3001
1689 12.7960
1736 208.0098
1771 126.2279
2012 24.2076
2070 248.7307
2082 235.5365
2147 78.1198
2300 12.8464
2527 132.4825
2551 64.5035
2605 147.2039
2653 111.1330
2739 131.6026
2807 238.2885
2841 302.8234
2875 42.9224
2885 285.3096
2915 79.8334
3074 20.5565
3130 12.8092
3421 57.6858
3586 13.8001
3784 283.6083
3818 68.7690
3881 102.2114
3933 175.8346
4033 65.3027
4046 336.4292
4094 119.2736
4145 223.0633
4208 268.0209
4235 95.4737
4332 32.7036
4568 169.6858
4685 211.8513
4749 243.5334
4805 190.4182
4858 293.0352
4871 46.3795
4945 293.3119
4999 226.6752
5010 274.6254
5106 242.2804
5130 232.1779
5249 230.3823
5258 148.0011
5318 246.0015
5369 260.8747
5589 37.1680
5645 167.7418
PLANTSmolcadARTstart hb
PLANTSmolcadARTstart HB
LINES
18.7572 -8.55955 8.71807 19.808 -7.276 8.212 0 255 0 5
PLANTSmolcadARTstart HBCH
LINES
PLANTSmolcadARTstart HB-CHO
LINES
PLANTSmolcadARTend
PLANTSmolcadARTstart HB_WATER
LINES
PLANTSmolcadARTend

PLANTSmolcadARTend

