@<TRIPOS>MOLECULE
Olaparib_entry_00001_conf_31
55 59 1
SMALL
NO_CHARGES


@<TRIPOS>ATOM
      1 N          15.3305   -4.2707   14.5577 N.am      1 UNL1        0.0000
      2 N          15.8340   -1.7519   14.1694 N.am      1 UNL1        0.0000
      3 N          17.3606  -10.8127   12.9445 N.2       1 UNL1        0.0000
      4 N          18.0984  -11.8949   12.9998 N.am      1 UNL1        0.0000
      5 C          18.2611  -12.7274   11.9619 C.2       1 UNL1        0.0000
      6 C          17.6234  -12.4383   10.7731 C.ar      1 UNL1        0.0000
      7 C          17.7426  -13.2817    9.6677 C.ar      1 UNL1        0.0000
      8 C          17.0793  -12.9841    8.4969 C.ar      1 UNL1        0.0000
      9 C          16.3131  -11.8377    8.4862 C.ar      1 UNL1        0.0000
     10 C          16.1856  -10.9921    9.5755 C.ar      1 UNL1        0.0000
     11 C          16.8481  -11.2943   10.7285 C.ar      1 UNL1        0.0000
     12 C          16.6972  -10.4572   11.8014 C.2       1 UNL1        0.0000
     13 C          15.9661   -9.1979   11.8526 C.3       1 UNL1        0.0000
     14 C          16.7465   -8.1691   12.5941 C.ar      1 UNL1        0.0000
     15 C          15.9987   -7.3454   13.4543 C.ar      1 UNL1        0.0000
     16 C          16.6286   -6.3588   14.1746 C.ar      1 UNL1        0.0000
     17 C          15.8686   -5.4735   15.0856 C.2       1 UNL1        0.0000
     18 C          14.5876   -3.3938   15.4041 C.3       1 UNL1        0.0000
     19 C          14.6333   -1.9546   14.9378 C.3       1 UNL1        0.0000
     20 C          15.9719   -2.5297   12.9333 C.3       1 UNL1        0.0000
     21 C          15.5503   -3.9591   13.1576 C.3       1 UNL1        0.0000
     22 C          16.8365   -0.8612   14.5641 C.2       1 UNL1        0.0000
     23 C          16.8516   -0.0296   15.7705 C.3       1 UNL1        0.0000
     24 C          17.1513    1.4380   15.5650 C.3       1 UNL1        0.0000
     25 C          18.1134    0.5825   16.2634 C.3       1 UNL1        0.0000
     26 C          17.9809   -6.1209   14.1053 C.ar      1 UNL1        0.0000
     27 C          18.7118   -6.9278   13.2629 C.ar      1 UNL1        0.0000
     28 C          18.0722   -7.9347   12.5258 C.ar      1 UNL1        0.0000
     29 O          18.9653  -13.7690   11.9952 O.2       1 UNL1        0.0000
     30 O          17.8622   -0.7453   13.8026 O.2       1 UNL1        0.0000
     31 O          15.6894   -5.7531   16.2933 O.2       1 UNL1        0.0000
     32 F          18.5597   -5.1276   14.8407 F         1 UNL1        0.0000
     33 H          18.3286  -14.1291    9.7266 H         1 UNL1        0.0000
     34 H          17.1522  -13.5915    7.6668 H         1 UNL1        0.0000
     35 H          15.8072  -11.5973    7.6200 H         1 UNL1        0.0000
     36 H          15.5983  -10.1454    9.5163 H         1 UNL1        0.0000
     37 H          15.0300   -9.3538   12.3469 H         1 UNL1        0.0000
     38 H          15.8040   -8.8518   10.8529 H         1 UNL1        0.0000
     39 H          14.9799   -7.4810   13.5443 H         1 UNL1        0.0000
     40 H          14.9937   -3.4469   16.3929 H         1 UNL1        0.0000
     41 H          13.5650   -3.7098   15.3789 H         1 UNL1        0.0000
     42 H          14.6341   -1.3021   15.7854 H         1 UNL1        0.0000
     43 H          13.7756   -1.7417   14.3341 H         1 UNL1        0.0000
     44 H          16.9936   -2.5104   12.6166 H         1 UNL1        0.0000
     45 H          15.3441   -2.0992   12.1813 H         1 UNL1        0.0000
     46 H          16.3167   -4.6044   12.7818 H         1 UNL1        0.0000
     47 H          14.6217   -4.1035   12.6477 H         1 UNL1        0.0000
     48 H          16.0920   -0.6257   16.2310 H         1 UNL1        0.0000
     49 H          16.6004    2.1779   16.1076 H         1 UNL1        0.0000
     50 H          17.1927    2.0910   14.7184 H         1 UNL1        0.0000
     51 H          18.2681    0.7066   17.3149 H         1 UNL1        0.0000
     52 H          19.1515    0.3637   16.1303 H         1 UNL1        0.0000
     53 H          19.7315   -6.7913   13.1743 H         1 UNL1        0.0000
     54 H          18.6436   -8.5255   11.9013 H         1 UNL1        0.0000
     55 H          18.5563  -12.1062   13.8457 H         1 UNL1        0.0000
@<TRIPOS>BOND
     1    1   18 1
     2    1   21 1
     3    1   17 am
     4    2   19 1
     5    2   20 1
     6    2   22 am
     7    3    4 1
     8    3   12 2
     9    4    5 am
    10    4   55 1
    11    5   29 2
    12    5    6 1
    13    6    7 ar
    14    6   11 ar
    15    7    8 ar
    16    7   33 1
    17    8   34 1
    18    8    9 ar
    19    9   10 ar
    20    9   35 1
    21   10   11 ar
    22   10   36 1
    23   11   12 1
    24   12   13 1
    25   13   37 1
    26   13   38 1
    27   13   14 1
    28   14   15 ar
    29   14   28 ar
    30   15   39 1
    31   15   16 ar
    32   16   26 ar
    33   16   17 1
    34   17   31 2
    35   18   19 1
    36   18   40 1
    37   18   41 1
    38   19   42 1
    39   19   43 1
    40   20   21 1
    41   20   45 1
    42   20   44 1
    43   21   46 1
    44   21   47 1
    45   22   30 2
    46   22   23 1
    47   23   25 1
    48   23   24 1
    49   23   48 1
    50   24   25 1
    51   24   49 1
    52   24   50 1
    53   25   51 1
    54   25   52 1
    55   26   27 ar
    56   26   32 1
    57   27   28 ar
    58   27   53 1
    59   28   54 1
@<TRIPOS>SUBSTRUCTURE
1 UNL1 1
@<TRIPOS>COMMENT
Olaparib
PLANTSproteinTorsions
70
3 94.1708
48 233.6282
123 342.4980
171 335.2378
348 96.7531
606 2.9101
632 162.5727
655 85.2890
678 54.5021
700 3.5379
773 145.8534
807 215.9533
891 220.2046
933 193.1443
999 42.0395
1020 321.6367
1361 20.6022
1371 193.4880
1544 55.2571
1649 19.7031
1689 90.2428
1736 102.0517
1771 115.6053
2012 37.1731
2070 180.8538
2082 225.3540
2147 139.2639
2300 235.9552
2527 175.3775
2551 53.0231
2605 180.8148
2653 335.2678
2739 271.2499
2807 210.9468
2841 91.8702
2875 186.6294
2885 131.3580
2915 85.2312
3074 259.0641
3130 89.4163
3421 48.6474
3586 231.4400
3784 127.3385
3818 123.3147
3881 135.7350
3933 167.7156
4033 124.4059
4046 201.5060
4094 230.4286
4145 75.2255
4208 120.4217
4235 303.4310
4332 232.5321
4568 259.8011
4685 263.2721
4749 24.1958
4805 155.4577
4858 304.8623
4871 107.6427
4945 213.1423
4999 231.4483
5010 257.7840
5106 249.4267
5130 117.0083
5249 237.8629
5258 189.3122
5318 229.3019
5369 280.1345
5589 248.2129
5645 303.9381
PLANTSmolcadARTstart hb
PLANTSmolcadARTstart HB
LINES
18.5563 -12.1062 13.8457 19.176 -10.827 14.967 0 255 0 5
15.6894 -5.75309 16.2933 14.939 -7.462 16.94 0 255 0 5
PLANTSmolcadARTstart HBCH
LINES
PLANTSmolcadARTstart HB-CHO
LINES
PLANTSmolcadARTend
PLANTSmolcadARTstart HB_WATER
LINES
PLANTSmolcadARTend

PLANTSmolcadARTend

