@<TRIPOS>MOLECULE
Olaparib_entry_00001_conf_96
55 59 1
SMALL
NO_CHARGES


@<TRIPOS>ATOM
      1 N          19.0347    1.1400   13.3566 N.am      1 UNL1        0.0000
      2 N          21.2288    0.3842   14.5241 N.am      1 UNL1        0.0000
      3 N          15.0746   -5.2465   12.2145 N.2       1 UNL1        0.0000
      4 N          15.5018   -6.4497   11.9173 N.am      1 UNL1        0.0000
      5 C          16.5715   -7.0137   12.4958 C.2       1 UNL1        0.0000
      6 C          17.2628   -6.2988   13.4522 C.ar      1 UNL1        0.0000
      7 C          18.3947   -6.8306   14.0711 C.ar      1 UNL1        0.0000
      8 C          19.0820   -6.0898   15.0084 C.ar      1 UNL1        0.0000
      9 C          18.5977   -4.8291   15.2866 C.ar      1 UNL1        0.0000
     10 C          17.4762   -4.2888   14.6799 C.ar      1 UNL1        0.0000
     11 C          16.8018   -5.0310   13.7558 C.ar      1 UNL1        0.0000
     12 C          15.7055   -4.4752   13.1527 C.2       1 UNL1        0.0000
     13 C          15.0912   -3.1848   13.4367 C.3       1 UNL1        0.0000
     14 C          15.7233   -2.1127   12.6193 C.ar      1 UNL1        0.0000
     15 C          16.3508   -1.0863   13.3476 C.ar      1 UNL1        0.0000
     16 C          16.9538   -0.0461   12.6818 C.ar      1 UNL1        0.0000
     17 C          17.6194    1.0508   13.4201 C.2       1 UNL1        0.0000
     18 C          19.7119    2.1868   14.0513 C.3       1 UNL1        0.0000
     19 C          21.1317    1.8172   14.4237 C.3       1 UNL1        0.0000
     20 C          20.9702   -0.3872   13.3034 C.3       1 UNL1        0.0000
     21 C          19.7653    0.1561   12.5794 C.3       1 UNL1        0.0000
     22 C          21.5520   -0.2645   15.7195 C.2       1 UNL1        0.0000
     23 C          21.8219    0.3613   17.0166 C.3       1 UNL1        0.0000
     24 C          20.6974    0.3150   18.0263 C.3       1 UNL1        0.0000
     25 C          21.1037    1.5929   17.4373 C.3       1 UNL1        0.0000
     26 C          16.9832    0.0561   11.3112 C.ar      1 UNL1        0.0000
     27 C          16.3686   -0.9492   10.5993 C.ar      1 UNL1        0.0000
     28 C          15.7516   -2.0114   11.2755 C.ar      1 UNL1        0.0000
     29 O          16.9956   -8.1664   12.2251 O.2       1 UNL1        0.0000
     30 O          21.6244   -1.5450   15.7002 O.2       1 UNL1        0.0000
     31 O          16.9766    1.8914   14.0902 O.2       1 UNL1        0.0000
     32 F          17.5948    1.1101   10.6966 F         1 UNL1        0.0000
     33 H          18.7174   -7.7800   13.8275 H         1 UNL1        0.0000
     34 H          19.9206   -6.4614   15.4795 H         1 UNL1        0.0000
     35 H          19.0983   -4.2574   15.9843 H         1 UNL1        0.0000
     36 H          17.1547   -3.3386   14.9233 H         1 UNL1        0.0000
     37 H          15.2159   -2.9561   14.4746 H         1 UNL1        0.0000
     38 H          14.0508   -3.2361   13.1911 H         1 UNL1        0.0000
     39 H          16.3582   -1.1138   14.3790 H         1 UNL1        0.0000
     40 H          19.1697    2.4103   14.9466 H         1 UNL1        0.0000
     41 H          19.7589    3.0320   13.3959 H         1 UNL1        0.0000
     42 H          21.3840    2.2617   15.3634 H         1 UNL1        0.0000
     43 H          21.8077    2.1755   13.6752 H         1 UNL1        0.0000
     44 H          20.7923   -1.4097   13.5634 H         1 UNL1        0.0000
     45 H          21.8216   -0.3126   12.6596 H         1 UNL1        0.0000
     46 H          19.1067   -0.6567   12.3542 H         1 UNL1        0.0000
     47 H          20.1153    0.6428   11.6941 H         1 UNL1        0.0000
     48 H          22.8556    0.0900   16.9698 H         1 UNL1        0.0000
     49 H          20.9095    0.1078   19.0545 H         1 UNL1        0.0000
     50 H          19.7759   -0.2226   18.1090 H         1 UNL1        0.0000
     51 H          21.6051    2.3199   18.0416 H         1 UNL1        0.0000
     52 H          20.5887    2.3720   16.9167 H         1 UNL1        0.0000
     53 H          16.3625   -0.9207    9.5672 H         1 UNL1        0.0000
     54 H          15.2976   -2.7520   10.7177 H         1 UNL1        0.0000
     55 H          15.0122   -6.9648   11.2356 H         1 UNL1        0.0000
@<TRIPOS>BOND
     1    1   18 1
     2    1   21 1
     3    1   17 am
     4    2   19 1
     5    2   20 1
     6    2   22 am
     7    3    4 1
     8    3   12 2
     9    4    5 am
    10    4   55 1
    11    5   29 2
    12    5    6 1
    13    6    7 ar
    14    6   11 ar
    15    7    8 ar
    16    7   33 1
    17    8   34 1
    18    8    9 ar
    19    9   10 ar
    20    9   35 1
    21   10   11 ar
    22   10   36 1
    23   11   12 1
    24   12   13 1
    25   13   37 1
    26   13   38 1
    27   13   14 1
    28   14   15 ar
    29   14   28 ar
    30   15   39 1
    31   15   16 ar
    32   16   26 ar
    33   16   17 1
    34   17   31 2
    35   18   19 1
    36   18   40 1
    37   18   41 1
    38   19   42 1
    39   19   43 1
    40   20   21 1
    41   20   45 1
    42   20   44 1
    43   21   46 1
    44   21   47 1
    45   22   30 2
    46   22   23 1
    47   23   25 1
    48   23   24 1
    49   23   48 1
    50   24   25 1
    51   24   49 1
    52   24   50 1
    53   25   51 1
    54   25   52 1
    55   26   27 ar
    56   26   32 1
    57   27   28 ar
    58   27   53 1
    59   28   54 1
@<TRIPOS>SUBSTRUCTURE
1 UNL1 1
@<TRIPOS>COMMENT
Olaparib
PLANTSproteinTorsions
70
3 338.2406
48 253.1317
123 19.4163
171 95.3651
348 23.9513
606 4.2730
632 77.9846
655 51.1423
678 59.8145
700 66.4598
773 158.3525
807 64.4676
891 210.9255
933 40.5615
999 163.5462
1020 45.3396
1361 171.8294
1371 13.0019
1544 215.7023
1649 34.6444
1689 108.9072
1736 162.9602
1771 341.9638
2012 256.8979
2070 167.8669
2082 265.0882
2147 88.6911
2300 137.2484
2527 108.9964
2551 227.0605
2605 202.3495
2653 36.0187
2739 116.1732
2807 256.7141
2841 60.4067
2875 179.9107
2885 102.5295
2915 66.0299
3074 3.8159
3130 77.0396
3421 114.7851
3586 280.0686
3784 120.5554
3818 127.0330
3881 342.4872
3933 267.1373
4033 113.6331
4046 44.9677
4094 68.3417
4145 256.8155
4208 134.0782
4235 282.3608
4332 298.8179
4568 226.5186
4685 47.1277
4749 125.7358
4805 121.4280
4858 48.5725
4871 54.9381
4945 119.7206
4999 226.0168
5010 128.5887
5106 86.3768
5130 121.6656
5249 228.1147
5258 222.3341
5318 69.5236
5369 74.4979
5589 281.1091
5645 153.2643
PLANTSmolcadARTstart hb
PLANTSmolcadARTstart HB
LINES
PLANTSmolcadARTstart HBCH
LINES
PLANTSmolcadARTstart HB-CHO
LINES
PLANTSmolcadARTend
PLANTSmolcadARTstart HB_WATER
LINES
PLANTSmolcadARTend

PLANTSmolcadARTend

