@<TRIPOS>MOLECULE
Olaparib_entry_00001_conf_61
55 59 1
SMALL
NO_CHARGES


@<TRIPOS>ATOM
      1 N          22.0595    9.2844   14.7586 N.am      1 UNL1        0.0000
      2 N          23.7848    8.5958   12.9427 N.am      1 UNL1        0.0000
      3 N          19.3989   11.9861   11.0963 N.2       1 UNL1        0.0000
      4 N          20.0730   12.0101    9.9722 N.am      1 UNL1        0.0000
      5 C          19.4896   12.0433    8.7658 C.2       1 UNL1        0.0000
      6 C          18.1117   12.0524    8.6951 C.ar      1 UNL1        0.0000
      7 C          17.4533   12.0664    7.4649 C.ar      1 UNL1        0.0000
      8 C          16.0759   12.0537    7.4181 C.ar      1 UNL1        0.0000
      9 C          15.4095   12.0255    8.6249 C.ar      1 UNL1        0.0000
     10 C          16.0498   12.0110    9.8528 C.ar      1 UNL1        0.0000
     11 C          17.4131   12.0264    9.8880 C.ar      1 UNL1        0.0000
     12 C          18.0304   11.9940   11.1097 C.2       1 UNL1        0.0000
     13 C          17.4047   12.0321   12.4250 C.3       1 UNL1        0.0000
     14 C          18.4385   12.0359   13.4968 C.ar      1 UNL1        0.0000
     15 C          19.0507   10.7959   13.7521 C.ar      1 UNL1        0.0000
     16 C          20.0104   10.6961   14.7308 C.ar      1 UNL1        0.0000
     17 C          20.6705    9.4042   15.0254 C.2       1 UNL1        0.0000
     18 C          22.7320    8.0561   15.0341 C.3       1 UNL1        0.0000
     19 C          23.9528    7.8506   14.1632 C.3       1 UNL1        0.0000
     20 C          23.6765   10.0538   13.0630 C.3       1 UNL1        0.0000
     21 C          22.7687   10.4243   14.2075 C.3       1 UNL1        0.0000
     22 C          23.7239    7.9798   11.6893 C.2       1 UNL1        0.0000
     23 C          23.8019    6.5438   11.4084 C.3       1 UNL1        0.0000
     24 C          24.8332    5.7657   12.1940 C.3       1 UNL1        0.0000
     25 C          24.9984    5.9556   10.7511 C.3       1 UNL1        0.0000
     26 C          20.4209   11.7618   15.4959 C.ar      1 UNL1        0.0000
     27 C          19.8210   12.9751   15.2452 C.ar      1 UNL1        0.0000
     28 C          18.8407   13.0803   14.2480 C.ar      1 UNL1        0.0000
     29 O          20.1188   12.0680    7.6771 O.2       1 UNL1        0.0000
     30 O          23.5840    8.7350   10.6620 O.2       1 UNL1        0.0000
     31 O          20.0453    8.4271   15.4978 O.2       1 UNL1        0.0000
     32 F          21.3781   11.6113   16.4571 F         1 UNL1        0.0000
     33 H          17.9982   12.0870    6.5887 H         1 UNL1        0.0000
     34 H          15.5670   12.0641    6.5213 H         1 UNL1        0.0000
     35 H          14.3781   12.0143    8.6123 H         1 UNL1        0.0000
     36 H          15.5042   11.9893   10.7287 H         1 UNL1        0.0000
     37 H          16.7789   11.1721   12.5425 H         1 UNL1        0.0000
     38 H          16.8233   12.9270   12.5051 H         1 UNL1        0.0000
     39 H          18.7798    9.9631   13.2064 H         1 UNL1        0.0000
     40 H          22.0509    7.2477   14.8661 H         1 UNL1        0.0000
     41 H          23.0625    8.0898   16.0518 H         1 UNL1        0.0000
     42 H          24.0623    6.8107   13.9377 H         1 UNL1        0.0000
     43 H          24.8271    8.1902   14.6787 H         1 UNL1        0.0000
     44 H          23.2777   10.4540   12.1546 H         1 UNL1        0.0000
     45 H          24.6490   10.4592   13.2496 H         1 UNL1        0.0000
     46 H          22.0497   11.1352   13.8570 H         1 UNL1        0.0000
     47 H          23.3813   10.8271   14.9857 H         1 UNL1        0.0000
     48 H          22.7518    6.4915   11.2113 H         1 UNL1        0.0000
     49 H          24.5919    4.7981   12.5824 H         1 UNL1        0.0000
     50 H          25.4332    5.9620   13.0579 H         1 UNL1        0.0000
     51 H          24.8853    5.1219   10.0899 H         1 UNL1        0.0000
     52 H          25.7798    6.3463   10.1345 H         1 UNL1        0.0000
     53 H          20.0934   13.8079   15.7916 H         1 UNL1        0.0000
     54 H          18.4064   14.0016   14.0805 H         1 UNL1        0.0000
     55 H          21.0568   12.0041   10.0165 H         1 UNL1        0.0000
@<TRIPOS>BOND
     1    1   18 1
     2    1   21 1
     3    1   17 am
     4    2   19 1
     5    2   20 1
     6    2   22 am
     7    3    4 1
     8    3   12 2
     9    4    5 am
    10    4   55 1
    11    5   29 2
    12    5    6 1
    13    6    7 ar
    14    6   11 ar
    15    7    8 ar
    16    7   33 1
    17    8   34 1
    18    8    9 ar
    19    9   10 ar
    20    9   35 1
    21   10   11 ar
    22   10   36 1
    23   11   12 1
    24   12   13 1
    25   13   37 1
    26   13   38 1
    27   13   14 1
    28   14   15 ar
    29   14   28 ar
    30   15   39 1
    31   15   16 ar
    32   16   26 ar
    33   16   17 1
    34   17   31 2
    35   18   19 1
    36   18   40 1
    37   18   41 1
    38   19   42 1
    39   19   43 1
    40   20   21 1
    41   20   45 1
    42   20   44 1
    43   21   46 1
    44   21   47 1
    45   22   30 2
    46   22   23 1
    47   23   25 1
    48   23   24 1
    49   23   48 1
    50   24   25 1
    51   24   49 1
    52   24   50 1
    53   25   51 1
    54   25   52 1
    55   26   27 ar
    56   26   32 1
    57   27   28 ar
    58   27   53 1
    59   28   54 1
@<TRIPOS>SUBSTRUCTURE
1 UNL1 1
@<TRIPOS>COMMENT
Olaparib
PLANTSproteinTorsions
70
3 208.6678
48 169.3691
123 141.3210
171 112.7859
348 165.9893
606 176.4024
632 78.4926
655 160.2869
678 345.2653
700 28.2880
773 254.7687
807 171.2566
891 248.9354
933 152.5135
999 149.1179
1020 116.9085
1361 207.8542
1371 266.6307
1544 187.4091
1649 76.5810
1689 222.7146
1736 153.3933
1771 141.5620
2012 328.9919
2070 153.2651
2082 177.3482
2147 231.7975
2300 110.4710
2527 69.8924
2551 320.9005
2605 155.8760
2653 117.0017
2739 229.0710
2807 191.9937
2841 219.4470
2875 162.4760
2885 237.3252
2915 225.3483
3074 7.9227
3130 138.6512
3421 191.3474
3586 266.6196
3784 309.8708
3818 68.6633
3881 287.9514
3933 96.8397
4033 138.5938
4046 115.6104
4094 272.8160
4145 175.1120
4208 281.8843
4235 215.0221
4332 243.6743
4568 233.2654
4685 216.3896
4749 260.5264
4805 249.8085
4858 262.9471
4871 104.9802
4945 62.5589
4999 267.3944
5010 66.6253
5106 153.6794
5130 233.1893
5249 272.3636
5258 240.9452
5318 252.7083
5369 201.8320
5589 230.5396
5645 162.5535
PLANTSmolcadARTstart hb
PLANTSmolcadARTstart HB
LINES
PLANTSmolcadARTstart HBCH
LINES
PLANTSmolcadARTstart HB-CHO
LINES
PLANTSmolcadARTend
PLANTSmolcadARTstart HB_WATER
LINES
PLANTSmolcadARTend

PLANTSmolcadARTend

