@<TRIPOS>MOLECULE
Olaparib_entry_00001_conf_81
55 59 1
SMALL
NO_CHARGES


@<TRIPOS>ATOM
      1 N          16.0273   -9.5029   10.1020 N.am      1 UNL1        0.0000
      2 N          16.5659   -7.1558   11.0765 N.am      1 UNL1        0.0000
      3 N          19.6097  -16.1855   10.5172 N.2       1 UNL1        0.0000
      4 N          19.9702  -17.3138   11.0789 N.am      1 UNL1        0.0000
      5 C          19.2646  -18.4482   10.9687 C.2       1 UNL1        0.0000
      6 C          18.0997  -18.4358   10.2294 C.ar      1 UNL1        0.0000
      7 C          17.3168  -19.5835   10.0988 C.ar      1 UNL1        0.0000
      8 C          16.1459  -19.5423    9.3731 C.ar      1 UNL1        0.0000
      9 C          15.8057  -18.3338    8.8030 C.ar      1 UNL1        0.0000
     10 C          16.5727  -17.1872    8.9246 C.ar      1 UNL1        0.0000
     11 C          17.7309  -17.2393    9.6427 C.ar      1 UNL1        0.0000
     12 C          18.4683  -16.0925    9.7678 C.2       1 UNL1        0.0000
     13 C          18.2170  -14.7996    9.1446 C.3       1 UNL1        0.0000
     14 C          17.9638  -13.7596   10.1798 C.ar      1 UNL1        0.0000
     15 C          16.9624  -12.8236    9.8657 C.ar      1 UNL1        0.0000
     16 C          16.6634  -11.8186   10.7542 C.ar      1 UNL1        0.0000
     17 C          15.6171  -10.8163   10.4509 C.2       1 UNL1        0.0000
     18 C          15.0477   -8.5104    9.7982 C.3       1 UNL1        0.0000
     19 C          15.5373   -7.1042   10.0703 C.3       1 UNL1        0.0000
     20 C          17.7865   -7.8978   10.7425 C.3       1 UNL1        0.0000
     21 C          17.4456   -9.1985   10.0620 C.3       1 UNL1        0.0000
     22 C          16.4296   -6.5360   12.3221 C.2       1 UNL1        0.0000
     23 C          15.2743   -5.7759   12.8064 C.3       1 UNL1        0.0000
     24 C          15.3347   -4.2772   12.6160 C.3       1 UNL1        0.0000
     25 C          15.3966   -4.8498   13.9627 C.3       1 UNL1        0.0000
     26 C          17.2988  -11.6675   11.9639 C.ar      1 UNL1        0.0000
     27 C          18.2789  -12.5843   12.2703 C.ar      1 UNL1        0.0000
     28 C          18.5872  -13.6104   11.3656 C.ar      1 UNL1        0.0000
     29 O          19.5946  -19.5400   11.4987 O.2       1 UNL1        0.0000
     30 O          17.4095   -6.6318   13.1442 O.2       1 UNL1        0.0000
     31 O          14.3960  -11.0917   10.4928 O.2       1 UNL1        0.0000
     32 F          16.9659  -10.6515   12.8121 F         1 UNL1        0.0000
     33 H          17.6151  -20.4646   10.5457 H         1 UNL1        0.0000
     34 H          15.5510  -20.3773    9.2621 H         1 UNL1        0.0000
     35 H          14.9323  -18.2810    8.2566 H         1 UNL1        0.0000
     36 H          16.2732  -16.3060    8.4784 H         1 UNL1        0.0000
     37 H          17.3617  -14.8765    8.5062 H         1 UNL1        0.0000
     38 H          19.0788  -14.5166    8.5767 H         1 UNL1        0.0000
     39 H          16.4538  -12.8909    8.9706 H         1 UNL1        0.0000
     40 H          14.1788   -8.6926   10.3959 H         1 UNL1        0.0000
     41 H          14.8302   -8.5805    8.7524 H         1 UNL1        0.0000
     42 H          14.7245   -6.5016   10.4173 H         1 UNL1        0.0000
     43 H          15.9299   -6.6767    9.1711 H         1 UNL1        0.0000
     44 H          18.3312   -8.1032   11.6401 H         1 UNL1        0.0000
     45 H          18.3804   -7.3063   10.0774 H         1 UNL1        0.0000
     46 H          17.9770   -9.9890   10.5497 H         1 UNL1        0.0000
     47 H          17.7244   -9.1056    9.0339 H         1 UNL1        0.0000
     48 H          14.6062   -6.5776   12.5712 H         1 UNL1        0.0000
     49 H          14.4630   -3.7421   12.3014 H         1 UNL1        0.0000
     50 H          15.9483   -3.6104   12.0469 H         1 UNL1        0.0000
     51 H          14.5709   -4.7231   14.6314 H         1 UNL1        0.0000
     52 H          16.0801   -4.7619   14.7802 H         1 UNL1        0.0000
     53 H          18.7867  -12.5162   13.1667 H         1 UNL1        0.0000
     54 H          19.3266  -14.2844   11.6198 H         1 UNL1        0.0000
     55 H          20.8009  -17.3287   11.6076 H         1 UNL1        0.0000
@<TRIPOS>BOND
     1    1   18 1
     2    1   21 1
     3    1   17 am
     4    2   19 1
     5    2   20 1
     6    2   22 am
     7    3    4 1
     8    3   12 2
     9    4    5 am
    10    4   55 1
    11    5   29 2
    12    5    6 1
    13    6    7 ar
    14    6   11 ar
    15    7    8 ar
    16    7   33 1
    17    8   34 1
    18    8    9 ar
    19    9   10 ar
    20    9   35 1
    21   10   11 ar
    22   10   36 1
    23   11   12 1
    24   12   13 1
    25   13   37 1
    26   13   38 1
    27   13   14 1
    28   14   15 ar
    29   14   28 ar
    30   15   39 1
    31   15   16 ar
    32   16   26 ar
    33   16   17 1
    34   17   31 2
    35   18   19 1
    36   18   40 1
    37   18   41 1
    38   19   42 1
    39   19   43 1
    40   20   21 1
    41   20   45 1
    42   20   44 1
    43   21   46 1
    44   21   47 1
    45   22   30 2
    46   22   23 1
    47   23   25 1
    48   23   24 1
    49   23   48 1
    50   24   25 1
    51   24   49 1
    52   24   50 1
    53   25   51 1
    54   25   52 1
    55   26   27 ar
    56   26   32 1
    57   27   28 ar
    58   27   53 1
    59   28   54 1
@<TRIPOS>SUBSTRUCTURE
1 UNL1 1
@<TRIPOS>COMMENT
Olaparib
PLANTSproteinTorsions
70
3 28.5777
48 263.7340
123 64.9491
171 22.1773
348 100.3833
606 14.1536
632 308.2414
655 74.5087
678 25.1217
700 234.9552
773 31.0651
807 150.0158
891 91.3787
933 265.9910
999 59.7504
1020 214.8536
1361 3.7393
1371 327.3763
1544 16.3034
1649 249.0742
1689 215.5275
1736 92.3263
1771 195.0416
2012 355.7182
2070 85.8632
2082 157.1815
2147 33.5237
2300 235.9616
2527 270.7107
2551 164.9052
2605 105.1836
2653 114.3707
2739 106.3296
2807 256.9283
2841 326.8396
2875 172.6877
2885 87.4614
2915 272.7357
3074 242.7021
3130 317.2885
3421 72.6435
3586 33.3098
3784 36.1897
3818 157.2206
3881 76.7844
3933 214.6741
4033 92.9004
4046 216.2354
4094 235.1848
4145 211.3702
4208 17.5982
4235 169.8809
4332 233.7048
4568 81.9918
4685 262.9537
4749 256.6586
4805 210.7014
4858 318.8434
4871 18.6965
4945 42.2762
4999 346.4919
5010 226.6302
5106 80.0542
5130 151.1624
5249 268.6116
5258 243.0045
5318 231.0509
5369 229.9263
5589 73.8750
5645 125.5508
PLANTSmolcadARTstart hb
PLANTSmolcadARTstart HB
LINES
14.396 -11.0917 10.4928 13.06 -9.621 11.732 0 255 0 5
PLANTSmolcadARTstart HBCH
LINES
PLANTSmolcadARTstart HB-CHO
LINES
PLANTSmolcadARTend
PLANTSmolcadARTstart HB_WATER
LINES
PLANTSmolcadARTend

PLANTSmolcadARTend

