@<TRIPOS>MOLECULE
Olaparib_entry_00001_conf_54
55 59 1
SMALL
NO_CHARGES


@<TRIPOS>ATOM
      1 N          15.5632   -4.9442   14.1241 N.am      1 UNL1        0.0000
      2 N          16.8402   -2.8704   15.0279 N.am      1 UNL1        0.0000
      3 N          14.2009  -11.1593   11.3806 N.2       1 UNL1        0.0000
      4 N          13.8804  -12.3026   11.9361 N.am      1 UNL1        0.0000
      5 C          14.7669  -13.2806   12.1697 C.2       1 UNL1        0.0000
      6 C          16.0841  -13.0819   11.8101 C.ar      1 UNL1        0.0000
      7 C          17.0439  -14.0744   12.0123 C.ar      1 UNL1        0.0000
      8 C          18.3496  -13.8620   11.6257 C.ar      1 UNL1        0.0000
      9 C          18.6393  -12.6462   11.0433 C.ar      1 UNL1        0.0000
     10 C          17.6971  -11.6526   10.8362 C.ar      1 UNL1        0.0000
     11 C          16.4084  -11.8719   11.2248 C.ar      1 UNL1        0.0000
     12 C          15.4860  -10.8862   10.9968 C.2       1 UNL1        0.0000
     13 C          15.7209   -9.5550   10.4530 C.3       1 UNL1        0.0000
     14 C          16.4734   -8.7168   11.4268 C.ar      1 UNL1        0.0000
     15 C          15.6844   -7.9712   12.3208 C.ar      1 UNL1        0.0000
     16 C          16.2876   -7.1589   13.2509 C.ar      1 UNL1        0.0000
     17 C          15.4845   -6.3593   14.2032 C.2       1 UNL1        0.0000
     18 C          14.7998   -4.1394   15.0221 C.3       1 UNL1        0.0000
     19 C          15.4223   -2.7807   15.2617 C.3       1 UNL1        0.0000
     20 C          17.2695   -3.2226   13.6702 C.3       1 UNL1        0.0000
     21 C          16.4254   -4.3446   13.1226 C.3       1 UNL1        0.0000
     22 C          17.7831   -2.6379   16.0335 C.2       1 UNL1        0.0000
     23 C          17.5133   -2.2936   17.4320 C.3       1 UNL1        0.0000
     24 C          18.6417   -2.5376   18.4084 C.3       1 UNL1        0.0000
     25 C          17.4231   -3.3472   18.4767 C.3       1 UNL1        0.0000
     26 C          17.6512   -7.0266   13.3654 C.ar      1 UNL1        0.0000
     27 C          18.4225   -7.7568   12.4897 C.ar      1 UNL1        0.0000
     28 C          17.8103   -8.5858   11.5389 C.ar      1 UNL1        0.0000
     29 O          14.4790  -14.3829   12.7024 O.2       1 UNL1        0.0000
     30 O          19.0231   -2.7320   15.7189 O.2       1 UNL1        0.0000
     31 O          14.7469   -6.8900   15.0652 O.2       1 UNL1        0.0000
     32 F          18.2024   -6.2056   14.3060 F         1 UNL1        0.0000
     33 H          16.7760  -14.9685   12.4525 H         1 UNL1        0.0000
     34 H          19.0765  -14.5800   11.7651 H         1 UNL1        0.0000
     35 H          19.6106  -12.4673   10.7453 H         1 UNL1        0.0000
     36 H          17.9655  -10.7591   10.3948 H         1 UNL1        0.0000
     37 H          14.7807   -9.0901   10.2409 H         1 UNL1        0.0000
     38 H          16.2999   -9.6451    9.5575 H         1 UNL1        0.0000
     39 H          14.6554   -8.0337   12.2784 H         1 UNL1        0.0000
     40 H          14.7223   -4.6511   15.9590 H         1 UNL1        0.0000
     41 H          13.8390   -3.9811   14.5773 H         1 UNL1        0.0000
     42 H          15.2426   -2.4761   16.2713 H         1 UNL1        0.0000
     43 H          14.9895   -2.0615   14.5977 H         1 UNL1        0.0000
     44 H          18.2933   -3.5323   13.6932 H         1 UNL1        0.0000
     45 H          17.1568   -2.3666   13.0382 H         1 UNL1        0.0000
     46 H          17.0739   -5.1022   12.7345 H         1 UNL1        0.0000
     47 H          15.7957   -3.9315   12.3636 H         1 UNL1        0.0000
     48 H          16.8763   -1.4837   17.1444 H         1 UNL1        0.0000
     49 H          18.8513   -1.8200   19.1742 H         1 UNL1        0.0000
     50 H          19.6872   -2.7475   18.3201 H         1 UNL1        0.0000
     51 H          16.7495   -3.2236   19.2989 H         1 UNL1        0.0000
     52 H          17.2232   -4.3975   18.4630 H         1 UNL1        0.0000
     53 H          19.4522   -7.6938   12.5336 H         1 UNL1        0.0000
     54 H          18.4119   -9.1223   10.8939 H         1 UNL1        0.0000
     55 H          12.9417  -12.4500   12.1952 H         1 UNL1        0.0000
@<TRIPOS>BOND
     1    1   18 1
     2    1   21 1
     3    1   17 am
     4    2   19 1
     5    2   20 1
     6    2   22 am
     7    3    4 1
     8    3   12 2
     9    4    5 am
    10    4   55 1
    11    5   29 2
    12    5    6 1
    13    6    7 ar
    14    6   11 ar
    15    7    8 ar
    16    7   33 1
    17    8   34 1
    18    8    9 ar
    19    9   10 ar
    20    9   35 1
    21   10   11 ar
    22   10   36 1
    23   11   12 1
    24   12   13 1
    25   13   37 1
    26   13   38 1
    27   13   14 1
    28   14   15 ar
    29   14   28 ar
    30   15   39 1
    31   15   16 ar
    32   16   26 ar
    33   16   17 1
    34   17   31 2
    35   18   19 1
    36   18   40 1
    37   18   41 1
    38   19   42 1
    39   19   43 1
    40   20   21 1
    41   20   45 1
    42   20   44 1
    43   21   46 1
    44   21   47 1
    45   22   30 2
    46   22   23 1
    47   23   25 1
    48   23   24 1
    49   23   48 1
    50   24   25 1
    51   24   49 1
    52   24   50 1
    53   25   51 1
    54   25   52 1
    55   26   27 ar
    56   26   32 1
    57   27   28 ar
    58   27   53 1
    59   28   54 1
@<TRIPOS>SUBSTRUCTURE
1 UNL1 1
@<TRIPOS>COMMENT
Olaparib
PLANTSproteinTorsions
70
3 177.0337
48 171.3460
123 158.5508
171 67.4469
348 194.6837
606 51.5175
632 54.7021
655 152.2573
678 115.1326
700 37.2937
773 83.6755
807 91.8880
891 172.7258
933 109.5823
999 185.4147
1020 64.3170
1361 219.7789
1371 27.2941
1544 133.9203
1649 331.4042
1689 23.2349
1736 27.5174
1771 239.6870
2012 266.8823
2070 97.5191
2082 180.9726
2147 63.2187
2300 154.1101
2527 223.9158
2551 90.9062
2605 202.7653
2653 91.4330
2739 104.8777
2807 239.8721
2841 129.5502
2875 128.6718
2885 290.2232
2915 242.7662
3074 234.1533
3130 72.2669
3421 97.4456
3586 52.7548
3784 204.8373
3818 58.1643
3881 312.8018
3933 355.8265
4033 304.8495
4046 29.3928
4094 57.1791
4145 118.9846
4208 162.3987
4235 209.4843
4332 91.4740
4568 52.1939
4685 127.2323
4749 125.2157
4805 102.3638
4858 174.3852
4871 134.4939
4945 218.9736
4999 145.5741
5010 37.8017
5106 206.8772
5130 178.1599
5249 59.6982
5258 74.5502
5318 112.6970
5369 298.4951
5589 163.7592
5645 217.9560
PLANTSmolcadARTstart hb
PLANTSmolcadARTstart HB
LINES
14.2009 -11.1593 11.3806 13.06 -9.621 11.732 0 255 0 5
14.7469 -6.89003 15.0652 14.939 -7.462 16.94 0 255 0 5
PLANTSmolcadARTstart HBCH
LINES
PLANTSmolcadARTstart HB-CHO
LINES
PLANTSmolcadARTend
PLANTSmolcadARTstart HB_WATER
LINES
PLANTSmolcadARTend

PLANTSmolcadARTend

