@<TRIPOS>MOLECULE
Olaparib_entry_00001_conf_04
55 59 1
SMALL
NO_CHARGES


@<TRIPOS>ATOM
      1 N          15.1539   -5.0170   13.5037 N.am      1 UNL1        0.0000
      2 N          15.4532   -2.4368   13.4684 N.am      1 UNL1        0.0000
      3 N          16.6416  -10.6480   10.3489 N.2       1 UNL1        0.0000
      4 N          16.9158  -11.9257   10.2444 N.am      1 UNL1        0.0000
      5 C          17.1166  -12.5409    9.0705 C.2       1 UNL1        0.0000
      6 C          17.0318  -11.7996    7.9099 C.ar      1 UNL1        0.0000
      7 C          17.2121  -12.3940    6.6604 C.ar      1 UNL1        0.0000
      8 C          17.1017  -11.6381    5.5132 C.ar      1 UNL1        0.0000
      9 C          16.8094  -10.3000    5.6718 C.ar      1 UNL1        0.0000
     10 C          16.6275   -9.6971    6.9053 C.ar      1 UNL1        0.0000
     11 C          16.7416  -10.4534    8.0343 C.ar      1 UNL1        0.0000
     12 C          16.5415   -9.8456    9.2447 C.2       1 UNL1        0.0000
     13 C          16.2981   -8.4323    9.5022 C.3       1 UNL1        0.0000
     14 C          16.9524   -8.0110   10.7717 C.ar      1 UNL1        0.0000
     15 C          16.1168   -7.3601   11.6968 C.ar      1 UNL1        0.0000
     16 C          16.6316   -6.9242   12.8941 C.ar      1 UNL1        0.0000
     17 C          15.7784   -6.2328   13.8869 C.2       1 UNL1        0.0000
     18 C          14.3201   -4.3240   14.4319 C.3       1 UNL1        0.0000
     19 C          14.2558   -2.8362   14.1611 C.3       1 UNL1        0.0000
     20 C          15.6853   -3.0281   12.1461 C.3       1 UNL1        0.0000
     21 C          15.3800   -4.5038   12.1654 C.3       1 UNL1        0.0000
     22 C          16.3677   -1.5297   14.0116 C.2       1 UNL1        0.0000
     23 C          16.2841   -0.8690   15.3168 C.3       1 UNL1        0.0000
     24 C          16.6389    0.6005   15.3443 C.3       1 UNL1        0.0000
     25 C          17.5058   -0.3770   16.0061 C.3       1 UNL1        0.0000
     26 C          17.9480   -7.0898   13.2541 C.ar      1 UNL1        0.0000
     27 C          18.7651   -7.7270   12.3478 C.ar      1 UNL1        0.0000
     28 C          18.2433   -8.1722   11.1248 C.ar      1 UNL1        0.0000
     29 O          17.3818  -13.7644    8.9501 O.2       1 UNL1        0.0000
     30 O          17.3978   -1.2309   13.3082 O.2       1 UNL1        0.0000
     31 O          15.5947   -6.6854   15.0402 O.2       1 UNL1        0.0000
     32 F          18.4117   -6.6380   14.4556 F         1 UNL1        0.0000
     33 H          17.4292  -13.4007    6.5949 H         1 UNL1        0.0000
     34 H          17.2311  -12.0546    4.5788 H         1 UNL1        0.0000
     35 H          16.7210   -9.7164    4.8257 H         1 UNL1        0.0000
     36 H          16.4093   -8.6903    6.9699 H         1 UNL1        0.0000
     37 H          15.2439   -8.2642    9.5767 H         1 UNL1        0.0000
     38 H          16.7086   -7.8589    8.6972 H         1 UNL1        0.0000
     39 H          15.1199   -7.2099   11.4770 H         1 UNL1        0.0000
     40 H          14.7055   -4.4766   15.4186 H         1 UNL1        0.0000
     41 H          13.3286   -4.7146   14.3298 H         1 UNL1        0.0000
     42 H          14.1817   -2.3054   15.0869 H         1 UNL1        0.0000
     43 H          13.3978   -2.6136   13.5613 H         1 UNL1        0.0000
     44 H          16.7091   -2.8848   11.8704 H         1 UNL1        0.0000
     45 H          15.0416   -2.5523   11.4360 H         1 UNL1        0.0000
     46 H          16.2067   -5.0294   11.7346 H         1 UNL1        0.0000
     47 H          14.4793   -4.6524   11.6088 H         1 UNL1        0.0000
     48 H          15.4684   -1.4924   15.6173 H         1 UNL1        0.0000
     49 H          16.0555    1.2811   15.9290 H         1 UNL1        0.0000
     50 H          16.7797    1.3593   14.6031 H         1 UNL1        0.0000
     51 H          17.5591   -0.4013   17.0745 H         1 UNL1        0.0000
     52 H          18.5463   -0.6151   15.9428 H         1 UNL1        0.0000
     53 H          19.7624   -7.8772   12.5692 H         1 UNL1        0.0000
     54 H          18.8776   -8.6467   10.4629 H         1 UNL1        0.0000
     55 H          16.9780  -12.4598   11.0695 H         1 UNL1        0.0000
@<TRIPOS>BOND
     1    1   18 1
     2    1   21 1
     3    1   17 am
     4    2   19 1
     5    2   20 1
     6    2   22 am
     7    3    4 1
     8    3   12 2
     9    4    5 am
    10    4   55 1
    11    5   29 2
    12    5    6 1
    13    6    7 ar
    14    6   11 ar
    15    7    8 ar
    16    7   33 1
    17    8   34 1
    18    8    9 ar
    19    9   10 ar
    20    9   35 1
    21   10   11 ar
    22   10   36 1
    23   11   12 1
    24   12   13 1
    25   13   37 1
    26   13   38 1
    27   13   14 1
    28   14   15 ar
    29   14   28 ar
    30   15   39 1
    31   15   16 ar
    32   16   26 ar
    33   16   17 1
    34   17   31 2
    35   18   19 1
    36   18   40 1
    37   18   41 1
    38   19   42 1
    39   19   43 1
    40   20   21 1
    41   20   45 1
    42   20   44 1
    43   21   46 1
    44   21   47 1
    45   22   30 2
    46   22   23 1
    47   23   25 1
    48   23   24 1
    49   23   48 1
    50   24   25 1
    51   24   49 1
    52   24   50 1
    53   25   51 1
    54   25   52 1
    55   26   27 ar
    56   26   32 1
    57   27   28 ar
    58   27   53 1
    59   28   54 1
@<TRIPOS>SUBSTRUCTURE
1 UNL1 1
@<TRIPOS>COMMENT
Olaparib
PLANTSproteinTorsions
70
3 12.8376
48 73.1848
123 43.2709
171 94.7658
348 42.0127
606 3.2214
632 329.8914
655 143.3500
678 75.8537
700 44.1340
773 69.6034
807 116.1251
891 186.0721
933 153.6511
999 78.5636
1020 304.4815
1361 251.6825
1371 265.5220
1544 38.8400
1649 98.5543
1689 99.7552
1736 135.7414
1771 145.6256
2012 286.7111
2070 221.2150
2082 228.9843
2147 70.8522
2300 27.8442
2527 119.0390
2551 355.9385
2605 139.8721
2653 206.5563
2739 244.5806
2807 230.6504
2841 181.6079
2875 1.4292
2885 246.1564
2915 87.4125
3074 123.9686
3130 117.2151
3421 63.1809
3586 217.3781
3784 204.9435
3818 255.9065
3881 330.4857
3933 49.3249
4033 296.7076
4046 154.2778
4094 14.1406
4145 157.9890
4208 109.6376
4235 242.5295
4332 234.6748
4568 36.7458
4685 310.0078
4749 279.9895
4805 179.0452
4858 174.4251
4871 287.2771
4945 27.6957
4999 203.0641
5010 180.0189
5106 20.2753
5130 283.1373
5249 278.5720
5258 234.5039
5318 253.5888
5369 110.0490
5589 236.8819
5645 308.7982
PLANTSmolcadARTstart hb
PLANTSmolcadARTstart HB
LINES
15.5947 -6.68538 15.0402 14.939 -7.462 16.94 0 255 0 5
PLANTSmolcadARTstart HBCH
LINES
PLANTSmolcadARTstart HB-CHO
LINES
PLANTSmolcadARTend
PLANTSmolcadARTstart HB_WATER
LINES
PLANTSmolcadARTend

PLANTSmolcadARTend

