@<TRIPOS>MOLECULE
Olaparib_entry_00001_conf_73
55 59 1
SMALL
NO_CHARGES


@<TRIPOS>ATOM
      1 N          27.0525    8.3996   21.1390 N.am      1 UNL1        0.0000
      2 N          24.7064    7.7985   20.1995 N.am      1 UNL1        0.0000
      3 N          28.2504    5.6272   16.3971 N.2       1 UNL1        0.0000
      4 N          27.7751    4.4085   16.3097 N.am      1 UNL1        0.0000
      5 C          28.5478    3.3138   16.3457 C.2       1 UNL1        0.0000
      6 C          29.9121    3.4687   16.4810 C.ar      1 UNL1        0.0000
      7 C          30.7640    2.3638   16.5039 C.ar      1 UNL1        0.0000
      8 C          32.1257    2.5434   16.6184 C.ar      1 UNL1        0.0000
      9 C          32.5800    3.8425   16.7045 C.ar      1 UNL1        0.0000
     10 C          31.7462    4.9480   16.6826 C.ar      1 UNL1        0.0000
     11 C          30.4002    4.7592   16.5717 C.ar      1 UNL1        0.0000
     12 C          29.5916    5.8634   16.5338 C.2       1 UNL1        0.0000
     13 C          29.9820    7.2588   16.6866 C.3       1 UNL1        0.0000
     14 C          30.2425    7.5761   18.1180 C.ar      1 UNL1        0.0000
     15 C          29.1768    8.1808   18.8080 C.ar      1 UNL1        0.0000
     16 C          29.3246    8.5208   20.1313 C.ar      1 UNL1        0.0000
     17 C          28.2226    9.1617   20.8838 C.2       1 UNL1        0.0000
     18 C          25.9707    8.9815   21.8656 C.3       1 UNL1        0.0000
     19 C          24.6352    8.3557   21.5252 C.3       1 UNL1        0.0000
     20 C          25.6709    6.7144   19.9845 C.3       1 UNL1        0.0000
     21 C          26.9842    7.0347   20.6507 C.3       1 UNL1        0.0000
     22 C          23.9040    8.2544   19.1495 C.2       1 UNL1        0.0000
     23 C          22.9108    9.3305   19.2023 C.3       1 UNL1        0.0000
     24 C          21.5689    8.9708   19.7988 C.3       1 UNL1        0.0000
     25 C          21.6796    9.2782   18.3711 C.3       1 UNL1        0.0000
     26 C          30.4805    8.3001   20.8422 C.ar      1 UNL1        0.0000
     27 C          31.5230    7.7081   20.1657 C.ar      1 UNL1        0.0000
     28 C          31.3759    7.3608   18.8152 C.ar      1 UNL1        0.0000
     29 O          28.1105    2.1373   16.2646 O.2       1 UNL1        0.0000
     30 O          24.0365    7.6830   18.0088 O.2       1 UNL1        0.0000
     31 O          28.2935   10.3421   21.2964 O.2       1 UNL1        0.0000
     32 F          30.5782    8.6568   22.1559 F         1 UNL1        0.0000
     33 H          30.3742    1.4107   16.4358 H         1 UNL1        0.0000
     34 H          32.7751    1.7427   16.6381 H         1 UNL1        0.0000
     35 H          33.5960    3.9992   16.7895 H         1 UNL1        0.0000
     36 H          32.1369    5.9010   16.7496 H         1 UNL1        0.0000
     37 H          29.1947    7.8866   16.3245 H         1 UNL1        0.0000
     38 H          30.8786    7.4297   16.1279 H         1 UNL1        0.0000
     39 H          28.2863    8.3690   18.3219 H         1 UNL1        0.0000
     40 H          25.9279   10.0263   21.6376 H         1 UNL1        0.0000
     41 H          26.1519    8.8109   22.9068 H         1 UNL1        0.0000
     42 H          23.8693    9.1016   21.5615 H         1 UNL1        0.0000
     43 H          24.4056    7.5849   22.2313 H         1 UNL1        0.0000
     44 H          25.8314    6.5882   18.9343 H         1 UNL1        0.0000
     45 H          25.2799    5.8135   20.4092 H         1 UNL1        0.0000
     46 H          27.7721    6.8873   19.9417 H         1 UNL1        0.0000
     47 H          27.0818    6.3870   21.4957 H         1 UNL1        0.0000
     48 H          23.6704   10.0693   19.3496 H         1 UNL1        0.0000
     49 H          21.0751    9.6550   20.4571 H         1 UNL1        0.0000
     50 H          21.1901    8.1491   20.3701 H         1 UNL1        0.0000
     51 H          21.2576   10.1844   17.9893 H         1 UNL1        0.0000
     52 H          21.4053    8.7654   17.4739 H         1 UNL1        0.0000
     53 H          32.4134    7.5197   20.6535 H         1 UNL1        0.0000
     54 H          32.1733    6.9184   18.3314 H         1 UNL1        0.0000
     55 H          26.8020    4.2918   16.2133 H         1 UNL1        0.0000
@<TRIPOS>BOND
     1    1   18 1
     2    1   21 1
     3    1   17 am
     4    2   19 1
     5    2   20 1
     6    2   22 am
     7    3    4 1
     8    3   12 2
     9    4    5 am
    10    4   55 1
    11    5   29 2
    12    5    6 1
    13    6    7 ar
    14    6   11 ar
    15    7    8 ar
    16    7   33 1
    17    8   34 1
    18    8    9 ar
    19    9   10 ar
    20    9   35 1
    21   10   11 ar
    22   10   36 1
    23   11   12 1
    24   12   13 1
    25   13   37 1
    26   13   38 1
    27   13   14 1
    28   14   15 ar
    29   14   28 ar
    30   15   39 1
    31   15   16 ar
    32   16   26 ar
    33   16   17 1
    34   17   31 2
    35   18   19 1
    36   18   40 1
    37   18   41 1
    38   19   42 1
    39   19   43 1
    40   20   21 1
    41   20   45 1
    42   20   44 1
    43   21   46 1
    44   21   47 1
    45   22   30 2
    46   22   23 1
    47   23   25 1
    48   23   24 1
    49   23   48 1
    50   24   25 1
    51   24   49 1
    52   24   50 1
    53   25   51 1
    54   25   52 1
    55   26   27 ar
    56   26   32 1
    57   27   28 ar
    58   27   53 1
    59   28   54 1
@<TRIPOS>SUBSTRUCTURE
1 UNL1 1
@<TRIPOS>COMMENT
Olaparib
PLANTSproteinTorsions
70
3 70.2429
48 73.4185
123 344.4821
171 37.2402
348 60.7411
606 19.7275
632 129.2314
655 39.8352
678 20.0722
700 201.2929
773 53.3435
807 180.0620
891 49.5793
933 124.3533
999 175.4827
1020 31.3201
1361 83.0104
1371 5.5305
1544 141.7805
1649 24.6090
1689 31.3204
1736 62.1386
1771 330.5445
2012 64.2772
2070 343.3885
2082 123.8592
2147 304.7987
2300 15.4342
2527 337.9900
2551 84.9699
2605 247.0782
2653 214.4852
2739 322.1455
2807 145.3303
2841 262.9685
2875 123.3936
2885 136.6530
2915 128.3799
3074 184.5617
3130 327.9655
3421 140.0981
3586 8.2095
3784 88.7896
3818 218.1927
3881 243.1942
3933 262.8611
4033 49.4751
4046 153.7050
4094 126.0837
4145 148.4248
4208 71.9602
4235 26.4923
4332 193.7802
4568 75.4526
4685 253.9981
4749 17.1244
4805 40.1552
4858 174.7466
4871 146.1339
4945 205.7621
4999 275.4261
5010 210.6424
5106 70.5097
5130 187.7114
5249 5.3896
5258 266.2632
5318 263.7434
5369 35.3103
5589 223.1786
5645 168.0573
PLANTSmolcadARTstart hb
PLANTSmolcadARTstart HB
LINES
24.0365 7.68296 18.0088 22.5326 6.43324 18.1327 0 255 0 5
PLANTSmolcadARTstart HBCH
LINES
PLANTSmolcadARTstart HB-CHO
LINES
PLANTSmolcadARTend
PLANTSmolcadARTstart HB_WATER
LINES
PLANTSmolcadARTend

PLANTSmolcadARTend

