@<TRIPOS>MOLECULE
Olaparib_entry_00001_conf_87
55 59 1
SMALL
NO_CHARGES


@<TRIPOS>ATOM
      1 N          16.4263   20.7254   26.7025 N.am      1 UNL1        0.0000
      2 N          17.5022   20.4869   29.0549 N.am      1 UNL1        0.0000
      3 N           9.8044   19.5272   26.8314 N.2       1 UNL1        0.0000
      4 N           8.6143   20.0759   26.7973 N.am      1 UNL1        0.0000
      5 C           7.8103   20.1549   27.8669 C.2       1 UNL1        0.0000
      6 C           8.2495   19.6348   29.0670 C.ar      1 UNL1        0.0000
      7 C           7.4449   19.6726   30.2064 C.ar      1 UNL1        0.0000
      8 C           7.8959   19.1277   31.3893 C.ar      1 UNL1        0.0000
      9 C           9.1520   18.5591   31.3769 C.ar      1 UNL1        0.0000
     10 C           9.9610   18.5142   30.2538 C.ar      1 UNL1        0.0000
     11 C           9.5062   19.0586   29.0890 C.ar      1 UNL1        0.0000
     12 C          10.3113   18.9902   27.9837 C.2       1 UNL1        0.0000
     13 C          11.6705   18.4713   27.9026 C.3       1 UNL1        0.0000
     14 C          12.3483   18.9684   26.6734 C.ar      1 UNL1        0.0000
     15 C          13.4492   19.8162   26.8897 C.ar      1 UNL1        0.0000
     16 C          14.1339   20.3344   25.8167 C.ar      1 UNL1        0.0000
     17 C          15.2946   21.2323   26.0117 C.2       1 UNL1        0.0000
     18 C          17.5664   21.5596   26.9057 C.3       1 UNL1        0.0000
     19 C          18.3696   21.1636   28.1260 C.3       1 UNL1        0.0000
     20 C          16.8975   19.2285   28.6048 C.3       1 UNL1        0.0000
     21 C          16.3965   19.3587   27.1894 C.3       1 UNL1        0.0000
     22 C          17.2329   20.9877   30.3320 C.2       1 UNL1        0.0000
     23 C          17.7454   22.2292   30.9179 C.3       1 UNL1        0.0000
     24 C          16.9224   22.8285   32.0357 C.3       1 UNL1        0.0000
     25 C          17.0192   23.5147   30.7454 C.3       1 UNL1        0.0000
     26 C          13.8012   20.0680   24.5096 C.ar      1 UNL1        0.0000
     27 C          12.7233   19.2381   24.2991 C.ar      1 UNL1        0.0000
     28 C          12.0218   18.7084   25.3917 C.ar      1 UNL1        0.0000
     29 O           6.6667   20.6782   27.8542 O.2       1 UNL1        0.0000
     30 O          16.4553   20.3023   31.0875 O.2       1 UNL1        0.0000
     31 O          15.3054   22.4114   25.5891 O.2       1 UNL1        0.0000
     32 F          14.5127   20.6081   23.4778 F         1 UNL1        0.0000
     33 H           6.5110   20.1096   30.1638 H         1 UNL1        0.0000
     34 H           7.3198   19.1440   32.2444 H         1 UNL1        0.0000
     35 H           9.5082   18.1443   32.2517 H         1 UNL1        0.0000
     36 H          10.8945   18.0759   30.2969 H         1 UNL1        0.0000
     37 H          11.6385   17.4020   27.8791 H         1 UNL1        0.0000
     38 H          12.2198   18.8068   28.7576 H         1 UNL1        0.0000
     39 H          13.7420   20.0487   27.8513 H         1 UNL1        0.0000
     40 H          17.2343   22.5698   27.0269 H         1 UNL1        0.0000
     41 H          18.2020   21.4520   26.0511 H         1 UNL1        0.0000
     42 H          18.7779   22.0383   28.5867 H         1 UNL1        0.0000
     43 H          19.1703   20.5145   27.8380 H         1 UNL1        0.0000
     44 H          16.0777   18.9817   29.2463 H         1 UNL1        0.0000
     45 H          17.6381   18.4568   28.6385 H         1 UNL1        0.0000
     46 H          15.3871   19.0056   27.1504 H         1 UNL1        0.0000
     47 H          17.0451   18.7820   26.5650 H         1 UNL1        0.0000
     48 H          18.7585   21.9269   30.7549 H         1 UNL1        0.0000
     49 H          17.4075   23.2377   32.8974 H         1 UNL1        0.0000
     50 H          16.1188   22.4842   32.6527 H         1 UNL1        0.0000
     51 H          17.5691   24.4296   30.6710 H         1 UNL1        0.0000
     52 H          16.3044   23.8798   30.0389 H         1 UNL1        0.0000
     53 H          12.4317   19.0056   23.3363 H         1 UNL1        0.0000
     54 H          11.2172   18.0890   25.2060 H         1 UNL1        0.0000
     55 H           8.2956   20.4491   25.9435 H         1 UNL1        0.0000
@<TRIPOS>BOND
     1    1   18 1
     2    1   21 1
     3    1   17 am
     4    2   19 1
     5    2   20 1
     6    2   22 am
     7    3    4 1
     8    3   12 2
     9    4    5 am
    10    4   55 1
    11    5   29 2
    12    5    6 1
    13    6    7 ar
    14    6   11 ar
    15    7    8 ar
    16    7   33 1
    17    8   34 1
    18    8    9 ar
    19    9   10 ar
    20    9   35 1
    21   10   11 ar
    22   10   36 1
    23   11   12 1
    24   12   13 1
    25   13   37 1
    26   13   38 1
    27   13   14 1
    28   14   15 ar
    29   14   28 ar
    30   15   39 1
    31   15   16 ar
    32   16   26 ar
    33   16   17 1
    34   17   31 2
    35   18   19 1
    36   18   40 1
    37   18   41 1
    38   19   42 1
    39   19   43 1
    40   20   21 1
    41   20   45 1
    42   20   44 1
    43   21   46 1
    44   21   47 1
    45   22   30 2
    46   22   23 1
    47   23   25 1
    48   23   24 1
    49   23   48 1
    50   24   25 1
    51   24   49 1
    52   24   50 1
    53   25   51 1
    54   25   52 1
    55   26   27 ar
    56   26   32 1
    57   27   28 ar
    58   27   53 1
    59   28   54 1
@<TRIPOS>SUBSTRUCTURE
1 UNL1 1
@<TRIPOS>COMMENT
Olaparib
PLANTSproteinTorsions
70
3 166.8471
48 206.7197
123 12.5865
171 348.0584
348 102.3973
606 239.2534
632 213.4319
655 242.2510
678 111.5285
700 30.6904
773 101.7207
807 348.9177
891 183.4493
933 189.2562
999 77.5882
1020 137.5034
1361 70.1403
1371 63.2599
1544 177.8984
1649 136.8002
1689 39.0730
1736 45.4441
1771 140.0334
2012 227.0101
2070 210.0439
2082 132.1755
2147 141.1768
2300 57.6463
2527 38.5475
2551 248.0652
2605 346.9512
2653 345.6495
2739 259.0356
2807 313.7099
2841 64.2679
2875 146.8897
2885 119.4112
2915 108.3732
3074 189.8500
3130 289.7892
3421 287.6167
3586 81.2751
3784 294.8258
3818 268.0074
3881 176.1941
3933 327.4995
4033 218.9410
4046 58.5206
4094 238.7130
4145 53.1871
4208 201.8785
4235 195.2808
4332 155.0592
4568 132.0273
4685 202.3112
4749 132.5356
4805 109.4362
4858 159.6727
4871 230.2792
4945 145.5735
4999 9.5852
5010 318.8216
5106 214.4445
5130 303.4087
5249 26.3146
5258 269.2894
5318 176.5338
5369 204.5042
5589 96.6859
5645 316.7278
PLANTSmolcadARTstart hb
PLANTSmolcadARTstart HB
LINES
PLANTSmolcadARTstart HBCH
LINES
PLANTSmolcadARTstart HB-CHO
LINES
PLANTSmolcadARTend
PLANTSmolcadARTstart HB_WATER
LINES
PLANTSmolcadARTend

PLANTSmolcadARTend

