@<TRIPOS>MOLECULE
Olaparib_entry_00001_conf_17
55 59 1
SMALL
NO_CHARGES


@<TRIPOS>ATOM
      1 N          15.6784   -4.6289   14.3500 N.am      1 UNL1        0.0000
      2 N          17.2073   -2.7120   15.2082 N.am      1 UNL1        0.0000
      3 N          13.8596   -9.7431    9.7607 N.2       1 UNL1        0.0000
      4 N          13.7271  -11.0159    9.4761 N.am      1 UNL1        0.0000
      5 C          14.4977  -11.6536    8.5836 C.2       1 UNL1        0.0000
      6 C          15.4809  -10.9421    7.9274 C.ar      1 UNL1        0.0000
      7 C          16.2976  -11.5520    6.9745 C.ar      1 UNL1        0.0000
      8 C          17.2592  -10.8164    6.3160 C.ar      1 UNL1        0.0000
      9 C          17.3600   -9.4814    6.6458 C.ar      1 UNL1        0.0000
     10 C          16.5562   -8.8631    7.5889 C.ar      1 UNL1        0.0000
     11 C          15.6095   -9.6005    8.2367 C.ar      1 UNL1        0.0000
     12 C          14.8116   -8.9699    9.1533 C.2       1 UNL1        0.0000
     13 C          14.8969   -7.5879    9.6071 C.3       1 UNL1        0.0000
     14 C          15.8320   -7.4721   10.7601 C.ar      1 UNL1        0.0000
     15 C          15.3049   -6.8532   11.9076 C.ar      1 UNL1        0.0000
     16 C          16.0947   -6.6908   13.0205 C.ar      1 UNL1        0.0000
     17 C          15.5699   -6.0401   14.2422 C.2       1 UNL1        0.0000
     18 C          15.1795   -3.9651   15.5108 C.3       1 UNL1        0.0000
     19 C          15.8896   -2.6571   15.7860 C.3       1 UNL1        0.0000
     20 C          17.2890   -2.8601   13.7510 C.3       1 UNL1        0.0000
     21 C          16.2992   -3.8885   13.2673 C.3       1 UNL1        0.0000
     22 C          18.3697   -2.6311   15.9805 C.2       1 UNL1        0.0000
     23 C          18.4522   -2.4969   17.4373 C.3       1 UNL1        0.0000
     24 C          18.0941   -1.1414   18.0035 C.3       1 UNL1        0.0000
     25 C          19.4756   -1.6235   18.0695 C.3       1 UNL1        0.0000
     26 C          17.4032   -7.1077   13.0840 C.ar      1 UNL1        0.0000
     27 C          17.9181   -7.7134   11.9603 C.ar      1 UNL1        0.0000
     28 C          17.1153   -7.8797   10.8227 C.ar      1 UNL1        0.0000
     29 O          14.3868  -12.8735    8.2983 O.2       1 UNL1        0.0000
     30 O          19.4953   -2.6783   15.3673 O.2       1 UNL1        0.0000
     31 O          15.0395   -6.6920   15.1709 O.2       1 UNL1        0.0000
     32 F          18.1471   -6.9227   14.2133 F         1 UNL1        0.0000
     33 H          16.1821  -12.5555    6.7629 H         1 UNL1        0.0000
     34 H          17.8748  -11.2450    5.6084 H         1 UNL1        0.0000
     35 H          18.0726   -8.9124    6.1635 H         1 UNL1        0.0000
     36 H          16.6716   -7.8592    7.7992 H         1 UNL1        0.0000
     37 H          13.9252   -7.2549    9.9069 H         1 UNL1        0.0000
     38 H          15.2644   -6.9829    8.8044 H         1 UNL1        0.0000
     39 H          14.3279   -6.5215   11.9138 H         1 UNL1        0.0000
     40 H          15.3083   -4.6095   16.3556 H         1 UNL1        0.0000
     41 H          14.1469   -3.7424   15.3371 H         1 UNL1        0.0000
     42 H          15.9658   -2.5048   16.8420 H         1 UNL1        0.0000
     43 H          15.3377   -1.8474   15.3554 H         1 UNL1        0.0000
     44 H          18.2772   -3.1703   13.4829 H         1 UNL1        0.0000
     45 H          17.0603   -1.9201   13.2939 H         1 UNL1        0.0000
     46 H          16.8094   -4.5808   12.6305 H         1 UNL1        0.0000
     47 H          15.5226   -3.3675   12.7490 H         1 UNL1        0.0000
     48 H          18.1626   -3.5166   17.5809 H         1 UNL1        0.0000
     49 H          17.5080   -1.0722   18.8963 H         1 UNL1        0.0000
     50 H          17.6149   -0.2641   17.6219 H         1 UNL1        0.0000
     51 H          19.8973   -1.8974   19.0141 H         1 UNL1        0.0000
     52 H          20.4190   -1.2303   17.7555 H         1 UNL1        0.0000
     53 H          18.8959   -8.0454   11.9556 H         1 UNL1        0.0000
     54 H          17.5262   -8.3368    9.9933 H         1 UNL1        0.0000
     55 H          13.0272  -11.5290    9.9416 H         1 UNL1        0.0000
@<TRIPOS>BOND
     1    1   18 1
     2    1   21 1
     3    1   17 am
     4    2   19 1
     5    2   20 1
     6    2   22 am
     7    3    4 1
     8    3   12 2
     9    4    5 am
    10    4   55 1
    11    5   29 2
    12    5    6 1
    13    6    7 ar
    14    6   11 ar
    15    7    8 ar
    16    7   33 1
    17    8   34 1
    18    8    9 ar
    19    9   10 ar
    20    9   35 1
    21   10   11 ar
    22   10   36 1
    23   11   12 1
    24   12   13 1
    25   13   37 1
    26   13   38 1
    27   13   14 1
    28   14   15 ar
    29   14   28 ar
    30   15   39 1
    31   15   16 ar
    32   16   26 ar
    33   16   17 1
    34   17   31 2
    35   18   19 1
    36   18   40 1
    37   18   41 1
    38   19   42 1
    39   19   43 1
    40   20   21 1
    41   20   45 1
    42   20   44 1
    43   21   46 1
    44   21   47 1
    45   22   30 2
    46   22   23 1
    47   23   25 1
    48   23   24 1
    49   23   48 1
    50   24   25 1
    51   24   49 1
    52   24   50 1
    53   25   51 1
    54   25   52 1
    55   26   27 ar
    56   26   32 1
    57   27   28 ar
    58   27   53 1
    59   28   54 1
@<TRIPOS>SUBSTRUCTURE
1 UNL1 1
@<TRIPOS>COMMENT
Olaparib
PLANTSproteinTorsions
70
3 36.2665
48 26.3820
123 47.1631
171 74.1475
348 12.7483
606 6.4587
632 159.4199
655 173.0031
678 303.4030
700 282.2326
773 323.1874
807 177.0792
891 17.4260
933 137.3277
999 154.7670
1020 106.9253
1361 284.8966
1371 6.8788
1544 167.7790
1649 330.7039
1689 357.1160
1736 142.1738
1771 142.2182
2012 216.8788
2070 179.1476
2082 254.4515
2147 145.9066
2300 261.6936
2527 120.1157
2551 33.4280
2605 351.5368
2653 331.2806
2739 175.9428
2807 231.1753
2841 92.1561
2875 276.9146
2885 263.6926
2915 276.5747
3074 163.1892
3130 76.1840
3421 312.4269
3586 214.2204
3784 144.1960
3818 113.2124
3881 55.0132
3933 53.1461
4033 263.5032
4046 195.0281
4094 54.9782
4145 19.7845
4208 85.1604
4235 24.1935
4332 197.3251
4568 194.7514
4685 73.4526
4749 341.7263
4805 256.6019
4858 162.4753
4871 256.7145
4945 215.9921
4999 195.7267
5010 241.3011
5106 16.5681
5130 222.2886
5249 210.8394
5258 123.6590
5318 281.1738
5369 115.1190
5589 97.2372
5645 239.7817
PLANTSmolcadARTstart hb
PLANTSmolcadARTstart HB
LINES
15.0395 -6.69197 15.1709 14.939 -7.462 16.94 0 255 0 5
PLANTSmolcadARTstart HBCH
LINES
PLANTSmolcadARTstart HB-CHO
LINES
PLANTSmolcadARTend
PLANTSmolcadARTstart HB_WATER
LINES
PLANTSmolcadARTend

PLANTSmolcadARTend

