@<TRIPOS>MOLECULE
Olaparib_entry_00001_conf_15
55 59 1
SMALL
NO_CHARGES


@<TRIPOS>ATOM
      1 N          28.6483  -12.2203   17.6442 N.am      1 UNL1        0.0000
      2 N          29.3296  -12.6803   15.1799 N.am      1 UNL1        0.0000
      3 N          31.6029  -15.6628   23.5389 N.2       1 UNL1        0.0000
      4 N          32.1495  -15.8519   24.7154 N.am      1 UNL1        0.0000
      5 C          31.4890  -15.6797   25.8691 C.2       1 UNL1        0.0000
      6 C          30.1681  -15.2836   25.8247 C.ar      1 UNL1        0.0000
      7 C          29.4399  -15.0705   26.9958 C.ar      1 UNL1        0.0000
      8 C          28.1278  -14.6543   26.9275 C.ar      1 UNL1        0.0000
      9 C          27.5963  -14.4658   25.6693 C.ar      1 UNL1        0.0000
     10 C          28.3072  -14.6730   24.4990 C.ar      1 UNL1        0.0000
     11 C          29.6041  -15.0873   24.5776 C.ar      1 UNL1        0.0000
     12 C          30.2979  -15.2705   23.4116 C.2       1 UNL1        0.0000
     13 C          29.7942  -15.1601   22.0488 C.3       1 UNL1        0.0000
     14 C          30.3414  -13.9446   21.3851 C.ar      1 UNL1        0.0000
     15 C          29.4816  -13.3178   20.4656 C.ar      1 UNL1        0.0000
     16 C          29.9008  -12.1942   19.7943 C.ar      1 UNL1        0.0000
     17 C          29.0204  -11.5139   18.8179 C.2       1 UNL1        0.0000
     18 C          27.7967  -11.5993   16.6818 C.3       1 UNL1        0.0000
     19 C          27.9957  -12.1484   15.2854 C.3       1 UNL1        0.0000
     20 C          29.6674  -13.8075   16.0557 C.3       1 UNL1        0.0000
     21 C          29.1468  -13.5692   17.4498 C.3       1 UNL1        0.0000
     22 C          30.2765  -12.1617   14.2919 C.2       1 UNL1        0.0000
     23 C          30.0968  -11.0375   13.3694 C.3       1 UNL1        0.0000
     24 C          29.7782  -11.3958   11.9355 C.3       1 UNL1        0.0000
     25 C          31.0663  -10.7850   12.2713 C.3       1 UNL1        0.0000
     26 C          31.1415  -11.6291   19.9708 C.ar      1 UNL1        0.0000
     27 C          31.9823  -12.2436   20.8711 C.ar      1 UNL1        0.0000
     28 C          31.5581  -13.3907   21.5570 C.ar      1 UNL1        0.0000
     29 O          31.9954  -15.8573   27.0065 O.2       1 UNL1        0.0000
     30 O          31.4335  -12.7148   14.2669 O.2       1 UNL1        0.0000
     31 O          28.6001  -10.3476   18.9967 O.2       1 UNL1        0.0000
     32 F          31.5115  -10.5122   19.2791 F         1 UNL1        0.0000
     33 H          29.8840  -15.2254   27.9144 H         1 UNL1        0.0000
     34 H          27.5694  -14.4907   27.7788 H         1 UNL1        0.0000
     35 H          26.6160  -14.1530   25.5958 H         1 UNL1        0.0000
     36 H          27.8627  -14.5168   23.5807 H         1 UNL1        0.0000
     37 H          28.7262  -15.0982   22.0718 H         1 UNL1        0.0000
     38 H          30.1034  -16.0225   21.4955 H         1 UNL1        0.0000
     39 H          28.5387  -13.7005   20.2952 H         1 UNL1        0.0000
     40 H          28.0024  -10.5490   16.6697 H         1 UNL1        0.0000
     41 H          26.7849  -11.8010   16.9676 H         1 UNL1        0.0000
     42 H          27.8629  -11.3652   14.5690 H         1 UNL1        0.0000
     43 H          27.2804  -12.9213   15.0945 H         1 UNL1        0.0000
     44 H          30.7308  -13.9195   16.0922 H         1 UNL1        0.0000
     45 H          29.2157  -14.6961   15.6665 H         1 UNL1        0.0000
     46 H          29.9414  -13.7417   18.1454 H         1 UNL1        0.0000
     47 H          28.3280  -14.2389   17.6054 H         1 UNL1        0.0000
     48 H          29.6832  -10.4255   14.1432 H         1 UNL1        0.0000
     49 H          29.0448  -10.8353   11.3940 H         1 UNL1        0.0000
     50 H          29.4710  -12.2864   11.4280 H         1 UNL1        0.0000
     51 H          31.2728   -9.7805   11.9656 H         1 UNL1        0.0000
     52 H          32.0869  -11.0535   12.0995 H         1 UNL1        0.0000
     53 H          32.9254  -11.8592   21.0412 H         1 UNL1        0.0000
     54 H          32.2084  -13.8321   22.2263 H         1 UNL1        0.0000
     55 H          33.0920  -16.1350   24.7533 H         1 UNL1        0.0000
@<TRIPOS>BOND
     1    1   18 1
     2    1   21 1
     3    1   17 am
     4    2   19 1
     5    2   20 1
     6    2   22 am
     7    3    4 1
     8    3   12 2
     9    4    5 am
    10    4   55 1
    11    5   29 2
    12    5    6 1
    13    6    7 ar
    14    6   11 ar
    15    7    8 ar
    16    7   33 1
    17    8   34 1
    18    8    9 ar
    19    9   10 ar
    20    9   35 1
    21   10   11 ar
    22   10   36 1
    23   11   12 1
    24   12   13 1
    25   13   37 1
    26   13   38 1
    27   13   14 1
    28   14   15 ar
    29   14   28 ar
    30   15   39 1
    31   15   16 ar
    32   16   26 ar
    33   16   17 1
    34   17   31 2
    35   18   19 1
    36   18   40 1
    37   18   41 1
    38   19   42 1
    39   19   43 1
    40   20   21 1
    41   20   45 1
    42   20   44 1
    43   21   46 1
    44   21   47 1
    45   22   30 2
    46   22   23 1
    47   23   25 1
    48   23   24 1
    49   23   48 1
    50   24   25 1
    51   24   49 1
    52   24   50 1
    53   25   51 1
    54   25   52 1
    55   26   27 ar
    56   26   32 1
    57   27   28 ar
    58   27   53 1
    59   28   54 1
@<TRIPOS>SUBSTRUCTURE
1 UNL1 1
@<TRIPOS>COMMENT
Olaparib
PLANTSproteinTorsions
70
3 26.4721
48 65.9622
123 70.0522
171 58.8318
348 215.2153
606 154.7913
632 318.5750
655 331.6491
678 179.4200
700 0.6934
773 353.9823
807 303.0593
891 207.1028
933 9.9749
999 23.5910
1020 105.5123
1361 178.4542
1371 0.8363
1544 47.5620
1649 32.9355
1689 92.9809
1736 84.3450
1771 234.1669
2012 114.4563
2070 193.7951
2082 128.2536
2147 164.2920
2300 245.9607
2527 8.3706
2551 172.1784
2605 92.1401
2653 225.1488
2739 48.1460
2807 188.6931
2841 263.8990
2875 72.2818
2885 123.0087
2915 187.1842
3074 319.1941
3130 258.7410
3421 108.4716
3586 28.9952
3784 296.7767
3818 253.2065
3881 90.0137
3933 266.4638
4033 128.5684
4046 168.7844
4094 265.4062
4145 143.5344
4208 75.3325
4235 60.7452
4332 144.1872
4568 120.4810
4685 267.4532
4749 172.1306
4805 231.8490
4858 212.2695
4871 254.0608
4945 193.5041
4999 118.9242
5010 153.8555
5106 16.2853
5130 196.4893
5249 39.7578
5258 273.5909
5318 266.5661
5369 253.2900
5589 189.6056
5645 265.6275
PLANTSmolcadARTstart hb
PLANTSmolcadARTstart HB
LINES
PLANTSmolcadARTstart HBCH
LINES
PLANTSmolcadARTstart HB-CHO
LINES
PLANTSmolcadARTend
PLANTSmolcadARTstart HB_WATER
LINES
PLANTSmolcadARTend

PLANTSmolcadARTend

