@<TRIPOS>MOLECULE
Olaparib_entry_00001_conf_40
55 59 1
SMALL
NO_CHARGES


@<TRIPOS>ATOM
      1 N          15.5729   -8.6545    9.0305 N.am      1 UNL1        0.0000
      2 N          15.0603  -11.1621    8.5861 N.am      1 UNL1        0.0000
      3 N          14.9002   -2.9820   12.8682 N.2       1 UNL1        0.0000
      4 N          15.4209   -1.8109   13.1441 N.am      1 UNL1        0.0000
      5 C          16.1149   -1.5603   14.2632 C.2       1 UNL1        0.0000
      6 C          16.2942   -2.5800   15.1752 C.ar      1 UNL1        0.0000
      7 C          16.9911   -2.3680   16.3654 C.ar      1 UNL1        0.0000
      8 C          17.1395   -3.3957   17.2716 C.ar      1 UNL1        0.0000
      9 C          16.5727   -4.6083   16.9403 C.ar      1 UNL1        0.0000
     10 C          15.8783   -4.8326   15.7633 C.ar      1 UNL1        0.0000
     11 C          15.7395   -3.8097   14.8721 C.ar      1 UNL1        0.0000
     12 C          15.0351   -4.0435   13.7216 C.2       1 UNL1        0.0000
     13 C          14.4664   -5.3053   13.2662 C.3       1 UNL1        0.0000
     14 C          15.5429   -6.2397   12.8354 C.ar      1 UNL1        0.0000
     15 C          15.5618   -6.5508   11.4641 C.ar      1 UNL1        0.0000
     16 C          16.5120   -7.4131   10.9720 C.ar      1 UNL1        0.0000
     17 C          16.5559   -7.7629    9.5342 C.2       1 UNL1        0.0000
     18 C          15.5797   -9.0115    7.6486 C.3       1 UNL1        0.0000
     19 C          14.9522  -10.3648    7.3921 C.3       1 UNL1        0.0000
     20 C          14.3649  -10.6695    9.7802 C.3       1 UNL1        0.0000
     21 C          14.5756   -9.1859    9.9408 C.3       1 UNL1        0.0000
     22 C          15.7897  -12.3538    8.6297 C.2       1 UNL1        0.0000
     23 C          16.5449  -12.9653    7.5329 C.3       1 UNL1        0.0000
     24 C          16.1081  -14.3508    7.1137 C.3       1 UNL1        0.0000
     25 C          17.4052  -14.1551    7.7651 C.3       1 UNL1        0.0000
     26 C          17.4717   -8.0061   11.7578 C.ar      1 UNL1        0.0000
     27 C          17.4521   -7.7009   13.0999 C.ar      1 UNL1        0.0000
     28 C          16.4834   -6.8222   13.6055 C.ar      1 UNL1        0.0000
     29 O          16.6228   -0.4447   14.5447 O.2       1 UNL1        0.0000
     30 O          15.8139  -12.9958    9.7398 O.2       1 UNL1        0.0000
     31 O          17.4248   -7.2995    8.7602 O.2       1 UNL1        0.0000
     32 F          18.3941   -8.8569   11.2211 F         1 UNL1        0.0000
     33 H          17.3966   -1.4408   16.5672 H         1 UNL1        0.0000
     34 H          17.6505   -3.2635   18.1574 H         1 UNL1        0.0000
     35 H          16.6711   -5.3906   17.6055 H         1 UNL1        0.0000
     36 H          15.4720   -5.7600   15.5626 H         1 UNL1        0.0000
     37 H          13.8109   -5.1190   12.4412 H         1 UNL1        0.0000
     38 H          13.9264   -5.7525   14.0748 H         1 UNL1        0.0000
     39 H          14.8640   -6.1330   10.8292 H         1 UNL1        0.0000
     40 H          16.5933   -9.0330    7.3055 H         1 UNL1        0.0000
     41 H          14.9997   -8.2811    7.1232 H         1 UNL1        0.0000
     42 H          15.4626  -10.8508    6.5874 H         1 UNL1        0.0000
     43 H          13.9220  -10.2426    7.1290 H         1 UNL1        0.0000
     44 H          14.7458  -11.1739   10.6434 H         1 UNL1        0.0000
     45 H          13.3172  -10.8592    9.6739 H         1 UNL1        0.0000
     46 H          14.8935   -8.9925   10.9442 H         1 UNL1        0.0000
     47 H          13.6479   -8.7039    9.7166 H         1 UNL1        0.0000
     48 H          16.7106  -12.0141    7.0724 H         1 UNL1        0.0000
     49 H          16.0636  -14.6067    6.0755 H         1 UNL1        0.0000
     50 H          15.2508  -14.9633    7.3005 H         1 UNL1        0.0000
     51 H          18.3061  -14.2775    7.2008 H         1 UNL1        0.0000
     52 H          17.8796  -14.5775    8.6253 H         1 UNL1        0.0000
     53 H          18.1514   -8.1192   13.7341 H         1 UNL1        0.0000
     54 H          16.4908   -6.6105   14.6159 H         1 UNL1        0.0000
     55 H          15.2965   -1.0794   12.4966 H         1 UNL1        0.0000
@<TRIPOS>BOND
     1    1   18 1
     2    1   21 1
     3    1   17 am
     4    2   19 1
     5    2   20 1
     6    2   22 am
     7    3    4 1
     8    3   12 2
     9    4    5 am
    10    4   55 1
    11    5   29 2
    12    5    6 1
    13    6    7 ar
    14    6   11 ar
    15    7    8 ar
    16    7   33 1
    17    8   34 1
    18    8    9 ar
    19    9   10 ar
    20    9   35 1
    21   10   11 ar
    22   10   36 1
    23   11   12 1
    24   12   13 1
    25   13   37 1
    26   13   38 1
    27   13   14 1
    28   14   15 ar
    29   14   28 ar
    30   15   39 1
    31   15   16 ar
    32   16   26 ar
    33   16   17 1
    34   17   31 2
    35   18   19 1
    36   18   40 1
    37   18   41 1
    38   19   42 1
    39   19   43 1
    40   20   21 1
    41   20   45 1
    42   20   44 1
    43   21   46 1
    44   21   47 1
    45   22   30 2
    46   22   23 1
    47   23   25 1
    48   23   24 1
    49   23   48 1
    50   24   25 1
    51   24   49 1
    52   24   50 1
    53   25   51 1
    54   25   52 1
    55   26   27 ar
    56   26   32 1
    57   27   28 ar
    58   27   53 1
    59   28   54 1
@<TRIPOS>SUBSTRUCTURE
1 UNL1 1
@<TRIPOS>COMMENT
Olaparib
PLANTSproteinTorsions
70
3 208.5336
48 255.0646
123 2.2278
171 132.2778
348 229.0664
606 16.8169
632 249.7994
655 120.0618
678 98.7802
700 233.0551
773 174.2261
807 106.4322
891 312.4621
933 189.1479
999 118.4673
1020 338.9792
1361 43.1381
1371 330.9911
1544 206.5558
1649 31.6882
1689 48.8404
1736 237.0341
1771 351.6816
2012 50.0188
2070 154.6061
2082 109.2941
2147 140.6194
2300 236.0923
2527 121.7711
2551 86.8340
2605 66.2610
2653 131.1350
2739 21.1627
2807 145.1795
2841 1.8691
2875 184.1738
2885 113.5526
2915 247.8988
3074 310.4301
3130 68.1456
3421 56.0421
3586 48.4571
3784 106.5862
3818 58.4614
3881 222.9272
3933 212.3331
4033 88.6685
4046 303.8644
4094 146.4464
4145 358.2732
4208 20.5243
4235 213.8714
4332 230.6343
4568 261.6132
4685 306.3947
4749 213.5414
4805 251.9438
4858 101.8774
4871 192.5659
4945 221.7283
4999 242.6865
5010 294.8856
5106 220.0830
5130 324.2186
5249 179.4469
5258 357.1241
5318 115.1044
5369 287.4372
5589 228.2832
5645 215.3100
PLANTSmolcadARTstart hb
PLANTSmolcadARTstart HB
LINES
15.2965 -1.07941 12.4966 13.87 -0.615 11.023 0 255 0 5
PLANTSmolcadARTstart HBCH
LINES
PLANTSmolcadARTstart HB-CHO
LINES
PLANTSmolcadARTend
PLANTSmolcadARTstart HB_WATER
LINES
PLANTSmolcadARTend

PLANTSmolcadARTend

