@<TRIPOS>MOLECULE
Olaparib_entry_00001_conf_35
55 59 1
SMALL
NO_CHARGES


@<TRIPOS>ATOM
      1 N          28.6502  -12.3247   17.3554 N.am      1 UNL1        0.0000
      2 N          29.6038  -12.7337   14.9738 N.am      1 UNL1        0.0000
      3 N          28.1156  -14.9715   23.6966 N.2       1 UNL1        0.0000
      4 N          27.9182  -14.8286   24.9848 N.am      1 UNL1        0.0000
      5 C          28.8857  -14.9880   25.8988 C.2       1 UNL1        0.0000
      6 C          30.1548  -15.3192   25.4708 C.ar      1 UNL1        0.0000
      7 C          31.1938  -15.5165   26.3812 C.ar      1 UNL1        0.0000
      8 C          32.4486  -15.8678   25.9323 C.ar      1 UNL1        0.0000
      9 C          32.6083  -16.0095   24.5701 C.ar      1 UNL1        0.0000
     10 C          31.5864  -15.8173   23.6554 C.ar      1 UNL1        0.0000
     11 C          30.3491  -15.4673   24.1099 C.ar      1 UNL1        0.0000
     12 C          29.3458  -15.2983   23.1937 C.2       1 UNL1        0.0000
     13 C          29.4459  -15.3615   21.7415 C.3       1 UNL1        0.0000
     14 C          30.0001  -14.0904   21.1989 C.ar      1 UNL1        0.0000
     15 C          29.2293  -13.4721   20.1982 C.ar      1 UNL1        0.0000
     16 C          29.6633  -12.2993   19.6281 C.ar      1 UNL1        0.0000
     17 C          28.8763  -11.6263   18.5703 C.2       1 UNL1        0.0000
     18 C          27.8918  -11.7104   16.3139 C.3       1 UNL1        0.0000
     19 C          28.2535  -12.2350   14.9410 C.3       1 UNL1        0.0000
     20 C          29.8736  -13.8649   15.8679 C.3       1 UNL1        0.0000
     21 C          29.2004  -13.6585   17.2004 C.3       1 UNL1        0.0000
     22 C          30.6275  -12.1805   14.1990 C.2       1 UNL1        0.0000
     23 C          30.5199  -11.0480   13.2755 C.3       1 UNL1        0.0000
     24 C          30.0793  -11.3757   11.8668 C.3       1 UNL1        0.0000
     25 C          31.4450  -10.9111   12.1200 C.3       1 UNL1        0.0000
     26 C          30.8353  -11.6756   19.9851 C.ar      1 UNL1        0.0000
     27 C          31.5890  -12.2818   20.9646 C.ar      1 UNL1        0.0000
     28 C          31.1496  -13.4790   21.5477 C.ar      1 UNL1        0.0000
     29 O          28.7162  -14.8540   27.1378 O.2       1 UNL1        0.0000
     30 O          31.7939  -12.7057   14.2926 O.2       1 UNL1        0.0000
     31 O          28.4102  -10.4729   18.7161 O.2       1 UNL1        0.0000
     32 F          31.2235  -10.5113   19.3881 F         1 UNL1        0.0000
     33 H          31.0228  -15.3985   27.3921 H         1 UNL1        0.0000
     34 H          33.2320  -16.0185   26.5856 H         1 UNL1        0.0000
     35 H          33.5394  -16.2734   24.2130 H         1 UNL1        0.0000
     36 H          31.7578  -15.9366   22.6446 H         1 UNL1        0.0000
     37 H          28.4727  -15.5262   21.3281 H         1 UNL1        0.0000
     38 H          30.1021  -16.1639   21.4752 H         1 UNL1        0.0000
     39 H          28.3406  -13.8979   19.8927 H         1 UNL1        0.0000
     40 H          28.0713  -10.6556   16.3362 H         1 UNL1        0.0000
     41 H          26.8606  -11.9400   16.4866 H         1 UNL1        0.0000
     42 H          28.1789  -11.4452   14.2235 H         1 UNL1        0.0000
     43 H          27.5824  -13.0218   14.6652 H         1 UNL1        0.0000
     44 H          30.9293  -13.9522   16.0176 H         1 UNL1        0.0000
     45 H          29.4887  -14.7583   15.4221 H         1 UNL1        0.0000
     46 H          29.9196  -13.8221   17.9756 H         1 UNL1        0.0000
     47 H          28.3866  -14.3495   17.2591 H         1 UNL1        0.0000
     48 H          30.2235  -10.3896   14.0648 H         1 UNL1        0.0000
     49 H          29.3822  -10.7395   11.3623 H         1 UNL1        0.0000
     50 H          29.6454  -12.2289   11.3884 H         1 UNL1        0.0000
     51 H          31.7436   -9.9376   11.7911 H         1 UNL1        0.0000
     52 H          32.4174  -11.2930   11.8923 H         1 UNL1        0.0000
     53 H          32.4779  -11.8543   21.2699 H         1 UNL1        0.0000
     54 H          31.7339  -13.9129   22.2798 H         1 UNL1        0.0000
     55 H          27.0144  -14.5919   25.2961 H         1 UNL1        0.0000
@<TRIPOS>BOND
     1    1   18 1
     2    1   21 1
     3    1   17 am
     4    2   19 1
     5    2   20 1
     6    2   22 am
     7    3    4 1
     8    3   12 2
     9    4    5 am
    10    4   55 1
    11    5   29 2
    12    5    6 1
    13    6    7 ar
    14    6   11 ar
    15    7    8 ar
    16    7   33 1
    17    8   34 1
    18    8    9 ar
    19    9   10 ar
    20    9   35 1
    21   10   11 ar
    22   10   36 1
    23   11   12 1
    24   12   13 1
    25   13   37 1
    26   13   38 1
    27   13   14 1
    28   14   15 ar
    29   14   28 ar
    30   15   39 1
    31   15   16 ar
    32   16   26 ar
    33   16   17 1
    34   17   31 2
    35   18   19 1
    36   18   40 1
    37   18   41 1
    38   19   42 1
    39   19   43 1
    40   20   21 1
    41   20   45 1
    42   20   44 1
    43   21   46 1
    44   21   47 1
    45   22   30 2
    46   22   23 1
    47   23   25 1
    48   23   24 1
    49   23   48 1
    50   24   25 1
    51   24   49 1
    52   24   50 1
    53   25   51 1
    54   25   52 1
    55   26   27 ar
    56   26   32 1
    57   27   28 ar
    58   27   53 1
    59   28   54 1
@<TRIPOS>SUBSTRUCTURE
1 UNL1 1
@<TRIPOS>COMMENT
Olaparib
PLANTSproteinTorsions
70
3 111.5321
48 63.2384
123 73.7868
171 19.2610
348 222.5305
606 329.6378
632 226.8060
655 2.0287
678 160.2823
700 106.3383
773 32.5350
807 183.5843
891 16.9305
933 111.2593
999 45.5833
1020 129.2875
1361 85.0584
1371 14.3645
1544 118.2985
1649 39.3020
1689 16.7586
1736 147.7919
1771 247.7977
2012 86.6084
2070 65.2155
2082 316.1544
2147 170.1710
2300 313.4404
2527 274.5556
2551 146.1105
2605 321.6808
2653 236.4604
2739 226.3758
2807 146.8064
2841 267.0734
2875 203.9522
2885 116.2379
2915 131.6915
3074 267.4951
3130 137.1801
3421 134.9589
3586 69.9431
3784 140.4209
3818 265.2759
3881 61.7554
3933 197.4753
4033 82.6138
4046 240.4969
4094 107.3858
4145 32.7334
4208 86.8009
4235 36.1199
4332 159.3758
4568 53.9160
4685 262.6341
4749 318.7413
4805 253.4606
4858 160.6436
4871 13.8061
4945 113.5459
4999 7.6879
5010 148.9377
5106 84.3427
5130 15.2368
5249 32.6371
5258 10.7030
5318 57.3292
5369 62.7958
5589 270.3040
5645 296.3816
PLANTSmolcadARTstart hb
PLANTSmolcadARTstart HB
LINES
PLANTSmolcadARTstart HBCH
LINES
PLANTSmolcadARTstart HB-CHO
LINES
PLANTSmolcadARTend
PLANTSmolcadARTstart HB_WATER
LINES
PLANTSmolcadARTend

PLANTSmolcadARTend

