@<TRIPOS>MOLECULE
Olaparib_entry_00001_conf_09
55 59 1
SMALL
NO_CHARGES


@<TRIPOS>ATOM
      1 N          16.3094   -8.2669   11.3925 N.am      1 UNL1        0.0000
      2 N          16.3706   -6.3659   13.1618 N.am      1 UNL1        0.0000
      3 N          16.6022  -15.7779   13.7427 N.2       1 UNL1        0.0000
      4 N          17.0139  -17.0223   13.7172 N.am      1 UNL1        0.0000
      5 C          18.2869  -17.3800   13.9373 C.2       1 UNL1        0.0000
      6 C          19.2161  -16.3957   14.2042 C.ar      1 UNL1        0.0000
      7 C          20.5580  -16.7111   14.4208 C.ar      1 UNL1        0.0000
      8 C          21.4727  -15.7094   14.6645 C.ar      1 UNL1        0.0000
      9 C          20.9946  -14.4161   14.6789 C.ar      1 UNL1        0.0000
     10 C          19.6661  -14.0886   14.4653 C.ar      1 UNL1        0.0000
     11 C          18.7687  -15.0876   14.2276 C.ar      1 UNL1        0.0000
     12 C          17.4625  -14.7453   14.0010 C.2       1 UNL1        0.0000
     13 C          16.8657  -13.4177   14.0657 C.3       1 UNL1        0.0000
     14 C          17.2680  -12.6045   12.8849 C.ar      1 UNL1        0.0000
     15 C          16.4214  -11.5249   12.5762 C.ar      1 UNL1        0.0000
     16 C          16.7038  -10.7217   11.4973 C.ar      1 UNL1        0.0000
     17 C          15.8301   -9.5799   11.1447 C.2       1 UNL1        0.0000
     18 C          15.4978   -7.1406   11.0614 C.3       1 UNL1        0.0000
     19 C          15.8085   -5.9271   11.9109 C.3       1 UNL1        0.0000
     20 C          17.6441   -7.0914   13.1007 C.3       1 UNL1        0.0000
     21 C          17.6252   -8.1002   11.9812 C.3       1 UNL1        0.0000
     22 C          15.7488   -6.1241   14.3902 C.2       1 UNL1        0.0000
     23 C          14.4770   -5.4311   14.6129 C.3       1 UNL1        0.0000
     24 C          14.3986   -4.0053   14.1161 C.3       1 UNL1        0.0000
     25 C          14.3840   -4.2841   15.5539 C.3       1 UNL1        0.0000
     26 C          17.7920  -10.9125   10.6793 C.ar      1 UNL1        0.0000
     27 C          18.6200  -11.9697   10.9824 C.ar      1 UNL1        0.0000
     28 C          18.3343  -12.7918   12.0819 C.ar      1 UNL1        0.0000
     29 O          18.7004  -18.5677   13.9184 O.2       1 UNL1        0.0000
     30 O          16.3380   -6.5469   15.4482 O.2       1 UNL1        0.0000
     31 O          14.6947   -9.7384   10.6402 O.2       1 UNL1        0.0000
     32 F          18.0291  -10.0870    9.6186 F         1 UNL1        0.0000
     33 H          20.8662  -17.6958   14.3992 H         1 UNL1        0.0000
     34 H          22.4693  -15.9177   14.8279 H         1 UNL1        0.0000
     35 H          21.6630  -13.6511   14.8582 H         1 UNL1        0.0000
     36 H          19.3589  -13.1035   14.4859 H         1 UNL1        0.0000
     37 H          17.1928  -12.9274   14.9588 H         1 UNL1        0.0000
     38 H          15.8001  -13.5178   14.0671 H         1 UNL1        0.0000
     39 H          15.5903  -11.3364   13.1579 H         1 UNL1        0.0000
     40 H          14.4705   -7.4051   11.2040 H         1 UNL1        0.0000
     41 H          15.7022   -6.8832   10.0425 H         1 UNL1        0.0000
     42 H          14.9096   -5.3767   12.0937 H         1 UNL1        0.0000
     43 H          16.5065   -5.2963   11.4005 H         1 UNL1        0.0000
     44 H          17.8056   -7.5992   14.0284 H         1 UNL1        0.0000
     45 H          18.4332   -6.3915   12.9206 H         1 UNL1        0.0000
     46 H          17.9475   -9.0449   12.3670 H         1 UNL1        0.0000
     47 H          18.2764   -7.7398   11.2135 H         1 UNL1        0.0000
     48 H          13.9241   -6.3401   14.5012 H         1 UNL1        0.0000
     49 H          13.5118   -3.6560   13.6295 H         1 UNL1        0.0000
     50 H          14.9931   -3.3955   13.4683 H         1 UNL1        0.0000
     51 H          13.4863   -4.1291   16.1153 H         1 UNL1        0.0000
     52 H          14.9684   -3.9503   16.3847 H         1 UNL1        0.0000
     53 H          19.4517  -12.1568   10.3998 H         1 UNL1        0.0000
     54 H          18.9712  -13.5778   12.2869 H         1 UNL1        0.0000
     55 H          16.3550  -17.7292   13.5276 H         1 UNL1        0.0000
@<TRIPOS>BOND
     1    1   18 1
     2    1   21 1
     3    1   17 am
     4    2   19 1
     5    2   20 1
     6    2   22 am
     7    3    4 1
     8    3   12 2
     9    4    5 am
    10    4   55 1
    11    5   29 2
    12    5    6 1
    13    6    7 ar
    14    6   11 ar
    15    7    8 ar
    16    7   33 1
    17    8   34 1
    18    8    9 ar
    19    9   10 ar
    20    9   35 1
    21   10   11 ar
    22   10   36 1
    23   11   12 1
    24   12   13 1
    25   13   37 1
    26   13   38 1
    27   13   14 1
    28   14   15 ar
    29   14   28 ar
    30   15   39 1
    31   15   16 ar
    32   16   26 ar
    33   16   17 1
    34   17   31 2
    35   18   19 1
    36   18   40 1
    37   18   41 1
    38   19   42 1
    39   19   43 1
    40   20   21 1
    41   20   45 1
    42   20   44 1
    43   21   46 1
    44   21   47 1
    45   22   30 2
    46   22   23 1
    47   23   25 1
    48   23   24 1
    49   23   48 1
    50   24   25 1
    51   24   49 1
    52   24   50 1
    53   25   51 1
    54   25   52 1
    55   26   27 ar
    56   26   32 1
    57   27   28 ar
    58   27   53 1
    59   28   54 1
@<TRIPOS>SUBSTRUCTURE
1 UNL1 1
@<TRIPOS>COMMENT
Olaparib
PLANTSproteinTorsions
70
3 257.3502
48 334.8778
123 257.3452
171 279.1602
348 99.4111
606 199.4335
632 52.8494
655 168.6499
678 147.5587
700 212.0306
773 140.8796
807 20.2359
891 117.3211
933 8.9257
999 72.0672
1020 139.9850
1361 208.1294
1371 330.7215
1544 244.8628
1649 86.7898
1689 116.5351
1736 126.4166
1771 67.7572
2012 198.0741
2070 204.8205
2082 172.3014
2147 212.0883
2300 10.4507
2527 72.3668
2551 72.4981
2605 127.3325
2653 162.9170
2739 335.4487
2807 290.8936
2841 225.0845
2875 35.0739
2885 206.2784
2915 295.8105
3074 305.9848
3130 215.4373
3421 245.6506
3586 93.6393
3784 209.1497
3818 184.2478
3881 151.3794
3933 120.4229
4033 59.6032
4046 181.2493
4094 74.5147
4145 158.3951
4208 69.2465
4235 324.4266
4332 74.4797
4568 301.4475
4685 263.3599
4749 324.6104
4805 115.8623
4858 97.1806
4871 247.7054
4945 65.2711
4999 125.8671
5010 224.7180
5106 90.0794
5130 249.2637
5249 184.1101
5258 284.7350
5318 339.4023
5369 142.2002
5589 66.1839
5645 268.2466
PLANTSmolcadARTstart hb
PLANTSmolcadARTstart HB
LINES
16.338 -6.5469 15.4482 14.939 -7.462 16.94 0 255 0 5
14.6947 -9.73838 10.6402 13.06 -9.621 11.732 0 255 0 5
PLANTSmolcadARTstart HBCH
LINES
PLANTSmolcadARTstart HB-CHO
LINES
PLANTSmolcadARTend
PLANTSmolcadARTstart HB_WATER
LINES
PLANTSmolcadARTend

PLANTSmolcadARTend

