@<TRIPOS>MOLECULE
Olaparib_entry_00001_conf_19
55 59 1
SMALL
NO_CHARGES


@<TRIPOS>ATOM
      1 N          16.3236   -6.9661   12.0427 N.am      1 UNL1        0.0000
      2 N          16.3310   -5.4250   14.1340 N.am      1 UNL1        0.0000
      3 N          17.8665  -14.1422   13.3304 N.2       1 UNL1        0.0000
      4 N          18.7630  -15.0024   13.7487 N.am      1 UNL1        0.0000
      5 C          18.9377  -15.3121   15.0412 C.2       1 UNL1        0.0000
      6 C          18.1386  -14.6990   15.9843 C.ar      1 UNL1        0.0000
      7 C          18.2919  -14.9699   17.3445 C.ar      1 UNL1        0.0000
      8 C          17.4967  -14.3296   18.2704 C.ar      1 UNL1        0.0000
      9 C          16.5702  -13.4315   17.7845 C.ar      1 UNL1        0.0000
     10 C          16.4075  -13.1528   16.4377 C.ar      1 UNL1        0.0000
     11 C          17.1977  -13.7937   15.5295 C.ar      1 UNL1        0.0000
     12 C          17.0358  -13.4936   14.2035 C.2       1 UNL1        0.0000
     13 C          16.0409  -12.6137   13.6044 C.3       1 UNL1        0.0000
     14 C          16.6943  -11.6098   12.7200 C.ar      1 UNL1        0.0000
     15 C          15.9813  -10.4121   12.5331 C.ar      1 UNL1        0.0000
     16 C          16.4982   -9.4280   11.7250 C.ar      1 UNL1        0.0000
     17 C          15.7701   -8.1579   11.5058 C.2       1 UNL1        0.0000
     18 C          15.6530   -5.7213   11.8479 C.3       1 UNL1        0.0000
     19 C          15.9598   -4.7161   12.9371 C.3       1 UNL1        0.0000
     20 C          17.5383   -6.2557   14.0678 C.3       1 UNL1        0.0000
     21 C          17.5693   -7.0428   12.7830 C.3       1 UNL1        0.0000
     22 C          15.5897   -5.3419   15.3163 C.2       1 UNL1        0.0000
     23 C          14.3622   -4.5720   15.5345 C.3       1 UNL1        0.0000
     24 C          14.4799   -3.0722   15.3828 C.3       1 UNL1        0.0000
     25 C          14.2270   -3.6598   16.7004 C.3       1 UNL1        0.0000
     26 C          17.7017   -9.5441   11.0707 C.ar      1 UNL1        0.0000
     27 C          18.3987  -10.7168   11.2543 C.ar      1 UNL1        0.0000
     28 C          17.8738  -11.7234   12.0774 C.ar      1 UNL1        0.0000
     29 O          19.7908  -16.1350   15.4616 O.2       1 UNL1        0.0000
     30 O          16.0120   -6.0039   16.3305 O.2       1 UNL1        0.0000
     31 O          14.6935   -8.1066   10.8677 O.2       1 UNL1        0.0000
     32 F          18.1721   -8.5377   10.2778 F         1 UNL1        0.0000
     33 H          19.0010  -15.6510   17.6579 H         1 UNL1        0.0000
     34 H          17.5910  -14.5135   19.2807 H         1 UNL1        0.0000
     35 H          15.9658  -12.9403   18.4609 H         1 UNL1        0.0000
     36 H          15.6988  -12.4706   16.1251 H         1 UNL1        0.0000
     37 H          15.5074  -12.1053   14.3803 H         1 UNL1        0.0000
     38 H          15.3678  -13.2030   13.0170 H         1 UNL1        0.0000
     39 H          15.0725  -10.2727   13.0012 H         1 UNL1        0.0000
     40 H          14.5977   -5.8995   11.8332 H         1 UNL1        0.0000
     41 H          15.9976   -5.3100   10.9216 H         1 UNL1        0.0000
     42 H          15.0942   -4.1171   13.1274 H         1 UNL1        0.0000
     43 H          16.7633   -4.0803   12.6277 H         1 UNL1        0.0000
     44 H          17.5459   -6.9336   14.8954 H         1 UNL1        0.0000
     45 H          18.3984   -5.6201   14.1033 H         1 UNL1        0.0000
     46 H          17.7642   -8.0690   13.0155 H         1 UNL1        0.0000
     47 H          18.3346   -6.6212   12.1668 H         1 UNL1        0.0000
     48 H          13.7572   -5.3624   15.1425 H         1 UNL1        0.0000
     49 H          13.7085   -2.5225   14.8848 H         1 UNL1        0.0000
     50 H          15.2140   -2.4076   14.9776 H         1 UNL1        0.0000
     51 H          13.2718   -3.5295   17.1648 H         1 UNL1        0.0000
     52 H          14.7068   -3.5895   17.6533 H         1 UNL1        0.0000
     53 H          19.3085  -10.8548   10.7857 H         1 UNL1        0.0000
     54 H          18.4165  -12.5932   12.1977 H         1 UNL1        0.0000
     55 H          19.3360  -15.4434   13.0801 H         1 UNL1        0.0000
@<TRIPOS>BOND
     1    1   18 1
     2    1   21 1
     3    1   17 am
     4    2   19 1
     5    2   20 1
     6    2   22 am
     7    3    4 1
     8    3   12 2
     9    4    5 am
    10    4   55 1
    11    5   29 2
    12    5    6 1
    13    6    7 ar
    14    6   11 ar
    15    7    8 ar
    16    7   33 1
    17    8   34 1
    18    8    9 ar
    19    9   10 ar
    20    9   35 1
    21   10   11 ar
    22   10   36 1
    23   11   12 1
    24   12   13 1
    25   13   37 1
    26   13   38 1
    27   13   14 1
    28   14   15 ar
    29   14   28 ar
    30   15   39 1
    31   15   16 ar
    32   16   26 ar
    33   16   17 1
    34   17   31 2
    35   18   19 1
    36   18   40 1
    37   18   41 1
    38   19   42 1
    39   19   43 1
    40   20   21 1
    41   20   45 1
    42   20   44 1
    43   21   46 1
    44   21   47 1
    45   22   30 2
    46   22   23 1
    47   23   25 1
    48   23   24 1
    49   23   48 1
    50   24   25 1
    51   24   49 1
    52   24   50 1
    53   25   51 1
    54   25   52 1
    55   26   27 ar
    56   26   32 1
    57   27   28 ar
    58   27   53 1
    59   28   54 1
@<TRIPOS>SUBSTRUCTURE
1 UNL1 1
@<TRIPOS>COMMENT
Olaparib
PLANTSproteinTorsions
70
3 39.8131
48 332.0965
123 30.9271
171 301.5151
348 158.0691
606 75.1467
632 70.7324
655 157.0733
678 18.9414
700 58.7538
773 109.7423
807 333.4032
891 191.3430
933 101.9129
999 249.3728
1020 70.1850
1361 184.8854
1371 59.3712
1544 231.7955
1649 54.2219
1689 34.1839
1736 134.0602
1771 121.9193
2012 168.8947
2070 206.2598
2082 230.2946
2147 142.3752
2300 122.4777
2527 178.2372
2551 49.1895
2605 353.0401
2653 355.9602
2739 351.1052
2807 242.6299
2841 238.0176
2875 22.2425
2885 325.3250
2915 149.6698
3074 166.1665
3130 71.4831
3421 70.4033
3586 211.3358
3784 195.9950
3818 118.6103
3881 29.9049
3933 335.2593
4033 220.6474
4046 54.1972
4094 70.6659
4145 175.1885
4208 106.3057
4235 22.5621
4332 146.4269
4568 137.7399
4685 257.4951
4749 267.3441
4805 166.5102
4858 197.7912
4871 275.7762
4945 234.6813
4999 325.3412
5010 295.3397
5106 30.2639
5130 191.1397
5249 221.5853
5258 230.4491
5318 247.9296
5369 150.0613
5589 147.4468
5645 137.3052
PLANTSmolcadARTstart hb
PLANTSmolcadARTstart HB
LINES
16.012 -6.00387 16.3305 14.939 -7.462 16.94 0 255 0 5
PLANTSmolcadARTstart HBCH
LINES
PLANTSmolcadARTstart HB-CHO
LINES
PLANTSmolcadARTend
PLANTSmolcadARTstart HB_WATER
LINES
PLANTSmolcadARTend

PLANTSmolcadARTend

