@<TRIPOS>MOLECULE
Olaparib_entry_00001_conf_94
55 59 1
SMALL
NO_CHARGES


@<TRIPOS>ATOM
      1 N          16.5465   -5.9972   15.0184 N.am      1 UNL1        0.0000
      2 N          15.1262   -3.8255   15.1408 N.am      1 UNL1        0.0000
      3 N          16.7492  -11.9917   10.7726 N.2       1 UNL1        0.0000
      4 N          17.2482  -12.6918    9.7829 N.am      1 UNL1        0.0000
      5 C          18.1403  -13.6772    9.9561 C.2       1 UNL1        0.0000
      6 C          18.5595  -13.9754   11.2363 C.ar      1 UNL1        0.0000
      7 C          19.5013  -14.9779   11.4711 C.ar      1 UNL1        0.0000
      8 C          19.9213  -15.2441   12.7565 C.ar      1 UNL1        0.0000
      9 C          19.3715  -14.4808   13.7647 C.ar      1 UNL1        0.0000
     10 C          18.4366  -13.4827   13.5462 C.ar      1 UNL1        0.0000
     11 C          18.0257  -13.2291   12.2708 C.ar      1 UNL1        0.0000
     12 C          17.1142  -12.2274   12.0705 C.2       1 UNL1        0.0000
     13 C          16.4369  -11.4244   13.0802 C.3       1 UNL1        0.0000
     14 C          16.3680   -9.9987   12.6560 C.ar      1 UNL1        0.0000
     15 C          16.9115   -9.0704   13.5619 C.ar      1 UNL1        0.0000
     16 C          16.8854   -7.7291   13.2639 C.ar      1 UNL1        0.0000
     17 C          17.4463   -6.7272   14.1983 C.2       1 UNL1        0.0000
     18 C          17.0500   -5.0262   15.9353 C.3       1 UNL1        0.0000
     19 C          16.0441   -3.9382   16.2443 C.3       1 UNL1        0.0000
     20 C          14.2984   -4.9991   14.8416 C.3       1 UNL1        0.0000
     21 C          15.1237   -6.2586   14.9040 C.3       1 UNL1        0.0000
     22 C          15.0124   -2.6618   14.3746 C.2       1 UNL1        0.0000
     23 C          15.7740   -1.4207   14.5387 C.3       1 UNL1        0.0000
     24 C          16.7185   -1.0641   13.4132 C.3       1 UNL1        0.0000
     25 C          17.2487   -1.4456   14.7241 C.3       1 UNL1        0.0000
     26 C          16.3472   -7.2245   12.1039 C.ar      1 UNL1        0.0000
     27 C          15.8155   -8.1340   11.2180 C.ar      1 UNL1        0.0000
     28 C          15.8396   -9.5033   11.5193 C.ar      1 UNL1        0.0000
     29 O          18.6291  -14.3604    9.0200 O.2       1 UNL1        0.0000
     30 O          14.1557   -2.6599   13.4200 O.2       1 UNL1        0.0000
     31 O          18.6766   -6.5092   14.2843 O.2       1 UNL1        0.0000
     32 F          16.3447   -5.8827   11.8542 F         1 UNL1        0.0000
     33 H          19.8834  -15.5214   10.6815 H         1 UNL1        0.0000
     34 H          20.6156  -15.9801   12.9550 H         1 UNL1        0.0000
     35 H          19.6733  -14.6629   14.7341 H         1 UNL1        0.0000
     36 H          18.0557  -12.9388   14.3363 H         1 UNL1        0.0000
     37 H          16.9748  -11.4917   14.0028 H         1 UNL1        0.0000
     38 H          15.4405  -11.7946   13.2045 H         1 UNL1        0.0000
     39 H          17.3284   -9.3955   14.4479 H         1 UNL1        0.0000
     40 H          17.9233   -4.5754   15.5113 H         1 UNL1        0.0000
     41 H          17.2715   -5.5320   16.8524 H         1 UNL1        0.0000
     42 H          16.5530   -3.0080   16.3855 H         1 UNL1        0.0000
     43 H          15.5090   -4.1826   17.1384 H         1 UNL1        0.0000
     44 H          13.8851   -4.8982   13.8600 H         1 UNL1        0.0000
     45 H          13.5148   -5.0644   15.5673 H         1 UNL1        0.0000
     46 H          14.9524   -6.8239   14.0117 H         1 UNL1        0.0000
     47 H          14.8251   -6.7949   15.7794 H         1 UNL1        0.0000
     48 H          14.9711   -0.9598   15.0746 H         1 UNL1        0.0000
     49 H          16.7945   -0.0502   13.0793 H         1 UNL1        0.0000
     50 H          16.8624   -1.4046   12.4090 H         1 UNL1        0.0000
     51 H          17.7190   -0.7085   15.3410 H         1 UNL1        0.0000
     52 H          17.9468   -2.1819   15.0611 H         1 UNL1        0.0000
     53 H          15.3991   -7.8075   10.3313 H         1 UNL1        0.0000
     54 H          15.4338  -10.1641   10.8379 H         1 UNL1        0.0000
     55 H          16.9524  -12.4837    8.8669 H         1 UNL1        0.0000
@<TRIPOS>BOND
     1    1   18 1
     2    1   21 1
     3    1   17 am
     4    2   19 1
     5    2   20 1
     6    2   22 am
     7    3    4 1
     8    3   12 2
     9    4    5 am
    10    4   55 1
    11    5   29 2
    12    5    6 1
    13    6    7 ar
    14    6   11 ar
    15    7    8 ar
    16    7   33 1
    17    8   34 1
    18    8    9 ar
    19    9   10 ar
    20    9   35 1
    21   10   11 ar
    22   10   36 1
    23   11   12 1
    24   12   13 1
    25   13   37 1
    26   13   38 1
    27   13   14 1
    28   14   15 ar
    29   14   28 ar
    30   15   39 1
    31   15   16 ar
    32   16   26 ar
    33   16   17 1
    34   17   31 2
    35   18   19 1
    36   18   40 1
    37   18   41 1
    38   19   42 1
    39   19   43 1
    40   20   21 1
    41   20   45 1
    42   20   44 1
    43   21   46 1
    44   21   47 1
    45   22   30 2
    46   22   23 1
    47   23   25 1
    48   23   24 1
    49   23   48 1
    50   24   25 1
    51   24   49 1
    52   24   50 1
    53   25   51 1
    54   25   52 1
    55   26   27 ar
    56   26   32 1
    57   27   28 ar
    58   27   53 1
    59   28   54 1
@<TRIPOS>SUBSTRUCTURE
1 UNL1 1
@<TRIPOS>COMMENT
Olaparib
PLANTSproteinTorsions
70
3 198.0652
48 228.6340
123 18.8390
171 32.2282
348 92.3013
606 255.3698
632 32.8768
655 45.6438
678 16.5020
700 220.3030
773 354.5091
807 19.5482
891 33.4902
933 63.7022
999 252.6585
1020 29.7721
1361 121.2402
1371 346.7021
1544 81.5195
1649 3.6528
1689 93.1067
1736 119.4173
1771 139.3920
2012 355.3717
2070 259.9068
2082 159.8880
2147 358.9214
2300 220.2178
2527 168.9426
2551 100.1859
2605 24.7409
2653 15.4458
2739 264.9027
2807 93.2763
2841 198.6220
2875 158.9723
2885 20.3075
2915 74.8259
3074 107.3286
3130 38.3878
3421 77.5417
3586 65.2725
3784 66.5658
3818 78.7718
3881 207.1271
3933 277.1271
4033 129.0104
4046 44.6144
4094 37.9655
4145 166.3742
4208 35.3892
4235 136.5276
4332 3.6623
4568 239.9883
4685 255.7677
4749 61.0241
4805 296.3319
4858 193.0990
4871 209.6664
4945 163.4914
4999 238.7731
5010 284.0068
5106 290.4197
5130 52.5968
5249 238.9552
5258 258.7601
5318 199.1319
5369 259.6392
5589 224.6475
5645 144.5005
PLANTSmolcadARTstart hb
PLANTSmolcadARTstart HB
LINES
PLANTSmolcadARTstart HBCH
LINES
PLANTSmolcadARTstart HB-CHO
LINES
PLANTSmolcadARTend
PLANTSmolcadARTstart HB_WATER
LINES
PLANTSmolcadARTend

PLANTSmolcadARTend

