@<TRIPOS>MOLECULE
Olaparib_entry_00001_conf_44
55 59 1
SMALL
NO_CHARGES


@<TRIPOS>ATOM
      1 N          18.9966    1.6986   15.0564 N.am      1 UNL1        0.0000
      2 N          17.1088    1.9024   13.2836 N.am      1 UNL1        0.0000
      3 N          16.5577   -3.0017   16.7861 N.2       1 UNL1        0.0000
      4 N          15.5828   -3.1957   15.9314 N.am      1 UNL1        0.0000
      5 C          15.6308   -4.1162   14.9581 C.2       1 UNL1        0.0000
      6 C          16.7589   -4.9023   14.8432 C.ar      1 UNL1        0.0000
      7 C          16.8693   -5.8616   13.8359 C.ar      1 UNL1        0.0000
      8 C          18.0145   -6.6207   13.7272 C.ar      1 UNL1        0.0000
      9 C          19.0140   -6.3798   14.6460 C.ar      1 UNL1        0.0000
     10 C          18.9181   -5.4311   15.6503 C.ar      1 UNL1        0.0000
     11 C          17.7797   -4.6870   15.7507 C.ar      1 UNL1        0.0000
     12 C          17.7083   -3.7413   16.7382 C.2       1 UNL1        0.0000
     13 C          18.6849   -3.4716   17.7854 C.3       1 UNL1        0.0000
     14 C          18.8864   -2.0053   17.9485 C.ar      1 UNL1        0.0000
     15 C          19.2816   -1.3155   16.7885 C.ar      1 UNL1        0.0000
     16 C          19.5025    0.0399   16.8411 C.ar      1 UNL1        0.0000
     17 C          19.9225    0.7934   15.6381 C.2       1 UNL1        0.0000
     18 C          19.3669    2.4466   13.8987 C.3       1 UNL1        0.0000
     19 C          18.1754    2.8417   13.0530 C.3       1 UNL1        0.0000
     20 C          16.5686    1.8304   14.6455 C.3       1 UNL1        0.0000
     21 C          17.6843    1.8431   15.6586 C.3       1 UNL1        0.0000
     22 C          16.5961    1.0853   12.2717 C.2       1 UNL1        0.0000
     23 C          17.0364    1.0307   10.8752 C.3       1 UNL1        0.0000
     24 C          16.0082    0.5641    9.8696 C.3       1 UNL1        0.0000
     25 C          17.1762   -0.2683   10.1662 C.3       1 UNL1        0.0000
     26 C          19.3566    0.7838   17.9879 C.ar      1 UNL1        0.0000
     27 C          18.9698    0.1076   19.1229 C.ar      1 UNL1        0.0000
     28 C          18.7446   -1.2755   19.0729 C.ar      1 UNL1        0.0000
     29 O          14.7059   -4.3179   14.1300 O.2       1 UNL1        0.0000
     30 O          15.6375    0.2901   12.5783 O.2       1 UNL1        0.0000
     31 O          21.0574    0.6562   15.1265 O.2       1 UNL1        0.0000
     32 F          19.5887    2.1288   17.9891 F         1 UNL1        0.0000
     33 H          16.0923   -6.0035   13.1718 H         1 UNL1        0.0000
     34 H          18.1192   -7.3359   12.9917 H         1 UNL1        0.0000
     35 H          19.8802   -6.9363   14.5816 H         1 UNL1        0.0000
     36 H          19.6961   -5.2889   16.3135 H         1 UNL1        0.0000
     37 H          19.6168   -3.9282   17.5241 H         1 UNL1        0.0000
     38 H          18.3215   -3.8734   18.7083 H         1 UNL1        0.0000
     39 H          19.4057   -1.8257   15.9003 H         1 UNL1        0.0000
     40 H          20.0277    1.8514   13.3033 H         1 UNL1        0.0000
     41 H          19.8390    3.3473   14.2332 H         1 UNL1        0.0000
     42 H          18.4488    2.8290   12.0189 H         1 UNL1        0.0000
     43 H          17.8543    3.8278   13.3172 H         1 UNL1        0.0000
     44 H          16.0055    0.9273   14.7544 H         1 UNL1        0.0000
     45 H          15.9403    2.6799   14.8143 H         1 UNL1        0.0000
     46 H          17.5333    1.0347   16.3433 H         1 UNL1        0.0000
     47 H          17.6603    2.7921   16.1505 H         1 UNL1        0.0000
     48 H          17.6858    1.8696   11.0124 H         1 UNL1        0.0000
     49 H          15.9264    1.0535    8.9214 H         1 UNL1        0.0000
     50 H          14.9486    0.4159    9.8835 H         1 UNL1        0.0000
     51 H          17.9413   -0.3910    9.4282 H         1 UNL1        0.0000
     52 H          17.3100   -1.2811   10.4820 H         1 UNL1        0.0000
     53 H          18.8454    0.6195   20.0110 H         1 UNL1        0.0000
     54 H          18.4556   -1.7583   19.9383 H         1 UNL1        0.0000
     55 H          14.7750   -2.6378   16.0087 H         1 UNL1        0.0000
@<TRIPOS>BOND
     1    1   18 1
     2    1   21 1
     3    1   17 am
     4    2   19 1
     5    2   20 1
     6    2   22 am
     7    3    4 1
     8    3   12 2
     9    4    5 am
    10    4   55 1
    11    5   29 2
    12    5    6 1
    13    6    7 ar
    14    6   11 ar
    15    7    8 ar
    16    7   33 1
    17    8   34 1
    18    8    9 ar
    19    9   10 ar
    20    9   35 1
    21   10   11 ar
    22   10   36 1
    23   11   12 1
    24   12   13 1
    25   13   37 1
    26   13   38 1
    27   13   14 1
    28   14   15 ar
    29   14   28 ar
    30   15   39 1
    31   15   16 ar
    32   16   26 ar
    33   16   17 1
    34   17   31 2
    35   18   19 1
    36   18   40 1
    37   18   41 1
    38   19   42 1
    39   19   43 1
    40   20   21 1
    41   20   45 1
    42   20   44 1
    43   21   46 1
    44   21   47 1
    45   22   30 2
    46   22   23 1
    47   23   25 1
    48   23   24 1
    49   23   48 1
    50   24   25 1
    51   24   49 1
    52   24   50 1
    53   25   51 1
    54   25   52 1
    55   26   27 ar
    56   26   32 1
    57   27   28 ar
    58   27   53 1
    59   28   54 1
@<TRIPOS>SUBSTRUCTURE
1 UNL1 1
@<TRIPOS>COMMENT
Olaparib
PLANTSproteinTorsions
70
3 181.4461
48 252.6846
123 45.2716
171 125.4101
348 133.0615
606 170.9190
632 231.7124
655 177.2562
678 95.8115
700 88.7864
773 186.5300
807 165.2528
891 119.2417
933 256.9304
999 104.9128
1020 129.6418
1361 31.9317
1371 279.2257
1544 32.5920
1649 18.9600
1689 333.2068
1736 87.8768
1771 96.6178
2012 19.2348
2070 32.5529
2082 96.9376
2147 205.0442
2300 98.3049
2527 115.5886
2551 351.7819
2605 91.8609
2653 14.1168
2739 124.9913
2807 222.0366
2841 62.2219
2875 257.6652
2885 351.4797
2915 270.2177
3074 259.6543
3130 116.8652
3421 322.5092
3586 160.2856
3784 175.5743
3818 89.2035
3881 152.6254
3933 186.7479
4033 87.1694
4046 294.7457
4094 231.6382
4145 319.5709
4208 118.4169
4235 209.5776
4332 235.2048
4568 308.3378
4685 157.7041
4749 64.2777
4805 250.2200
4858 235.6629
4871 355.6694
4945 7.9693
4999 54.6959
5010 201.5089
5106 16.1028
5130 214.5575
5249 49.9611
5258 32.3126
5318 101.3634
5369 277.2711
5589 343.9178
5645 144.3676
PLANTSmolcadARTstart hb
PLANTSmolcadARTstart HB
LINES
15.6375 0.290058 12.5783 14.0404 1.05654 13.6356 0 255 0 5
PLANTSmolcadARTstart HBCH
LINES
PLANTSmolcadARTstart HB-CHO
LINES
PLANTSmolcadARTend
PLANTSmolcadARTstart HB_WATER
LINES
PLANTSmolcadARTend

PLANTSmolcadARTend

