@<TRIPOS>MOLECULE
Olaparib_entry_00001_conf_83
55 59 1
SMALL
NO_CHARGES


@<TRIPOS>ATOM
      1 N          27.1147    8.4903   21.3302 N.am      1 UNL1        0.0000
      2 N          24.6608    7.8996   20.7153 N.am      1 UNL1        0.0000
      3 N          29.3538    7.9071   15.5813 N.2       1 UNL1        0.0000
      4 N          29.7001    8.5735   14.5067 N.am      1 UNL1        0.0000
      5 C          30.6855    8.1838   13.6858 C.2       1 UNL1        0.0000
      6 C          31.3747    7.0252   13.9795 C.ar      1 UNL1        0.0000
      7 C          32.4223    6.5849   13.1697 C.ar      1 UNL1        0.0000
      8 C          33.1107    5.4359   13.4944 C.ar      1 UNL1        0.0000
      9 C          32.7134    4.7700   14.6346 C.ar      1 UNL1        0.0000
     10 C          31.6761    5.1956   15.4474 C.ar      1 UNL1        0.0000
     11 C          30.9997    6.3324   15.1158 C.ar      1 UNL1        0.0000
     12 C          29.9885    6.7487   15.9397 C.2       1 UNL1        0.0000
     13 C          29.4639    6.0713   17.1182 C.3       1 UNL1        0.0000
     14 C          29.9202    6.7534   18.3608 C.ar      1 UNL1        0.0000
     15 C          28.9590    7.5587   18.9974 C.ar      1 UNL1        0.0000
     16 C          29.2886    8.2375   20.1460 C.ar      1 UNL1        0.0000
     17 C          28.3002    9.0957   20.8373 C.2       1 UNL1        0.0000
     18 C          26.1404    9.2842   22.0066 C.3       1 UNL1        0.0000
     19 C          24.7443    8.7086   21.9034 C.3       1 UNL1        0.0000
     20 C          25.5351    6.7235   20.6486 C.3       1 UNL1        0.0000
     21 C          26.9205    7.0658   21.1332 C.3       1 UNL1        0.0000
     22 C          23.7949    8.2019   19.6604 C.2       1 UNL1        0.0000
     23 C          22.8770    9.3407   19.5725 C.3       1 UNL1        0.0000
     24 C          21.4397    9.0699   19.9557 C.3       1 UNL1        0.0000
     25 C          21.7852    9.3687   18.5641 C.3       1 UNL1        0.0000
     26 C          30.5328    8.1762   20.7277 C.ar      1 UNL1        0.0000
     27 C          31.4728    7.3877   20.1036 C.ar      1 UNL1        0.0000
     28 C          31.1402    6.6945   18.9309 C.ar      1 UNL1        0.0000
     29 O          31.0311    8.8085   12.6503 O.2       1 UNL1        0.0000
     30 O          23.7884    7.4104   18.6511 O.2       1 UNL1        0.0000
     31 O          28.4790   10.3250   20.9974 O.2       1 UNL1        0.0000
     32 F          30.8114    8.8703   21.8693 F         1 UNL1        0.0000
     33 H          32.6817    7.1197   12.3261 H         1 UNL1        0.0000
     34 H          33.8879    5.0904   12.9114 H         1 UNL1        0.0000
     35 H          33.2165    3.9083   14.8964 H         1 UNL1        0.0000
     36 H          31.4180    4.6608   16.2916 H         1 UNL1        0.0000
     37 H          29.8092    5.0585   17.1254 H         1 UNL1        0.0000
     38 H          28.3946    6.0979   17.0844 H         1 UNL1        0.0000
     39 H          28.0090    7.6400   18.6031 H         1 UNL1        0.0000
     40 H          26.1396   10.2646   21.5772 H         1 UNL1        0.0000
     41 H          26.4052    9.3068   23.0436 H         1 UNL1        0.0000
     42 H          24.0310    9.5038   21.8481 H         1 UNL1        0.0000
     43 H          24.5342    8.1104   22.7656 H         1 UNL1        0.0000
     44 H          25.5913    6.3827   19.6360 H         1 UNL1        0.0000
     45 H          25.1310    5.9555   21.2747 H         1 UNL1        0.0000
     46 H          27.6301    6.7226   20.4094 H         1 UNL1        0.0000
     47 H          27.0556    6.5899   22.0810 H         1 UNL1        0.0000
     48 H          23.6517   10.0283   19.8398 H         1 UNL1        0.0000
     49 H          20.8972    9.7853   20.5381 H         1 UNL1        0.0000
     50 H          20.9263    8.2751   20.4553 H         1 UNL1        0.0000
     51 H          21.4855   10.3004   18.1314 H         1 UNL1        0.0000
     52 H          21.6174    8.8744   17.6309 H         1 UNL1        0.0000
     53 H          32.4230    7.3068   20.4996 H         1 UNL1        0.0000
     54 H          31.8638    6.1105   18.4828 H         1 UNL1        0.0000
     55 H          29.2115    9.4011   14.2918 H         1 UNL1        0.0000
@<TRIPOS>BOND
     1    1   18 1
     2    1   21 1
     3    1   17 am
     4    2   19 1
     5    2   20 1
     6    2   22 am
     7    3    4 1
     8    3   12 2
     9    4    5 am
    10    4   55 1
    11    5   29 2
    12    5    6 1
    13    6    7 ar
    14    6   11 ar
    15    7    8 ar
    16    7   33 1
    17    8   34 1
    18    8    9 ar
    19    9   10 ar
    20    9   35 1
    21   10   11 ar
    22   10   36 1
    23   11   12 1
    24   12   13 1
    25   13   37 1
    26   13   38 1
    27   13   14 1
    28   14   15 ar
    29   14   28 ar
    30   15   39 1
    31   15   16 ar
    32   16   26 ar
    33   16   17 1
    34   17   31 2
    35   18   19 1
    36   18   40 1
    37   18   41 1
    38   19   42 1
    39   19   43 1
    40   20   21 1
    41   20   45 1
    42   20   44 1
    43   21   46 1
    44   21   47 1
    45   22   30 2
    46   22   23 1
    47   23   25 1
    48   23   24 1
    49   23   48 1
    50   24   25 1
    51   24   49 1
    52   24   50 1
    53   25   51 1
    54   25   52 1
    55   26   27 ar
    56   26   32 1
    57   27   28 ar
    58   27   53 1
    59   28   54 1
@<TRIPOS>SUBSTRUCTURE
1 UNL1 1
@<TRIPOS>COMMENT
Olaparib
PLANTSproteinTorsions
70
3 28.9246
48 65.9246
123 70.9246
171 213.9247
348 310.2365
606 24.9246
632 130.9246
655 96.9246
678 123.9246
700 282.2365
773 208.9247
807 166.9246
891 46.9246
933 54.9246
999 36.9246
1020 96.9246
1361 173.9246
1371 246.9247
1544 129.9246
1649 41.9246
1689 104.9246
1736 166.9246
1771 79.9246
2012 353.2365
2070 73.9246
2082 131.9246
2147 175.9246
2300 24.9246
2527 314.2365
2551 139.9246
2605 325.2365
2653 226.9247
2739 324.2365
2807 325.2365
2841 240.9247
2875 197.9246
2885 123.9246
2915 240.9247
3074 254.9247
3130 203.9247
3421 107.9246
3586 80.9246
3784 253.9247
3818 224.9247
3881 22.9246
3933 271.2365
4033 24.9246
4046 231.9247
4094 132.9246
4145 116.9246
4208 85.9246
4235 60.9246
4332 305.2365
4568 86.9246
4685 76.9246
4749 14.9246
4805 240.9247
4858 109.9246
4871 177.9246
4945 205.9247
4999 136.9246
5010 184.9246
5106 74.9246
5130 162.9246
5249 67.9246
5258 105.9246
5318 240.9247
5369 36.9246
5589 130.9246
5645 217.9247
PLANTSmolcadARTstart hb
PLANTSmolcadARTstart HB
LINES
23.7884 7.4104 18.6511 22.507 6.3987 18.2367 0 255 0 5
PLANTSmolcadARTstart HBCH
LINES
PLANTSmolcadARTstart HB-CHO
LINES
PLANTSmolcadARTend
PLANTSmolcadARTstart HB_WATER
LINES
PLANTSmolcadARTend

PLANTSmolcadARTend

