@<TRIPOS>MOLECULE
Olaparib_entry_00001_conf_93
55 59 1
SMALL
NO_CHARGES


@<TRIPOS>ATOM
      1 N          17.2449   -2.8232   15.3373 N.am      1 UNL1        0.0000
      2 N          16.4799   -0.4295   14.6792 N.am      1 UNL1        0.0000
      3 N          14.9010   -8.0115    9.6764 N.2       1 UNL1        0.0000
      4 N          14.3367   -9.1447    9.3357 N.am      1 UNL1        0.0000
      5 C          14.6895  -10.3278    9.8579 C.2       1 UNL1        0.0000
      6 C          15.6959  -10.3633   10.8011 C.ar      1 UNL1        0.0000
      7 C          16.1158  -11.5700   11.3619 C.ar      1 UNL1        0.0000
      8 C          17.1376  -11.5837   12.2866 C.ar      1 UNL1        0.0000
      9 C          17.7028  -10.3688   12.6120 C.ar      1 UNL1        0.0000
     10 C          17.2965   -9.1640   12.0632 C.ar      1 UNL1        0.0000
     11 C          16.2827   -9.1612   11.1510 C.ar      1 UNL1        0.0000
     12 C          15.9052   -7.9637   10.6052 C.2       1 UNL1        0.0000
     13 C          16.4007   -6.6355   10.9421 C.3       1 UNL1        0.0000
     14 C          16.2488   -6.3743   12.4002 C.ar      1 UNL1        0.0000
     15 C          17.0733   -5.3622   12.9233 C.ar      1 UNL1        0.0000
     16 C          17.0131   -5.0551   14.2614 C.ar      1 UNL1        0.0000
     17 C          17.8705   -3.9974   14.8425 C.2       1 UNL1        0.0000
     18 C          18.0380   -1.7835   15.9092 C.3       1 UNL1        0.0000
     19 C          17.3838   -0.4229   15.7999 C.3       1 UNL1        0.0000
     20 C          15.3495   -1.3623   14.7417 C.3       1 UNL1        0.0000
     21 C          15.8011   -2.7075   15.2494 C.3       1 UNL1        0.0000
     22 C          16.6521    0.4050   13.5709 C.2       1 UNL1        0.0000
     23 C          17.7309    1.3730   13.3557 C.3       1 UNL1        0.0000
     24 C          17.5660    2.7161   14.0303 C.3       1 UNL1        0.0000
     25 C          17.5012    2.6142   12.5706 C.3       1 UNL1        0.0000
     26 C          16.1739   -5.6922   15.1445 C.ar      1 UNL1        0.0000
     27 C          15.3673   -6.6827   14.6314 C.ar      1 UNL1        0.0000
     28 C          15.4269   -6.9993   13.2667 C.ar      1 UNL1        0.0000
     29 O          14.1594  -11.4246    9.5449 O.2       1 UNL1        0.0000
     30 O          15.7839    0.3300   12.6297 O.2       1 UNL1        0.0000
     31 O          19.1163   -4.1088   14.9089 O.2       1 UNL1        0.0000
     32 F          16.1516   -5.3509   16.4658 F         1 UNL1        0.0000
     33 H          15.6603  -12.4536   11.0845 H         1 UNL1        0.0000
     34 H          17.4649  -12.4627   12.7151 H         1 UNL1        0.0000
     35 H          18.4702  -10.3569   13.3013 H         1 UNL1        0.0000
     36 H          17.7533   -8.2809   12.3403 H         1 UNL1        0.0000
     37 H          15.8462   -5.9030   10.3935 H         1 UNL1        0.0000
     38 H          17.4391   -6.5800   10.6893 H         1 UNL1        0.0000
     39 H          17.7219   -4.8519   12.3041 H         1 UNL1        0.0000
     40 H          18.9798   -1.7528   15.4019 H         1 UNL1        0.0000
     41 H          18.1564   -2.0028   16.9503 H         1 UNL1        0.0000
     42 H          18.1338    0.3256   15.6530 H         1 UNL1        0.0000
     43 H          16.8456   -0.2061   16.6993 H         1 UNL1        0.0000
     44 H          14.9331   -1.4779   13.7630 H         1 UNL1        0.0000
     45 H          14.6136   -0.9703   15.4123 H         1 UNL1        0.0000
     46 H          15.4392   -3.4631   14.5836 H         1 UNL1        0.0000
     47 H          15.4094   -2.8257   16.2372 H         1 UNL1        0.0000
     48 H          18.4641    0.5955   13.3083 H         1 UNL1        0.0000
     49 H          18.4057    3.1872   14.4973 H         1 UNL1        0.0000
     50 H          16.9241    3.1070   14.7920 H         1 UNL1        0.0000
     51 H          18.2922    3.0198   11.9749 H         1 UNL1        0.0000
     52 H          16.7859    2.9098   11.8329 H         1 UNL1        0.0000
     53 H          14.7182   -7.1923   15.2521 H         1 UNL1        0.0000
     54 H          14.8117   -7.7465   12.9078 H         1 UNL1        0.0000
     55 H          13.6176   -9.1256    8.6632 H         1 UNL1        0.0000
@<TRIPOS>BOND
     1    1   18 1
     2    1   21 1
     3    1   17 am
     4    2   19 1
     5    2   20 1
     6    2   22 am
     7    3    4 1
     8    3   12 2
     9    4    5 am
    10    4   55 1
    11    5   29 2
    12    5    6 1
    13    6    7 ar
    14    6   11 ar
    15    7    8 ar
    16    7   33 1
    17    8   34 1
    18    8    9 ar
    19    9   10 ar
    20    9   35 1
    21   10   11 ar
    22   10   36 1
    23   11   12 1
    24   12   13 1
    25   13   37 1
    26   13   38 1
    27   13   14 1
    28   14   15 ar
    29   14   28 ar
    30   15   39 1
    31   15   16 ar
    32   16   26 ar
    33   16   17 1
    34   17   31 2
    35   18   19 1
    36   18   40 1
    37   18   41 1
    38   19   42 1
    39   19   43 1
    40   20   21 1
    41   20   45 1
    42   20   44 1
    43   21   46 1
    44   21   47 1
    45   22   30 2
    46   22   23 1
    47   23   25 1
    48   23   24 1
    49   23   48 1
    50   24   25 1
    51   24   49 1
    52   24   50 1
    53   25   51 1
    54   25   52 1
    55   26   27 ar
    56   26   32 1
    57   27   28 ar
    58   27   53 1
    59   28   54 1
@<TRIPOS>SUBSTRUCTURE
1 UNL1 1
@<TRIPOS>COMMENT
Olaparib
PLANTSproteinTorsions
70
3 131.6889
48 26.2850
123 54.3479
171 343.3978
348 73.8813
606 14.4433
632 197.6693
655 292.3281
678 24.6323
700 339.0331
773 139.0957
807 146.6736
891 146.4092
933 186.3854
999 140.2076
1020 17.7588
1361 230.8846
1371 33.9972
1544 166.9605
1649 243.7853
1689 84.5088
1736 175.3908
1771 89.4209
2012 4.0410
2070 332.7690
2082 216.7314
2147 287.4208
2300 113.9730
2527 182.3954
2551 85.4093
2605 295.4254
2653 144.6265
2739 20.3789
2807 244.5872
2841 94.4440
2875 24.1089
2885 25.2966
2915 266.6681
3074 142.7818
3130 29.8983
3421 72.2574
3586 11.7097
3784 279.7970
3818 156.7201
3881 331.1581
3933 37.9555
4033 109.8702
4046 163.3696
4094 163.2333
4145 31.9154
4208 129.3192
4235 164.9890
4332 145.0502
4568 259.7541
4685 318.3440
4749 74.3029
4805 232.6935
4858 58.2353
4871 230.9411
4945 188.0220
4999 70.2196
5010 312.0884
5106 6.2953
5130 147.3058
5249 223.1627
5258 171.6828
5318 120.9947
5369 244.7884
5589 35.9870
5645 243.9343
PLANTSmolcadARTstart hb
PLANTSmolcadARTstart HB
LINES
PLANTSmolcadARTstart HBCH
LINES
PLANTSmolcadARTstart HB-CHO
LINES
PLANTSmolcadARTend
PLANTSmolcadARTstart HB_WATER
LINES
PLANTSmolcadARTend

PLANTSmolcadARTend

