@<TRIPOS>MOLECULE
Olaparib_entry_00001_conf_86
55 59 1
SMALL
NO_CHARGES


@<TRIPOS>ATOM
      1 N          19.7188   12.9303   13.5886 N.am      1 UNL1        0.0000
      2 N          17.5710   14.0764   14.4951 N.am      1 UNL1        0.0000
      3 N          21.3183    9.6335   19.5103 N.2       1 UNL1        0.0000
      4 N          21.6573    9.9251   20.7427 N.am      1 UNL1        0.0000
      5 C          22.8666    9.6575   21.2553 C.2       1 UNL1        0.0000
      6 C          23.8067    9.0445   20.4527 C.ar      1 UNL1        0.0000
      7 C          25.0739    8.7253   20.9419 C.ar      1 UNL1        0.0000
      8 C          25.9898    8.0937   20.1284 C.ar      1 UNL1        0.0000
      9 C          25.5880    7.8043   18.8416 C.ar      1 UNL1        0.0000
     10 C          24.3339    8.1148   18.3430 C.ar      1 UNL1        0.0000
     11 C          23.4359    8.7421   19.1554 C.ar      1 UNL1        0.0000
     12 C          22.1947    9.0260   18.6524 C.2       1 UNL1        0.0000
     13 C          21.7157    8.8171   17.2922 C.3       1 UNL1        0.0000
     14 C          22.0606    9.9818   16.4309 C.ar      1 UNL1        0.0000
     15 C          21.1265   10.2892   15.4255 C.ar      1 UNL1        0.0000
     16 C          21.3614   11.3412   14.5729 C.ar      1 UNL1        0.0000
     17 C          20.3991   11.6874   13.5027 C.2       1 UNL1        0.0000
     18 C          18.7871   13.3013   12.5731 C.3       1 UNL1        0.0000
     19 C          17.7260   14.2570   13.0751 C.3       1 UNL1        0.0000
     20 C          18.7379   14.3697   15.3343 C.3       1 UNL1        0.0000
     21 C          19.9899   13.8017   14.7169 C.3       1 UNL1        0.0000
     22 C          16.3734   13.6415   15.0703 C.2       1 UNL1        0.0000
     23 C          15.1334   13.2971   14.3698 C.3       1 UNL1        0.0000
     24 C          13.8778   13.2684   15.2117 C.3       1 UNL1        0.0000
     25 C          14.4190   12.0255   14.6570 C.3       1 UNL1        0.0000
     26 C          22.4824   12.1337   14.6439 C.ar      1 UNL1        0.0000
     27 C          23.3961   11.8319   15.6284 C.ar      1 UNL1        0.0000
     28 C          23.1601   10.7586   16.4993 C.ar      1 UNL1        0.0000
     29 O          23.2107    9.9305   22.4338 O.2       1 UNL1        0.0000
     30 O          16.3354   13.5239   16.3470 O.2       1 UNL1        0.0000
     31 O          20.1720   10.9241   12.5360 O.2       1 UNL1        0.0000
     32 F          22.6704   13.1674   13.7727 F         1 UNL1        0.0000
     33 H          25.3262    8.9631   21.9140 H         1 UNL1        0.0000
     34 H          26.9323    7.8483   20.4671 H         1 UNL1        0.0000
     35 H          26.2580    7.3304   18.2165 H         1 UNL1        0.0000
     36 H          24.0819    7.8757   17.3711 H         1 UNL1        0.0000
     37 H          20.6529    8.6933   17.3081 H         1 UNL1        0.0000
     38 H          22.1846    7.9425   16.8915 H         1 UNL1        0.0000
     39 H          20.2674    9.7262   15.3280 H         1 UNL1        0.0000
     40 H          18.3072   12.4167   12.2090 H         1 UNL1        0.0000
     41 H          19.3335   13.8016   11.8003 H         1 UNL1        0.0000
     42 H          16.7981   14.0542   12.5832 H         1 UNL1        0.0000
     43 H          18.0186   15.2652   12.8670 H         1 UNL1        0.0000
     44 H          18.5949   13.9353   16.3015 H         1 UNL1        0.0000
     45 H          18.8462   15.4309   15.4185 H         1 UNL1        0.0000
     46 H          20.5140   13.2402   15.4621 H         1 UNL1        0.0000
     47 H          20.5704   14.6233   14.3549 H         1 UNL1        0.0000
     48 H          15.4726   13.7653   13.4698 H         1 UNL1        0.0000
     49 H          12.9655   13.6741   14.8262 H         1 UNL1        0.0000
     50 H          13.6149   13.6100   16.1910 H         1 UNL1        0.0000
     51 H          13.8941   11.5222   13.8720 H         1 UNL1        0.0000
     52 H          14.7073   11.0849   15.0756 H         1 UNL1        0.0000
     53 H          24.2552   12.3965   15.7252 H         1 UNL1        0.0000
     54 H          23.8614   10.5535   17.2285 H         1 UNL1        0.0000
     55 H          20.9905   10.3630   21.3201 H         1 UNL1        0.0000
@<TRIPOS>BOND
     1    1   18 1
     2    1   21 1
     3    1   17 am
     4    2   19 1
     5    2   20 1
     6    2   22 am
     7    3    4 1
     8    3   12 2
     9    4    5 am
    10    4   55 1
    11    5   29 2
    12    5    6 1
    13    6    7 ar
    14    6   11 ar
    15    7    8 ar
    16    7   33 1
    17    8   34 1
    18    8    9 ar
    19    9   10 ar
    20    9   35 1
    21   10   11 ar
    22   10   36 1
    23   11   12 1
    24   12   13 1
    25   13   37 1
    26   13   38 1
    27   13   14 1
    28   14   15 ar
    29   14   28 ar
    30   15   39 1
    31   15   16 ar
    32   16   26 ar
    33   16   17 1
    34   17   31 2
    35   18   19 1
    36   18   40 1
    37   18   41 1
    38   19   42 1
    39   19   43 1
    40   20   21 1
    41   20   45 1
    42   20   44 1
    43   21   46 1
    44   21   47 1
    45   22   30 2
    46   22   23 1
    47   23   25 1
    48   23   24 1
    49   23   48 1
    50   24   25 1
    51   24   49 1
    52   24   50 1
    53   25   51 1
    54   25   52 1
    55   26   27 ar
    56   26   32 1
    57   27   28 ar
    58   27   53 1
    59   28   54 1
@<TRIPOS>SUBSTRUCTURE
1 UNL1 1
@<TRIPOS>COMMENT
Olaparib
PLANTSproteinTorsions
70
3 341.8443
48 234.9241
123 198.4435
171 131.3813
348 274.8949
606 3.6451
632 344.9068
655 211.5178
678 37.5616
700 85.4891
773 138.7230
807 239.2235
891 144.3688
933 69.8569
999 187.9397
1020 123.9392
1361 154.5042
1371 218.4651
1544 3.6038
1649 90.2284
1689 113.8315
1736 87.0584
1771 185.9945
2012 61.5880
2070 80.2464
2082 345.1368
2147 235.8661
2300 154.5348
2527 124.6313
2551 240.8862
2605 176.2689
2653 63.3758
2739 223.3304
2807 118.4574
2841 224.0881
2875 147.5316
2885 354.6602
2915 197.0656
3074 275.3260
3130 68.1097
3421 201.5836
3586 253.4691
3784 150.4987
3818 253.3018
3881 263.0583
3933 104.9639
4033 338.2759
4046 253.2379
4094 238.9176
4145 334.0742
4208 167.4162
4235 147.2091
4332 242.2092
4568 248.2151
4685 206.2270
4749 21.7215
4805 296.9730
4858 183.8939
4871 290.1433
4945 30.6445
4999 139.6108
5010 42.2775
5106 121.9766
5130 224.1954
5249 69.6449
5258 216.7607
5318 319.2270
5369 79.8928
5589 336.5396
5645 222.0374
PLANTSmolcadARTstart hb
PLANTSmolcadARTstart HB
LINES
21.3183 9.63352 19.5103 19.975 10.924 19.162 0 255 0 5
PLANTSmolcadARTstart HBCH
LINES
PLANTSmolcadARTstart HB-CHO
LINES
PLANTSmolcadARTend
PLANTSmolcadARTstart HB_WATER
LINES
PLANTSmolcadARTend

PLANTSmolcadARTend

