@<TRIPOS>MOLECULE
Olaparib_entry_00001_conf_88
55 59 1
SMALL
NO_CHARGES


@<TRIPOS>ATOM
      1 N         -10.8225   -4.0239   19.8705 N.am      1 UNL1        0.0000
      2 N         -11.1984   -6.5750   19.5559 N.am      1 UNL1        0.0000
      3 N          -9.5409    0.6060   25.0980 N.2       1 UNL1        0.0000
      4 N          -8.9438    1.6861   25.5400 N.am      1 UNL1        0.0000
      5 C          -9.5141    2.8991   25.5264 C.2       1 UNL1        0.0000
      6 C         -10.7926    3.0256   25.0235 C.ar      1 UNL1        0.0000
      7 C         -11.4253    4.2681   24.9675 C.ar      1 UNL1        0.0000
      8 C         -12.6947    4.3740   24.4413 C.ar      1 UNL1        0.0000
      9 C         -13.2819    3.2124   23.9862 C.ar      1 UNL1        0.0000
     10 C         -12.6658    1.9731   24.0352 C.ar      1 UNL1        0.0000
     11 C         -11.4106    1.8788   24.5602 C.ar      1 UNL1        0.0000
     12 C         -10.8091    0.6492   24.5851 C.2       1 UNL1        0.0000
     13 C         -11.3821   -0.6309   24.1900 C.3       1 UNL1        0.0000
     14 C         -10.3411   -1.5058   23.5832 C.ar      1 UNL1        0.0000
     15 C         -10.5492   -1.8494   22.2355 C.ar      1 UNL1        0.0000
     16 C          -9.6479   -2.6619   21.5903 C.ar      1 UNL1        0.0000
     17 C          -9.8409   -3.0441   20.1733 C.2       1 UNL1        0.0000
     18 C         -11.0408   -4.4149   18.5153 C.3       1 UNL1        0.0000
     19 C         -11.5904   -5.8200   18.3943 C.3       1 UNL1        0.0000
     20 C         -11.7001   -6.1085   20.8531 C.3       1 UNL1        0.0000
     21 C         -11.5873   -4.6092   20.9559 C.3       1 UNL1        0.0000
     22 C         -10.3770   -7.7034   19.4759 C.2       1 UNL1        0.0000
     23 C          -9.7888   -8.2810   18.2645 C.3       1 UNL1        0.0000
     24 C          -9.2398   -7.2978   17.2556 C.3       1 UNL1        0.0000
     25 C         -10.4289   -8.0911   16.9364 C.3       1 UNL1        0.0000
     26 C          -8.5248   -3.1731   22.1964 C.ar      1 UNL1        0.0000
     27 C          -8.3222   -2.8361   23.5157 C.ar      1 UNL1        0.0000
     28 C          -9.2404   -2.0081   24.1772 C.ar      1 UNL1        0.0000
     29 O          -8.9582    3.9460   25.9469 O.2       1 UNL1        0.0000
     30 O         -10.0955   -8.3125   20.5691 O.2       1 UNL1        0.0000
     31 O          -9.1711   -2.5333   19.2464 O.2       1 UNL1        0.0000
     32 F          -7.6596   -3.9770   21.5124 F         1 UNL1        0.0000
     33 H         -10.9426    5.1089   25.3212 H         1 UNL1        0.0000
     34 H         -13.1827    5.2809   24.3897 H         1 UNL1        0.0000
     35 H         -14.2314    3.2698   23.5872 H         1 UNL1        0.0000
     36 H         -13.1487    1.1328   23.6802 H         1 UNL1        0.0000
     37 H         -12.1609   -0.4628   23.4756 H         1 UNL1        0.0000
     38 H         -11.7752   -1.1163   25.0591 H         1 UNL1        0.0000
     39 H         -11.3764   -1.4927   21.7324 H         1 UNL1        0.0000
     40 H         -10.1096   -4.3645   17.9901 H         1 UNL1        0.0000
     41 H         -11.7663   -3.7467   18.0991 H         1 UNL1        0.0000
     42 H         -11.1985   -6.2845   17.5141 H         1 UNL1        0.0000
     43 H         -12.6580   -5.7870   18.3259 H         1 UNL1        0.0000
     44 H         -11.1262   -6.5585   21.6358 H         1 UNL1        0.0000
     45 H         -12.7301   -6.3837   20.9454 H         1 UNL1        0.0000
     46 H         -11.1071   -4.3653   21.8806 H         1 UNL1        0.0000
     47 H         -12.5772   -4.2085   20.9028 H         1 UNL1        0.0000
     48 H          -9.4447   -9.1400   18.8012 H         1 UNL1        0.0000
     49 H          -8.3126   -7.5001   16.7609 H         1 UNL1        0.0000
     50 H          -9.0055   -6.2538   17.2660 H         1 UNL1        0.0000
     51 H         -10.3676   -8.8666   16.2016 H         1 UNL1        0.0000
     52 H         -11.4195   -7.8534   16.6118 H         1 UNL1        0.0000
     53 H          -7.4936   -3.1933   24.0177 H         1 UNL1        0.0000
     54 H          -9.0649   -1.7711   25.1665 H         1 UNL1        0.0000
     55 H          -8.0312    1.6018   25.9005 H         1 UNL1        0.0000
@<TRIPOS>BOND
     1    1   18 1
     2    1   21 1
     3    1   17 am
     4    2   19 1
     5    2   20 1
     6    2   22 am
     7    3    4 1
     8    3   12 2
     9    4    5 am
    10    4   55 1
    11    5   29 2
    12    5    6 1
    13    6    7 ar
    14    6   11 ar
    15    7    8 ar
    16    7   33 1
    17    8   34 1
    18    8    9 ar
    19    9   10 ar
    20    9   35 1
    21   10   11 ar
    22   10   36 1
    23   11   12 1
    24   12   13 1
    25   13   37 1
    26   13   38 1
    27   13   14 1
    28   14   15 ar
    29   14   28 ar
    30   15   39 1
    31   15   16 ar
    32   16   26 ar
    33   16   17 1
    34   17   31 2
    35   18   19 1
    36   18   40 1
    37   18   41 1
    38   19   42 1
    39   19   43 1
    40   20   21 1
    41   20   45 1
    42   20   44 1
    43   21   46 1
    44   21   47 1
    45   22   30 2
    46   22   23 1
    47   23   25 1
    48   23   24 1
    49   23   48 1
    50   24   25 1
    51   24   49 1
    52   24   50 1
    53   25   51 1
    54   25   52 1
    55   26   27 ar
    56   26   32 1
    57   27   28 ar
    58   27   53 1
    59   28   54 1
@<TRIPOS>SUBSTRUCTURE
1 UNL1 1
@<TRIPOS>COMMENT
Olaparib
PLANTSproteinTorsions
70
3 294.8748
48 41.4090
123 54.8958
171 245.3886
348 9.4407
606 161.7747
632 100.3984
655 70.4817
678 173.9879
700 18.2702
773 206.8492
807 196.2845
891 48.5479
933 119.1149
999 133.9342
1020 261.4239
1361 191.6185
1371 315.2024
1544 104.5965
1649 92.0827
1689 71.2020
1736 109.4666
1771 36.0697
2012 139.6686
2070 27.6236
2082 142.9156
2147 16.4366
2300 62.7399
2527 163.5562
2551 333.0786
2605 47.5906
2653 171.1480
2739 205.4405
2807 207.1692
2841 287.0560
2875 159.2051
2885 253.4953
2915 238.2218
3074 198.3704
3130 298.8416
3421 235.8275
3586 4.4203
3784 143.2969
3818 227.3021
3881 15.0539
3933 311.2154
4033 225.7194
4046 84.9848
4094 250.2507
4145 57.8567
4208 135.9652
4235 213.1557
4332 218.9986
4568 85.9988
4685 203.1664
4749 85.4802
4805 47.2469
4858 46.9586
4871 133.8789
4945 264.9128
4999 346.6758
5010 274.4688
5106 120.2368
5130 18.0242
5249 7.4729
5258 25.8803
5318 26.5617
5369 265.3607
5589 48.5613
5645 248.9447
PLANTSmolcadARTstart hb
PLANTSmolcadARTstart HB
LINES
-8.03118 1.6018 25.9005 -6.425 1.758 25.756 0 255 0 5
-8.95817 3.94599 25.9469 -8.495 5.493 24.699 0 255 0 5
-9.17107 -2.53331 19.2464 -10.687 -1.744 18.108 0 255 0 5
PLANTSmolcadARTstart HBCH
LINES
PLANTSmolcadARTstart HB-CHO
LINES
PLANTSmolcadARTend
PLANTSmolcadARTstart HB_WATER
LINES
PLANTSmolcadARTend

PLANTSmolcadARTend

