@<TRIPOS>MOLECULE
Olaparib_entry_00001_conf_24
55 59 1
SMALL
NO_CHARGES


@<TRIPOS>ATOM
      1 N          15.3236   -4.1592   14.6209 N.am      1 UNL1        0.0000
      2 N          16.0821   -1.7103   14.2014 N.am      1 UNL1        0.0000
      3 N          15.9957   -9.2331   10.0370 N.2       1 UNL1        0.0000
      4 N          16.4386   -9.6111    8.8624 N.am      1 UNL1        0.0000
      5 C          17.1982  -10.7002    8.6789 C.2       1 UNL1        0.0000
      6 C          17.5353  -11.4666    9.7755 C.ar      1 UNL1        0.0000
      7 C          18.3401  -12.5989    9.6435 C.ar      1 UNL1        0.0000
      8 C          18.6818  -13.3372   10.7560 C.ar      1 UNL1        0.0000
      9 C          18.1956  -12.9003   11.9700 C.ar      1 UNL1        0.0000
     10 C          17.3966  -11.7786   12.1157 C.ar      1 UNL1        0.0000
     11 C          17.0621  -11.0564   11.0083 C.ar      1 UNL1        0.0000
     12 C          16.2861   -9.9404   11.1721 C.2       1 UNL1        0.0000
     13 C          15.6782   -9.4511   12.4026 C.3       1 UNL1        0.0000
     14 C          16.4870   -8.3431   12.9817 C.ar      1 UNL1        0.0000
     15 C          15.7786   -7.4322   13.7855 C.ar      1 UNL1        0.0000
     16 C          16.4365   -6.3692   14.3564 C.ar      1 UNL1        0.0000
     17 C          15.7180   -5.3916   15.2046 C.2       1 UNL1        0.0000
     18 C          14.6247   -3.1935   15.4056 C.3       1 UNL1        0.0000
     19 C          14.8300   -1.7785   14.9090 C.3       1 UNL1        0.0000
     20 C          16.2088   -2.5321   12.9929 C.3       1 UNL1        0.0000
     21 C          15.6431   -3.9091   13.2276 C.3       1 UNL1        0.0000
     22 C          17.1429   -0.9061   14.6282 C.2       1 UNL1        0.0000
     23 C          17.1748   -0.0458   15.8140 C.3       1 UNL1        0.0000
     24 C          17.1791    1.4442   15.5570 C.3       1 UNL1        0.0000
     25 C          18.3635    0.7925   16.1205 C.3       1 UNL1        0.0000
     26 C          17.7804   -6.1347   14.1867 C.ar      1 UNL1        0.0000
     27 C          18.4728   -7.0269   13.3996 C.ar      1 UNL1        0.0000
     28 C          17.8044   -8.1120   12.8147 C.ar      1 UNL1        0.0000
     29 O          17.6312  -11.0794    7.5606 O.2       1 UNL1        0.0000
     30 O          18.2124   -0.9077   13.9202 O.2       1 UNL1        0.0000
     31 O          15.4518   -5.6190   16.4072 O.2       1 UNL1        0.0000
     32 F          18.3881   -5.0634   14.7748 F         1 UNL1        0.0000
     33 H          18.6794  -12.8844    8.7117 H         1 UNL1        0.0000
     34 H          19.2747  -14.1778   10.6836 H         1 UNL1        0.0000
     35 H          18.4407  -13.4380   12.8156 H         1 UNL1        0.0000
     36 H          17.0585  -11.4930   13.0482 H         1 UNL1        0.0000
     37 H          15.6207  -10.2520   13.1099 H         1 UNL1        0.0000
     38 H          14.6985   -9.0819   12.1806 H         1 UNL1        0.0000
     39 H          14.7676   -7.5615   13.9461 H         1 UNL1        0.0000
     40 H          14.9729   -3.2562   16.4157 H         1 UNL1        0.0000
     41 H          13.5795   -3.4133   15.3331 H         1 UNL1        0.0000
     42 H          14.8492   -1.1052   15.7400 H         1 UNL1        0.0000
     43 H          14.0281   -1.5037   14.2555 H         1 UNL1        0.0000
     44 H          17.2426   -2.6171   12.7309 H         1 UNL1        0.0000
     45 H          15.6637   -2.0665   12.1986 H         1 UNL1        0.0000
     46 H          16.3633   -4.6334   12.9084 H         1 UNL1        0.0000
     47 H          14.7323   -3.9808   12.6722 H         1 UNL1        0.0000
     48 H          16.6029   -0.7498   16.3811 H         1 UNL1        0.0000
     49 H          16.5850    2.0940   16.1654 H         1 UNL1        0.0000
     50 H          16.9883    2.0665   14.7077 H         1 UNL1        0.0000
     51 H          18.6358    0.9759   17.1390 H         1 UNL1        0.0000
     52 H          19.3959    0.7538   15.8452 H         1 UNL1        0.0000
     53 H          19.4847   -6.8967   13.2402 H         1 UNL1        0.0000
     54 H          18.3471   -8.7660   12.2287 H         1 UNL1        0.0000
     55 H          16.2008   -9.0682    8.0759 H         1 UNL1        0.0000
@<TRIPOS>BOND
     1    1   18 1
     2    1   21 1
     3    1   17 am
     4    2   19 1
     5    2   20 1
     6    2   22 am
     7    3    4 1
     8    3   12 2
     9    4    5 am
    10    4   55 1
    11    5   29 2
    12    5    6 1
    13    6    7 ar
    14    6   11 ar
    15    7    8 ar
    16    7   33 1
    17    8   34 1
    18    8    9 ar
    19    9   10 ar
    20    9   35 1
    21   10   11 ar
    22   10   36 1
    23   11   12 1
    24   12   13 1
    25   13   37 1
    26   13   38 1
    27   13   14 1
    28   14   15 ar
    29   14   28 ar
    30   15   39 1
    31   15   16 ar
    32   16   26 ar
    33   16   17 1
    34   17   31 2
    35   18   19 1
    36   18   40 1
    37   18   41 1
    38   19   42 1
    39   19   43 1
    40   20   21 1
    41   20   45 1
    42   20   44 1
    43   21   46 1
    44   21   47 1
    45   22   30 2
    46   22   23 1
    47   23   25 1
    48   23   24 1
    49   23   48 1
    50   24   25 1
    51   24   49 1
    52   24   50 1
    53   25   51 1
    54   25   52 1
    55   26   27 ar
    56   26   32 1
    57   27   28 ar
    58   27   53 1
    59   28   54 1
@<TRIPOS>SUBSTRUCTURE
1 UNL1 1
@<TRIPOS>COMMENT
Olaparib
PLANTSproteinTorsions
70
3 228.0941
48 46.7069
123 17.7254
171 106.8453
348 91.0175
606 349.9285
632 95.7412
655 346.6935
678 10.4925
700 31.9691
773 187.3873
807 142.8512
891 226.3572
933 74.1861
999 121.5015
1020 260.3627
1361 226.1155
1371 328.7409
1544 214.5193
1649 36.9857
1689 123.9928
1736 238.5623
1771 143.5825
2012 276.8725
2070 137.1239
2082 350.3849
2147 352.0520
2300 132.4651
2527 272.9676
2551 163.1061
2605 110.0634
2653 38.7237
2739 94.9415
2807 217.9792
2841 352.0730
2875 6.9575
2885 291.1389
2915 165.0913
3074 96.6240
3130 100.3908
3421 131.2825
3586 52.9664
3784 131.1473
3818 80.8039
3881 9.1059
3933 144.0536
4033 135.5643
4046 207.8102
4094 106.8101
4145 212.5358
4208 71.3344
4235 78.2667
4332 211.1687
4568 197.1988
4685 240.3020
4749 179.0535
4805 131.7469
4858 306.4030
4871 65.2300
4945 295.2897
4999 71.7455
5010 294.7436
5106 179.9438
5130 14.5180
5249 92.7711
5258 187.0085
5318 38.9998
5369 208.7016
5589 65.0863
5645 154.8143
PLANTSmolcadARTstart hb
PLANTSmolcadARTstart HB
LINES
15.4518 -5.61905 16.4072 14.939 -7.462 16.94 0 255 0 5
PLANTSmolcadARTstart HBCH
LINES
PLANTSmolcadARTstart HB-CHO
LINES
PLANTSmolcadARTend
PLANTSmolcadARTstart HB_WATER
LINES
PLANTSmolcadARTend

PLANTSmolcadARTend

