@<TRIPOS>MOLECULE
Olaparib_entry_00001_conf_95
55 59 1
SMALL
NO_CHARGES


@<TRIPOS>ATOM
      1 N          10.3329    8.9719    4.7172 N.am      1 UNL1        0.0000
      2 N          10.2638   10.8110    2.8839 N.am      1 UNL1        0.0000
      3 N          14.7608   11.7118    8.4222 N.2       1 UNL1        0.0000
      4 N          15.1462   12.4326    9.4472 N.am      1 UNL1        0.0000
      5 C          16.4138   12.4749    9.8810 C.2       1 UNL1        0.0000
      6 C          17.3662   11.7253    9.2217 C.ar      1 UNL1        0.0000
      7 C          18.6962   11.7174    9.6438 C.ar      1 UNL1        0.0000
      8 C          19.6263   10.9443    8.9829 C.ar      1 UNL1        0.0000
      9 C          19.1747   10.2010    7.9130 C.ar      1 UNL1        0.0000
     10 C          17.8581   10.1989    7.4835 C.ar      1 UNL1        0.0000
     11 C          16.9463   10.9695    8.1427 C.ar      1 UNL1        0.0000
     12 C          15.6455   10.9424    7.7162 C.2       1 UNL1        0.0000
     13 C          15.1018   10.2422    6.5599 C.3       1 UNL1        0.0000
     14 C          14.0564    9.2689    6.9809 C.ar      1 UNL1        0.0000
     15 C          12.7929    9.4433    6.3887 C.ar      1 UNL1        0.0000
     16 C          11.7598    8.6003    6.7218 C.ar      1 UNL1        0.0000
     17 C          10.4176    8.7604    6.1183 C.2       1 UNL1        0.0000
     18 C           9.0560    9.1258    4.0984 C.3       1 UNL1        0.0000
     19 C           9.1192    9.9396    2.8237 C.3       1 UNL1        0.0000
     20 C          11.5823   10.1729    2.9628 C.3       1 UNL1        0.0000
     21 C          11.5577    9.0266    3.9409 C.3       1 UNL1        0.0000
     22 C          10.1483   12.2041    2.8702 C.2       1 UNL1        0.0000
     23 C           8.9100   12.9852    2.8093 C.3       1 UNL1        0.0000
     24 C           7.9723   12.6607    1.6685 C.3       1 UNL1        0.0000
     25 C           8.6662   13.9500    1.7051 C.3       1 UNL1        0.0000
     26 C          11.8881    7.5689    7.6215 C.ar      1 UNL1        0.0000
     27 C          13.1254    7.3991    8.2006 C.ar      1 UNL1        0.0000
     28 C          14.1814    8.2580    7.8638 C.ar      1 UNL1        0.0000
     29 O          16.8028   13.1608   10.8609 O.2       1 UNL1        0.0000
     30 O          11.2307   12.8908    2.9160 O.2       1 UNL1        0.0000
     31 O           9.3685    8.7145    6.8010 O.2       1 UNL1        0.0000
     32 F          10.8309    6.7589    7.9197 F         1 UNL1        0.0000
     33 H          18.9842   12.2917   10.4514 H         1 UNL1        0.0000
     34 H          20.6147   10.9224    9.2758 H         1 UNL1        0.0000
     35 H          19.8545    9.6142    7.4052 H         1 UNL1        0.0000
     36 H          17.5706    9.6235    6.6763 H         1 UNL1        0.0000
     37 H          15.8909    9.7181    6.0622 H         1 UNL1        0.0000
     38 H          14.6587   10.9583    5.8994 H         1 UNL1        0.0000
     39 H          12.6417   10.2022    5.7063 H         1 UNL1        0.0000
     40 H           8.3990    9.6165    4.7863 H         1 UNL1        0.0000
     41 H           8.7016    8.1489    3.8413 H         1 UNL1        0.0000
     42 H           8.2278   10.5226    2.7251 H         1 UNL1        0.0000
     43 H           9.2041    9.2862    1.9803 H         1 UNL1        0.0000
     44 H          12.3043   10.8938    3.2846 H         1 UNL1        0.0000
     45 H          11.8429    9.7954    1.9961 H         1 UNL1        0.0000
     46 H          12.3826    9.1340    4.6141 H         1 UNL1        0.0000
     47 H          11.6194    8.1211    3.3757 H         1 UNL1        0.0000
     48 H           8.8642   13.0578    3.8756 H         1 UNL1        0.0000
     49 H           6.9168   12.6158    1.8395 H         1 UNL1        0.0000
     50 H           7.8904   11.8639    0.9591 H         1 UNL1        0.0000
     51 H           8.1121   14.8455    1.8949 H         1 UNL1        0.0000
     52 H           9.2967   14.4778    1.0216 H         1 UNL1        0.0000
     53 H          13.2755    6.6388    8.8829 H         1 UNL1        0.0000
     54 H          15.0989    8.1091    8.3128 H         1 UNL1        0.0000
     55 H          14.4708   12.9699    9.9216 H         1 UNL1        0.0000
@<TRIPOS>BOND
     1    1   18 1
     2    1   21 1
     3    1   17 am
     4    2   19 1
     5    2   20 1
     6    2   22 am
     7    3    4 1
     8    3   12 2
     9    4    5 am
    10    4   55 1
    11    5   29 2
    12    5    6 1
    13    6    7 ar
    14    6   11 ar
    15    7    8 ar
    16    7   33 1
    17    8   34 1
    18    8    9 ar
    19    9   10 ar
    20    9   35 1
    21   10   11 ar
    22   10   36 1
    23   11   12 1
    24   12   13 1
    25   13   37 1
    26   13   38 1
    27   13   14 1
    28   14   15 ar
    29   14   28 ar
    30   15   39 1
    31   15   16 ar
    32   16   26 ar
    33   16   17 1
    34   17   31 2
    35   18   19 1
    36   18   40 1
    37   18   41 1
    38   19   42 1
    39   19   43 1
    40   20   21 1
    41   20   45 1
    42   20   44 1
    43   21   46 1
    44   21   47 1
    45   22   30 2
    46   22   23 1
    47   23   25 1
    48   23   24 1
    49   23   48 1
    50   24   25 1
    51   24   49 1
    52   24   50 1
    53   25   51 1
    54   25   52 1
    55   26   27 ar
    56   26   32 1
    57   27   28 ar
    58   27   53 1
    59   28   54 1
@<TRIPOS>SUBSTRUCTURE
1 UNL1 1
@<TRIPOS>COMMENT
Olaparib
PLANTSproteinTorsions
70
3 51.7281
48 253.2389
123 89.4549
171 319.0439
348 50.7652
606 102.0448
632 313.3449
655 184.3240
678 88.1324
700 155.5492
773 58.2541
807 49.8639
891 267.6191
933 242.9100
999 241.5750
1020 177.4545
1361 115.2284
1371 242.8173
1544 261.9694
1649 122.5422
1689 141.6051
1736 3.1484
1771 135.1567
2012 94.0358
2070 260.2227
2082 312.7677
2147 134.9619
2300 155.7887
2527 90.5623
2551 13.9864
2605 112.3336
2653 71.3063
2739 66.0333
2807 169.7254
2841 94.4936
2875 106.3265
2885 327.7663
2915 85.5251
3074 223.4245
3130 229.4644
3421 295.4344
3586 46.1573
3784 127.7035
3818 140.5563
3881 205.2422
3933 262.2443
4033 316.9469
4046 250.6619
4094 200.5783
4145 128.9351
4208 236.6834
4235 107.6853
4332 190.4867
4568 46.2379
4685 150.3430
4749 116.7545
4805 280.9422
4858 141.0263
4871 95.0594
4945 154.7419
4999 204.4672
5010 234.8584
5106 207.8776
5130 62.6977
5249 235.7564
5258 122.4415
5318 73.1604
5369 126.2032
5589 140.1922
5645 69.3495
PLANTSmolcadARTstart hb
PLANTSmolcadARTstart HB
LINES
14.4708 12.9699 9.92156 13.279 13.105 11.444 0 255 0 5
PLANTSmolcadARTstart HBCH
LINES
PLANTSmolcadARTstart HB-CHO
LINES
PLANTSmolcadARTend
PLANTSmolcadARTstart HB_WATER
LINES
PLANTSmolcadARTend

PLANTSmolcadARTend

