@<TRIPOS>MOLECULE
Olaparib_entry_00001_conf_21
55 59 1
SMALL
NO_CHARGES


@<TRIPOS>ATOM
      1 N          16.7787   -3.4490   15.0427 N.am      1 UNL1        0.0000
      2 N          16.5715   -1.1863   13.7834 N.am      1 UNL1        0.0000
      3 N          18.1535  -10.1047   11.9416 N.2       1 UNL1        0.0000
      4 N          17.9845  -11.3804   11.6913 N.am      1 UNL1        0.0000
      5 C          17.6182  -11.8519   10.4912 C.2       1 UNL1        0.0000
      6 C          17.4061  -10.9565    9.4630 C.ar      1 UNL1        0.0000
      7 C          17.0043  -11.3919    8.1997 C.ar      1 UNL1        0.0000
      8 C          16.7776  -10.4777    7.1935 C.ar      1 UNL1        0.0000
      9 C          16.9652   -9.1473    7.5036 C.ar      1 UNL1        0.0000
     10 C          17.3633   -8.7011    8.7527 C.ar      1 UNL1        0.0000
     11 C          17.5874   -9.6142    9.7406 C.ar      1 UNL1        0.0000
     12 C          17.9634   -9.1551   10.9745 C.2       1 UNL1        0.0000
     13 C          18.2482   -7.7804   11.3645 C.3       1 UNL1        0.0000
     14 C          17.3639   -7.3604   12.4866 C.ar      1 UNL1        0.0000
     15 C          17.8180   -6.2609   13.2366 C.ar      1 UNL1        0.0000
     16 C          17.0754   -5.8052   14.2995 C.ar      1 UNL1        0.0000
     17 C          17.5284   -4.6525   15.1103 C.2       1 UNL1        0.0000
     18 C          17.1815   -2.3175   15.8137 C.3       1 UNL1        0.0000
     19 C          16.7371   -1.0061   15.2023 C.3       1 UNL1        0.0000
     20 C          15.5490   -2.1444   13.3494 C.3       1 UNL1        0.0000
     21 C          15.6102   -3.3979   14.1839 C.3       1 UNL1        0.0000
     22 C          17.3392   -0.4921   12.8438 C.2       1 UNL1        0.0000
     23 C          18.4008    0.4799   13.1182 C.3       1 UNL1        0.0000
     24 C          18.0042    1.6872   13.9375 C.3       1 UNL1        0.0000
     25 C          18.3635    1.8429   12.5262 C.3       1 UNL1        0.0000
     26 C          15.8839   -6.3721   14.6853 C.ar      1 UNL1        0.0000
     27 C          15.4404   -7.4483   13.9504 C.ar      1 UNL1        0.0000
     28 C          16.1960   -7.9164   12.8659 C.ar      1 UNL1        0.0000
     29 O          17.4524  -13.0713   10.2316 O.2       1 UNL1        0.0000
     30 O          17.1053   -0.7162   11.6027 O.2       1 UNL1        0.0000
     31 O          18.5413   -4.7093   15.8449 O.2       1 UNL1        0.0000
     32 F          15.1833   -5.8828   15.7496 F         1 UNL1        0.0000
     33 H          16.8773  -12.3998    8.0180 H         1 UNL1        0.0000
     34 H          16.4807  -10.7752    6.2519 H         1 UNL1        0.0000
     35 H          16.7996   -8.4464    6.7651 H         1 UNL1        0.0000
     36 H          17.4890   -7.6928    8.9340 H         1 UNL1        0.0000
     37 H          18.0844   -7.1353   10.5267 H         1 UNL1        0.0000
     38 H          19.2666   -7.7170   11.6873 H         1 UNL1        0.0000
     39 H          18.7063   -5.7978   12.9899 H         1 UNL1        0.0000
     40 H          18.2492   -2.3165   15.8884 H         1 UNL1        0.0000
     41 H          16.7178   -2.3998   16.7751 H         1 UNL1        0.0000
     42 H          17.4765   -0.2552   15.3858 H         1 UNL1        0.0000
     43 H          15.8103   -0.6978   15.6398 H         1 UNL1        0.0000
     44 H          15.7153   -2.3972   12.3232 H         1 UNL1        0.0000
     45 H          14.5836   -1.6983   13.4680 H         1 UNL1        0.0000
     46 H          15.6322   -4.2438   13.5288 H         1 UNL1        0.0000
     47 H          14.7477   -3.4052   14.8157 H         1 UNL1        0.0000
     48 H          19.1429   -0.2899   13.1507 H         1 UNL1        0.0000
     49 H          18.6586    2.0549   14.7002 H         1 UNL1        0.0000
     50 H          17.1582    1.9501   14.5377 H         1 UNL1        0.0000
     51 H          19.2776    2.3327   12.2624 H         1 UNL1        0.0000
     52 H          17.8796    2.2751   11.6762 H         1 UNL1        0.0000
     53 H          14.5509   -7.9104   14.1981 H         1 UNL1        0.0000
     54 H          15.8410   -8.7252   12.3318 H         1 UNL1        0.0000
     55 H          18.1348  -12.0242   12.4213 H         1 UNL1        0.0000
@<TRIPOS>BOND
     1    1   18 1
     2    1   21 1
     3    1   17 am
     4    2   19 1
     5    2   20 1
     6    2   22 am
     7    3    4 1
     8    3   12 2
     9    4    5 am
    10    4   55 1
    11    5   29 2
    12    5    6 1
    13    6    7 ar
    14    6   11 ar
    15    7    8 ar
    16    7   33 1
    17    8   34 1
    18    8    9 ar
    19    9   10 ar
    20    9   35 1
    21   10   11 ar
    22   10   36 1
    23   11   12 1
    24   12   13 1
    25   13   37 1
    26   13   38 1
    27   13   14 1
    28   14   15 ar
    29   14   28 ar
    30   15   39 1
    31   15   16 ar
    32   16   26 ar
    33   16   17 1
    34   17   31 2
    35   18   19 1
    36   18   40 1
    37   18   41 1
    38   19   42 1
    39   19   43 1
    40   20   21 1
    41   20   45 1
    42   20   44 1
    43   21   46 1
    44   21   47 1
    45   22   30 2
    46   22   23 1
    47   23   25 1
    48   23   24 1
    49   23   48 1
    50   24   25 1
    51   24   49 1
    52   24   50 1
    53   25   51 1
    54   25   52 1
    55   26   27 ar
    56   26   32 1
    57   27   28 ar
    58   27   53 1
    59   28   54 1
@<TRIPOS>SUBSTRUCTURE
1 UNL1 1
@<TRIPOS>COMMENT
Olaparib
PLANTSproteinTorsions
70
3 40.4265
48 197.4963
123 72.5305
171 63.9610
348 161.5976
606 340.2135
632 325.4278
655 144.7759
678 53.7716
700 338.6376
773 267.5887
807 98.8377
891 206.3477
933 227.3010
999 153.2650
1020 229.6068
1361 341.4138
1371 350.9788
1544 175.5678
1649 65.7509
1689 38.5474
1736 95.9669
1771 348.3018
2012 237.7302
2070 193.7311
2082 106.5450
2147 235.3695
2300 157.0209
2527 100.0880
2551 356.7679
2605 138.4818
2653 325.3138
2739 10.3593
2807 207.8772
2841 224.8037
2875 75.9077
2885 139.4557
2915 92.3782
3074 112.7535
3130 92.3838
3421 82.1392
3586 98.2442
3784 269.1568
3818 23.1050
3881 96.1614
3933 318.7776
4033 111.0035
4046 209.3017
4094 311.6875
4145 208.2828
4208 113.9071
4235 247.1173
4332 257.1947
4568 313.9211
4685 285.2972
4749 215.9822
4805 276.9894
4858 137.4015
4871 197.9249
4945 208.0045
4999 191.9579
5010 189.6919
5106 264.9966
5130 258.2521
5249 224.0189
5258 244.2806
5318 262.7350
5369 106.3453
5589 2.2457
5645 205.3412
PLANTSmolcadARTstart hb
PLANTSmolcadARTstart HB
LINES
PLANTSmolcadARTstart HBCH
LINES
PLANTSmolcadARTstart HB-CHO
LINES
PLANTSmolcadARTend
PLANTSmolcadARTstart HB_WATER
LINES
PLANTSmolcadARTend

PLANTSmolcadARTend

