@<TRIPOS>MOLECULE
Olaparib_entry_00001_conf_07
55 59 1
SMALL
NO_CHARGES


@<TRIPOS>ATOM
      1 N          16.9075   -1.7588   14.3854 N.am      1 UNL1        0.0000
      2 N          18.8028   -0.8545   15.9146 N.am      1 UNL1        0.0000
      3 N          17.3014   -8.6152   12.9557 N.2       1 UNL1        0.0000
      4 N          17.3279   -9.9225   13.0509 N.am      1 UNL1        0.0000
      5 C          16.7546  -10.7366   12.1535 C.2       1 UNL1        0.0000
      6 C          16.1019  -10.1789   11.0733 C.ar      1 UNL1        0.0000
      7 C          15.4710  -10.9797   10.1205 C.ar      1 UNL1        0.0000
      8 C          14.8067  -10.4000    9.0612 C.ar      1 UNL1        0.0000
      9 C          14.8029   -9.0223    9.0040 C.ar      1 UNL1        0.0000
     10 C          15.4242   -8.2154    9.9425 C.ar      1 UNL1        0.0000
     11 C          16.0811   -8.7991   10.9854 C.ar      1 UNL1        0.0000
     12 C          16.6749   -7.9867   11.9137 C.2       1 UNL1        0.0000
     13 C          16.7755   -6.5333   11.8911 C.3       1 UNL1        0.0000
     14 C          16.1727   -5.9475   13.1202 C.ar      1 UNL1        0.0000
     15 C          16.1832   -4.5429   13.1896 C.ar      1 UNL1        0.0000
     16 C          15.6586   -3.9090   14.2903 C.ar      1 UNL1        0.0000
     17 C          15.6580   -2.4324   14.3943 C.2       1 UNL1        0.0000
     18 C          16.9472   -0.3352   14.4790 C.3       1 UNL1        0.0000
     19 C          18.2395    0.1746   15.0799 C.3       1 UNL1        0.0000
     20 C          19.1879   -2.1079   15.2569 C.3       1 UNL1        0.0000
     21 C          18.1252   -2.5410   14.2800 C.3       1 UNL1        0.0000
     22 C          18.9829   -0.6899   17.2911 C.2       1 UNL1        0.0000
     23 C          18.6376    0.4888   18.0903 C.3       1 UNL1        0.0000
     24 C          19.2240    1.8034   17.6275 C.3       1 UNL1        0.0000
     25 C          19.6693    1.2032   18.8871 C.3       1 UNL1        0.0000
     26 C          15.1086   -4.5805   15.3565 C.ar      1 UNL1        0.0000
     27 C          15.0990   -5.9553   15.2876 C.ar      1 UNL1        0.0000
     28 C          15.6344   -6.6053   14.1663 C.ar      1 UNL1        0.0000
     29 O          16.7704  -11.9920   12.2268 O.2       1 UNL1        0.0000
     30 O          19.5041   -1.6638   17.9431 O.2       1 UNL1        0.0000
     31 O          14.5993   -1.7697   14.4884 O.2       1 UNL1        0.0000
     32 F          14.6007   -3.9048   16.4280 F         1 UNL1        0.0000
     33 H          15.5023  -12.0074   10.2085 H         1 UNL1        0.0000
     34 H          14.3336  -10.9707    8.3445 H         1 UNL1        0.0000
     35 H          14.3101   -8.5681    8.2197 H         1 UNL1        0.0000
     36 H          15.3915   -7.1876    9.8544 H         1 UNL1        0.0000
     37 H          16.2592   -6.1578   11.0323 H         1 UNL1        0.0000
     38 H          17.8092   -6.2592   11.8509 H         1 UNL1        0.0000
     39 H          16.5839   -3.9898   12.4162 H         1 UNL1        0.0000
     40 H          16.1323   -0.0094   15.0915 H         1 UNL1        0.0000
     41 H          16.8761    0.0561   13.4851 H         1 UNL1        0.0000
     42 H          18.0432    1.0469   15.6671 H         1 UNL1        0.0000
     43 H          18.9275    0.4265   14.2997 H         1 UNL1        0.0000
     44 H          19.3161   -2.8697   15.9970 H         1 UNL1        0.0000
     45 H          20.1029   -1.9528   14.7243 H         1 UNL1        0.0000
     46 H          17.8873   -3.5676   14.4667 H         1 UNL1        0.0000
     47 H          18.5156   -2.3948   13.2954 H         1 UNL1        0.0000
     48 H          17.6723    0.0902   18.3218 H         1 UNL1        0.0000
     49 H          18.6251    2.6902   17.6393 H         1 UNL1        0.0000
     50 H          19.7094    2.1441   16.7368 H         1 UNL1        0.0000
     51 H          19.4004    1.6600   19.8166 H         1 UNL1        0.0000
     52 H          20.6226    0.9327   19.2888 H         1 UNL1        0.0000
     53 H          14.6971   -6.5076   16.0619 H         1 UNL1        0.0000
     54 H          15.6149   -7.6370   14.1401 H         1 UNL1        0.0000
     55 H          17.7926  -10.3262   13.8196 H         1 UNL1        0.0000
@<TRIPOS>BOND
     1    1   18 1
     2    1   21 1
     3    1   17 am
     4    2   19 1
     5    2   20 1
     6    2   22 am
     7    3    4 1
     8    3   12 2
     9    4    5 am
    10    4   55 1
    11    5   29 2
    12    5    6 1
    13    6    7 ar
    14    6   11 ar
    15    7    8 ar
    16    7   33 1
    17    8   34 1
    18    8    9 ar
    19    9   10 ar
    20    9   35 1
    21   10   11 ar
    22   10   36 1
    23   11   12 1
    24   12   13 1
    25   13   37 1
    26   13   38 1
    27   13   14 1
    28   14   15 ar
    29   14   28 ar
    30   15   39 1
    31   15   16 ar
    32   16   26 ar
    33   16   17 1
    34   17   31 2
    35   18   19 1
    36   18   40 1
    37   18   41 1
    38   19   42 1
    39   19   43 1
    40   20   21 1
    41   20   45 1
    42   20   44 1
    43   21   46 1
    44   21   47 1
    45   22   30 2
    46   22   23 1
    47   23   25 1
    48   23   24 1
    49   23   48 1
    50   24   25 1
    51   24   49 1
    52   24   50 1
    53   25   51 1
    54   25   52 1
    55   26   27 ar
    56   26   32 1
    57   27   28 ar
    58   27   53 1
    59   28   54 1
@<TRIPOS>SUBSTRUCTURE
1 UNL1 1
@<TRIPOS>COMMENT
Olaparib
PLANTSproteinTorsions
70
3 225.2865
48 120.3282
123 20.2414
171 109.5753
348 215.5872
606 262.6584
632 46.3372
655 175.0280
678 167.6804
700 59.8431
773 145.6452
807 261.9150
891 161.8859
933 142.1102
999 126.0314
1020 41.7635
1361 228.8392
1371 71.8899
1544 139.0218
1649 300.8452
1689 353.6961
1736 110.2922
1771 356.2619
2012 215.7218
2070 168.9104
2082 239.2449
2147 316.7980
2300 263.6300
2527 108.7277
2551 34.8524
2605 27.6754
2653 174.6380
2739 306.0215
2807 177.2373
2841 51.4554
2875 10.8258
2885 276.6901
2915 92.5766
3074 141.7397
3130 111.4374
3421 105.8258
3586 107.8424
3784 119.5494
3818 234.8150
3881 316.7438
3933 38.6419
4033 26.4776
4046 169.7125
4094 61.4443
4145 183.3527
4208 31.4686
4235 23.2161
4332 217.4734
4568 62.4771
4685 123.6606
4749 81.1263
4805 304.6631
4858 145.7981
4871 202.0608
4945 8.9132
4999 198.8397
5010 198.0530
5106 89.8365
5130 27.4499
5249 171.5441
5258 228.6431
5318 234.0111
5369 100.5183
5589 141.5995
5645 216.6848
PLANTSmolcadARTstart hb
PLANTSmolcadARTstart HB
LINES
17.7926 -10.3262 13.8196 19.176 -10.827 14.967 0 255 0 5
14.5993 -1.76974 14.4884 13.58 -0.508253 14.3667 0 255 0 5
PLANTSmolcadARTstart HBCH
LINES
PLANTSmolcadARTstart HB-CHO
LINES
PLANTSmolcadARTend
PLANTSmolcadARTstart HB_WATER
LINES
PLANTSmolcadARTend

PLANTSmolcadARTend

