@<TRIPOS>MOLECULE
Olaparib_entry_00001_conf_70
55 59 1
SMALL
NO_CHARGES


@<TRIPOS>ATOM
      1 N          30.8686  -16.9261   28.5846 N.am      1 UNL1        0.0000
      2 N          31.3247  -18.3976   30.6763 N.am      1 UNL1        0.0000
      3 N          25.2803  -16.9724   30.0469 N.2       1 UNL1        0.0000
      4 N          24.3103  -17.8327   29.8529 N.am      1 UNL1        0.0000
      5 C          23.0266  -17.4736   29.7111 C.2       1 UNL1        0.0000
      6 C          22.7018  -16.1340   29.7715 C.ar      1 UNL1        0.0000
      7 C          21.3789  -15.7071   29.6502 C.ar      1 UNL1        0.0000
      8 C          21.0752  -14.3654   29.7351 C.ar      1 UNL1        0.0000
      9 C          22.1269  -13.4982   29.9425 C.ar      1 UNL1        0.0000
     10 C          23.4441  -13.9078   30.0650 C.ar      1 UNL1        0.0000
     11 C          23.7342  -15.2375   29.9770 C.ar      1 UNL1        0.0000
     12 C          25.0391  -15.6270   30.1179 C.2       1 UNL1        0.0000
     13 C          26.2114  -14.7752   30.2701 C.3       1 UNL1        0.0000
     14 C          27.0148  -14.7610   29.0164 C.ar      1 UNL1        0.0000
     15 C          28.3541  -15.1684   29.1507 C.ar      1 UNL1        0.0000
     16 C          29.1786  -15.1791   28.0513 C.ar      1 UNL1        0.0000
     17 C          30.5938  -15.5994   28.1610 C.2       1 UNL1        0.0000
     18 C          32.2205  -17.3695   28.6979 C.3       1 UNL1        0.0000
     19 C          32.3867  -18.4844   29.7079 C.3       1 UNL1        0.0000
     20 C          29.9554  -18.5707   30.1792 C.3       1 UNL1        0.0000
     21 C          29.7583  -17.8075   28.8947 C.3       1 UNL1        0.0000
     22 C          31.5632  -18.1590   32.0329 C.2       1 UNL1        0.0000
     23 C          32.8636  -17.9521   32.6759 C.3       1 UNL1        0.0000
     24 C          32.9662  -16.7644   33.6059 C.3       1 UNL1        0.0000
     25 C          33.7049  -16.7732   32.3412 C.3       1 UNL1        0.0000
     26 C          28.7646  -14.8070   26.7943 C.ar      1 UNL1        0.0000
     27 C          27.4535  -14.4083   26.6641 C.ar      1 UNL1        0.0000
     28 C          26.6097  -14.3952   27.7839 C.ar      1 UNL1        0.0000
     29 O          22.0830  -18.2835   29.5232 O.2       1 UNL1        0.0000
     30 O          30.5482  -18.1113   32.8156 O.2       1 UNL1        0.0000
     31 O          31.5427  -14.8269   27.8936 O.2       1 UNL1        0.0000
     32 F          29.6228  -14.8343   25.7334 F         1 UNL1        0.0000
     33 H          20.6267  -16.3967   29.4960 H         1 UNL1        0.0000
     34 H          20.1055  -14.0259   29.6480 H         1 UNL1        0.0000
     35 H          21.9212  -12.4896   30.0104 H         1 UNL1        0.0000
     36 H          24.1958  -13.2177   30.2204 H         1 UNL1        0.0000
     37 H          26.8155  -15.1472   31.0712 H         1 UNL1        0.0000
     38 H          25.8880  -13.7774   30.4825 H         1 UNL1        0.0000
     39 H          28.7167  -15.4582   30.0721 H         1 UNL1        0.0000
     40 H          32.8285  -16.5414   28.9981 H         1 UNL1        0.0000
     41 H          32.5164  -17.7515   27.7426 H         1 UNL1        0.0000
     42 H          33.3313  -18.3856   30.2000 H         1 UNL1        0.0000
     43 H          32.3490  -19.4319   29.2115 H         1 UNL1        0.0000
     44 H          29.2656  -18.2085   30.9124 H         1 UNL1        0.0000
     45 H          29.7836  -19.6102   29.9922 H         1 UNL1        0.0000
     46 H          28.8695  -17.2177   28.9805 H         1 UNL1        0.0000
     47 H          29.6871  -18.5234   28.1038 H         1 UNL1        0.0000
     48 H          33.0502  -19.0048   32.7125 H         1 UNL1        0.0000
     49 H          33.4920  -16.8549   34.5336 H         1 UNL1        0.0000
     50 H          32.2644  -16.1027   34.0691 H         1 UNL1        0.0000
     51 H          34.7713  -16.8619   32.3503 H         1 UNL1        0.0000
     52 H          33.7613  -16.1089   31.5052 H         1 UNL1        0.0000
     53 H          27.0916  -14.1191   25.7412 H         1 UNL1        0.0000
     54 H          25.6310  -14.0916   27.6588 H         1 UNL1        0.0000
     55 H          24.5362  -18.7902   29.8086 H         1 UNL1        0.0000
@<TRIPOS>BOND
     1    1   18 1
     2    1   21 1
     3    1   17 am
     4    2   19 1
     5    2   20 1
     6    2   22 am
     7    3    4 1
     8    3   12 2
     9    4    5 am
    10    4   55 1
    11    5   29 2
    12    5    6 1
    13    6    7 ar
    14    6   11 ar
    15    7    8 ar
    16    7   33 1
    17    8   34 1
    18    8    9 ar
    19    9   10 ar
    20    9   35 1
    21   10   11 ar
    22   10   36 1
    23   11   12 1
    24   12   13 1
    25   13   37 1
    26   13   38 1
    27   13   14 1
    28   14   15 ar
    29   14   28 ar
    30   15   39 1
    31   15   16 ar
    32   16   26 ar
    33   16   17 1
    34   17   31 2
    35   18   19 1
    36   18   40 1
    37   18   41 1
    38   19   42 1
    39   19   43 1
    40   20   21 1
    41   20   45 1
    42   20   44 1
    43   21   46 1
    44   21   47 1
    45   22   30 2
    46   22   23 1
    47   23   25 1
    48   23   24 1
    49   23   48 1
    50   24   25 1
    51   24   49 1
    52   24   50 1
    53   25   51 1
    54   25   52 1
    55   26   27 ar
    56   26   32 1
    57   27   28 ar
    58   27   53 1
    59   28   54 1
@<TRIPOS>SUBSTRUCTURE
1 UNL1 1
@<TRIPOS>COMMENT
Olaparib
PLANTSproteinTorsions
70
3 2.4421
48 77.7313
123 9.9943
171 114.7012
348 136.0186
606 193.5804
632 257.2786
655 342.4447
678 305.4846
700 250.8823
773 282.4340
807 245.2108
891 268.1788
933 192.3691
999 94.0854
1020 205.5180
1361 173.9227
1371 346.9175
1544 85.2785
1649 147.9536
1689 199.6342
1736 189.6306
1771 106.4198
2012 46.1613
2070 328.2448
2082 310.1217
2147 280.1455
2300 238.5395
2527 271.2506
2551 334.8370
2605 335.8395
2653 167.6252
2739 179.2867
2807 163.9404
2841 67.1639
2875 96.3029
2885 20.1617
2915 22.0218
3074 330.1892
3130 65.9497
3421 40.6799
3586 260.7621
3784 209.6201
3818 297.3613
3881 81.1773
3933 98.6385
4033 184.8432
4046 27.1575
4094 310.9607
4145 224.5913
4208 155.8067
4235 212.9416
4332 87.0453
4568 191.6132
4685 30.6069
4749 71.6502
4805 19.1397
4858 282.2866
4871 10.3156
4945 90.0506
4999 294.2041
5010 60.3939
5106 110.1643
5130 120.9498
5249 226.6849
5258 9.8261
5318 127.3935
5369 112.8256
5589 276.5190
5645 348.7239
PLANTSmolcadARTstart hb
PLANTSmolcadARTstart HB
LINES
31.5427 -14.8269 27.8936 30.857 -13.195 29.358 0 255 0 5
PLANTSmolcadARTstart HBCH
LINES
PLANTSmolcadARTstart HB-CHO
LINES
PLANTSmolcadARTend
PLANTSmolcadARTstart HB_WATER
LINES
PLANTSmolcadARTend

PLANTSmolcadARTend

