@<TRIPOS>MOLECULE
Olaparib_entry_00001_conf_67
55 59 1
SMALL
NO_CHARGES


@<TRIPOS>ATOM
      1 N          29.5986  -12.8343   17.5330 N.am      1 UNL1        0.0000
      2 N          27.5715  -13.7500   16.1910 N.am      1 UNL1        0.0000
      3 N          32.7629  -13.1291   13.1925 N.2       1 UNL1        0.0000
      4 N          32.6752  -14.3184   12.6480 N.am      1 UNL1        0.0000
      5 C          31.9221  -14.5797   11.5703 C.2       1 UNL1        0.0000
      6 C          31.2000  -13.5514   11.0002 C.ar      1 UNL1        0.0000
      7 C          30.3846  -13.7728    9.8897 C.ar      1 UNL1        0.0000
      8 C          29.6556  -12.7351    9.3498 C.ar      1 UNL1        0.0000
      9 C          29.7771  -11.5033    9.9574 C.ar      1 UNL1        0.0000
     10 C          30.5819  -11.2694   11.0598 C.ar      1 UNL1        0.0000
     11 C          31.3011  -12.3024   11.5847 C.ar      1 UNL1        0.0000
     12 C          32.0781  -12.0581   12.6852 C.2       1 UNL1        0.0000
     13 C          32.3141  -10.7795   13.3428 C.3       1 UNL1        0.0000
     14 C          32.5637  -10.9770   14.7974 C.ar      1 UNL1        0.0000
     15 C          31.4216  -11.2238   15.5799 C.ar      1 UNL1        0.0000
     16 C          31.5489  -11.4089   16.9357 C.ar      1 UNL1        0.0000
     17 C          30.3654  -11.6670   17.7866 C.2       1 UNL1        0.0000
     18 C          28.4533  -13.1196   18.3355 C.3       1 UNL1        0.0000
     19 C          27.4250  -13.9589   17.6080 C.3       1 UNL1        0.0000
     20 C          28.8473  -14.1509   15.5879 C.3       1 UNL1        0.0000
     21 C          30.0016  -13.7176   16.4545 C.3       1 UNL1        0.0000
     22 C          26.5588  -13.1914   15.4058 C.2       1 UNL1        0.0000
     23 C          25.2441  -12.7309   15.8601 C.3       1 UNL1        0.0000
     24 C          24.3759  -13.7626   16.5442 C.3       1 UNL1        0.0000
     25 C          23.9957  -13.2366   15.2312 C.3       1 UNL1        0.0000
     26 C          32.7559  -11.3674   17.5926 C.ar      1 UNL1        0.0000
     27 C          33.8732  -11.1257   16.8257 C.ar      1 UNL1        0.0000
     28 C          33.7468  -10.9354   15.4421 C.ar      1 UNL1        0.0000
     29 O          31.8262  -15.7129   11.0331 O.2       1 UNL1        0.0000
     30 O          26.7852  -13.0582   14.1503 O.2       1 UNL1        0.0000
     31 O          30.0267  -10.8940   18.7122 O.2       1 UNL1        0.0000
     32 F          32.8300  -11.5570   18.9421 F         1 UNL1        0.0000
     33 H          30.3276  -14.7145    9.4714 H         1 UNL1        0.0000
     34 H          29.0467  -12.8740    8.5294 H         1 UNL1        0.0000
     35 H          29.2388  -10.7132    9.5698 H         1 UNL1        0.0000
     36 H          30.6375  -10.3276   11.4783 H         1 UNL1        0.0000
     37 H          31.4556  -10.1537   13.2146 H         1 UNL1        0.0000
     38 H          33.1760  -10.3201   12.9054 H         1 UNL1        0.0000
     39 H          30.4905  -11.2654   15.1373 H         1 UNL1        0.0000
     40 H          27.9987  -12.1948   18.6245 H         1 UNL1        0.0000
     41 H          28.7854  -13.6796   19.1853 H         1 UNL1        0.0000
     42 H          26.4422  -13.6686   17.9148 H         1 UNL1        0.0000
     43 H          27.5718  -14.9934   17.8398 H         1 UNL1        0.0000
     44 H          28.9407  -13.6951   14.6246 H         1 UNL1        0.0000
     45 H          28.8670  -15.2168   15.4956 H         1 UNL1        0.0000
     46 H          30.7143  -13.2045   15.8429 H         1 UNL1        0.0000
     47 H          30.4171  -14.5968   16.8988 H         1 UNL1        0.0000
     48 H          25.6215  -11.7514   16.0663 H         1 UNL1        0.0000
     49 H          23.8101  -13.4952   17.4123 H         1 UNL1        0.0000
     50 H          24.5383  -14.7386   16.9517 H         1 UNL1        0.0000
     51 H          23.1462  -12.5919   15.1437 H         1 UNL1        0.0000
     52 H          23.7622  -13.6824   14.2878 H         1 UNL1        0.0000
     53 H          34.8045  -11.0849   17.2697 H         1 UNL1        0.0000
     54 H          34.6004  -10.7554   14.8904 H         1 UNL1        0.0000
     55 H          33.1886  -15.0561   13.0504 H         1 UNL1        0.0000
@<TRIPOS>BOND
     1    1   18 1
     2    1   21 1
     3    1   17 am
     4    2   19 1
     5    2   20 1
     6    2   22 am
     7    3    4 1
     8    3   12 2
     9    4    5 am
    10    4   55 1
    11    5   29 2
    12    5    6 1
    13    6    7 ar
    14    6   11 ar
    15    7    8 ar
    16    7   33 1
    17    8   34 1
    18    8    9 ar
    19    9   10 ar
    20    9   35 1
    21   10   11 ar
    22   10   36 1
    23   11   12 1
    24   12   13 1
    25   13   37 1
    26   13   38 1
    27   13   14 1
    28   14   15 ar
    29   14   28 ar
    30   15   39 1
    31   15   16 ar
    32   16   26 ar
    33   16   17 1
    34   17   31 2
    35   18   19 1
    36   18   40 1
    37   18   41 1
    38   19   42 1
    39   19   43 1
    40   20   21 1
    41   20   45 1
    42   20   44 1
    43   21   46 1
    44   21   47 1
    45   22   30 2
    46   22   23 1
    47   23   25 1
    48   23   24 1
    49   23   48 1
    50   24   25 1
    51   24   49 1
    52   24   50 1
    53   25   51 1
    54   25   52 1
    55   26   27 ar
    56   26   32 1
    57   27   28 ar
    58   27   53 1
    59   28   54 1
@<TRIPOS>SUBSTRUCTURE
1 UNL1 1
@<TRIPOS>COMMENT
Olaparib
PLANTSproteinTorsions
70
3 233.4926
48 119.5380
123 208.9595
171 80.3054
348 217.3251
606 161.3931
632 230.8754
655 164.7810
678 134.6814
700 114.5256
773 218.4508
807 163.0115
891 183.3994
933 50.1169
999 132.5678
1020 131.8208
1361 106.3398
1371 158.6044
1544 129.2113
1649 180.8201
1689 87.5803
1736 216.6265
1771 60.7397
2012 81.0007
2070 318.1979
2082 151.2638
2147 299.1881
2300 110.1356
2527 323.0260
2551 94.7317
2605 90.8366
2653 312.4674
2739 243.1487
2807 267.4312
2841 79.2188
2875 264.8570
2885 34.9396
2915 72.6215
3074 157.5542
3130 340.3449
3421 103.0936
3586 66.5547
3784 345.7703
3818 151.8855
3881 160.7457
3933 255.4514
4033 95.0711
4046 118.9042
4094 294.5569
4145 207.8190
4208 290.0541
4235 22.5298
4332 155.5154
4568 268.0444
4685 163.0030
4749 54.0794
4805 257.5438
4858 308.5242
4871 283.2683
4945 224.3210
4999 183.2139
5010 184.7567
5106 313.2468
5130 129.3224
5249 202.1806
5258 58.8533
5318 225.5278
5369 255.6735
5589 14.1759
5645 197.6658
PLANTSmolcadARTstart hb
PLANTSmolcadARTstart HB
LINES
26.7852 -13.0582 14.1503 26.6669 -11.2455 13.1553 0 255 0 5
PLANTSmolcadARTstart HBCH
LINES
PLANTSmolcadARTstart HB-CHO
LINES
PLANTSmolcadARTend
PLANTSmolcadARTstart HB_WATER
LINES
PLANTSmolcadARTend

PLANTSmolcadARTend

