@<TRIPOS>MOLECULE
Olaparib_entry_00001_conf_58
55 59 1
SMALL
NO_CHARGES


@<TRIPOS>ATOM
      1 N          27.8247  -12.4530   18.1213 N.am      1 UNL1        0.0000
      2 N          26.7728  -14.2138   16.5271 N.am      1 UNL1        0.0000
      3 N          34.2090  -13.1012   16.5007 N.2       1 UNL1        0.0000
      4 N          35.4539  -13.4173   16.7631 N.am      1 UNL1        0.0000
      5 C          36.5028  -12.8123   16.1881 C.2       1 UNL1        0.0000
      6 C          36.2690  -11.8062   15.2733 C.ar      1 UNL1        0.0000
      7 C          37.3239  -11.1571   14.6306 C.ar      1 UNL1        0.0000
      8 C          37.0660  -10.1695   13.7045 C.ar      1 UNL1        0.0000
      9 C          35.7420   -9.8730   13.4589 C.ar      1 UNL1        0.0000
     10 C          34.6854  -10.5091   14.0889 C.ar      1 UNL1        0.0000
     11 C          34.9515  -11.4831   15.0055 C.ar      1 UNL1        0.0000
     12 C          33.8952  -12.1140   15.6062 C.2       1 UNL1        0.0000
     13 C          32.4769  -11.8163   15.4550 C.3       1 UNL1        0.0000
     14 C          31.9001  -11.3466   16.7450 C.ar      1 UNL1        0.0000
     15 C          30.5039  -11.4666   16.8634 C.ar      1 UNL1        0.0000
     16 C          29.8772  -11.0502   18.0134 C.ar      1 UNL1        0.0000
     17 C          28.4090  -11.1601   18.1669 C.2       1 UNL1        0.0000
     18 C          26.4129  -12.5997   18.2703 C.3       1 UNL1        0.0000
     19 C          25.8809  -13.8459   17.5958 C.3       1 UNL1        0.0000
     20 C          28.1459  -14.5711   16.8998 C.3       1 UNL1        0.0000
     21 C          28.6849  -13.6048   17.9231 C.3       1 UNL1        0.0000
     22 C          26.3715  -14.2356   15.1881 C.2       1 UNL1        0.0000
     23 C          25.0485  -13.8939   14.6591 C.3       1 UNL1        0.0000
     24 C          24.3751  -12.6883   15.2747 C.3       1 UNL1        0.0000
     25 C          23.8293  -14.0289   15.4987 C.3       1 UNL1        0.0000
     26 C          30.5483  -10.5097   19.0847 C.ar      1 UNL1        0.0000
     27 C          31.9149  -10.3927   18.9677 C.ar      1 UNL1        0.0000
     28 C          32.5573  -10.8157   17.7952 C.ar      1 UNL1        0.0000
     29 O          37.7034  -13.1004   16.4276 O.2       1 UNL1        0.0000
     30 O          27.2400  -14.5890   14.3129 O.2       1 UNL1        0.0000
     31 O          27.6778  -10.1570   18.3339 O.2       1 UNL1        0.0000
     32 F          29.8798  -10.1102   20.2055 F         1 UNL1        0.0000
     33 H          38.2985  -11.4162   14.8494 H         1 UNL1        0.0000
     34 H          37.8286   -9.6755   13.2171 H         1 UNL1        0.0000
     35 H          35.5270   -9.1377   12.7681 H         1 UNL1        0.0000
     36 H          33.7108  -10.2502   13.8687 H         1 UNL1        0.0000
     37 H          31.9629  -12.7005   15.1406 H         1 UNL1        0.0000
     38 H          32.3625  -11.0420   14.7251 H         1 UNL1        0.0000
     39 H          29.9515  -11.8658   16.0888 H         1 UNL1        0.0000
     40 H          25.9326  -11.7454   17.8402 H         1 UNL1        0.0000
     41 H          26.2055  -12.6848   19.3171 H         1 UNL1        0.0000
     42 H          24.9061  -13.6521   17.2003 H         1 UNL1        0.0000
     43 H          25.8171  -14.6436   18.3065 H         1 UNL1        0.0000
     44 H          28.7666  -14.5428   16.0289 H         1 UNL1        0.0000
     45 H          28.1456  -15.5546   17.3213 H         1 UNL1        0.0000
     46 H          29.6441  -13.2608   17.5962 H         1 UNL1        0.0000
     47 H          28.7441  -14.1247   18.8555 H         1 UNL1        0.0000
     48 H          25.3131  -14.2402   13.6821 H         1 UNL1        0.0000
     49 H          23.8496  -11.9933   14.6534 H         1 UNL1        0.0000
     50 H          24.6918  -11.8838   15.9051 H         1 UNL1        0.0000
     51 H          22.9003  -14.3060   15.0457 H         1 UNL1        0.0000
     52 H          23.5813  -14.5977   16.3695 H         1 UNL1        0.0000
     53 H          32.4666   -9.9935   19.7438 H         1 UNL1        0.0000
     54 H          33.5830  -10.7164   17.7332 H         1 UNL1        0.0000
     55 H          35.6269  -14.1345   17.4155 H         1 UNL1        0.0000
@<TRIPOS>BOND
     1    1   18 1
     2    1   21 1
     3    1   17 am
     4    2   19 1
     5    2   20 1
     6    2   22 am
     7    3    4 1
     8    3   12 2
     9    4    5 am
    10    4   55 1
    11    5   29 2
    12    5    6 1
    13    6    7 ar
    14    6   11 ar
    15    7    8 ar
    16    7   33 1
    17    8   34 1
    18    8    9 ar
    19    9   10 ar
    20    9   35 1
    21   10   11 ar
    22   10   36 1
    23   11   12 1
    24   12   13 1
    25   13   37 1
    26   13   38 1
    27   13   14 1
    28   14   15 ar
    29   14   28 ar
    30   15   39 1
    31   15   16 ar
    32   16   26 ar
    33   16   17 1
    34   17   31 2
    35   18   19 1
    36   18   40 1
    37   18   41 1
    38   19   42 1
    39   19   43 1
    40   20   21 1
    41   20   45 1
    42   20   44 1
    43   21   46 1
    44   21   47 1
    45   22   30 2
    46   22   23 1
    47   23   25 1
    48   23   24 1
    49   23   48 1
    50   24   25 1
    51   24   49 1
    52   24   50 1
    53   25   51 1
    54   25   52 1
    55   26   27 ar
    56   26   32 1
    57   27   28 ar
    58   27   53 1
    59   28   54 1
@<TRIPOS>SUBSTRUCTURE
1 UNL1 1
@<TRIPOS>COMMENT
Olaparib
PLANTSproteinTorsions
70
3 9.3144
48 265.9382
123 257.3809
171 118.6580
348 103.2425
606 181.1333
632 279.5420
655 280.6676
678 195.6166
700 253.6814
773 323.8998
807 219.6693
891 289.8571
933 259.3867
999 186.7531
1020 195.4387
1361 139.0632
1371 70.4490
1544 15.5498
1649 101.6796
1689 89.7416
1736 189.2075
1771 194.0045
2012 15.6091
2070 202.8737
2082 33.8269
2147 119.6669
2300 207.8587
2527 263.0275
2551 248.3021
2605 102.5068
2653 152.8389
2739 230.4104
2807 37.3510
2841 63.9775
2875 68.6396
2885 203.4886
2915 209.0573
3074 228.4310
3130 116.8480
3421 73.3310
3586 255.3314
3784 355.3762
3818 336.0604
3881 119.6926
3933 70.5337
4033 174.5316
4046 178.8841
4094 27.3409
4145 229.0017
4208 247.7534
4235 216.3098
4332 95.5135
4568 210.9418
4685 127.6807
4749 232.0464
4805 175.3148
4858 305.9513
4871 173.4935
4945 91.8931
4999 228.9495
5010 126.0994
5106 158.0141
5130 226.0728
5249 259.8385
5258 251.2904
5318 179.4890
5369 277.5047
5589 31.8508
5645 222.9308
PLANTSmolcadARTstart hb
PLANTSmolcadARTstart HB
LINES
27.6778 -10.157 18.3339 26.681 -8.38 18.836 0 255 0 5
PLANTSmolcadARTstart HBCH
LINES
PLANTSmolcadARTstart HB-CHO
LINES
PLANTSmolcadARTend
PLANTSmolcadARTstart HB_WATER
LINES
PLANTSmolcadARTend

PLANTSmolcadARTend

