@<TRIPOS>MOLECULE
Olaparib_entry_00001_conf_63
55 59 1
SMALL
NO_CHARGES


@<TRIPOS>ATOM
      1 N          26.9213    8.3809   21.9573 N.am      1 UNL1        0.0000
      2 N          24.6357    7.8792   20.8292 N.am      1 UNL1        0.0000
      3 N          32.2050    4.8195   19.0767 N.2       1 UNL1        0.0000
      4 N          33.0622    4.3427   18.2069 N.am      1 UNL1        0.0000
      5 C          34.3815    4.2781   18.4347 C.2       1 UNL1        0.0000
      6 C          34.8697    4.7344   19.6419 C.ar      1 UNL1        0.0000
      7 C          36.2363    4.7087   19.9227 C.ar      1 UNL1        0.0000
      8 C          36.7034    5.1896   21.1269 C.ar      1 UNL1        0.0000
      9 C          35.7658    5.6838   22.0089 C.ar      1 UNL1        0.0000
     10 C          34.4070    5.7158   21.7433 C.ar      1 UNL1        0.0000
     11 C          33.9549    5.2351   20.5499 C.ar      1 UNL1        0.0000
     12 C          32.6106    5.2902   20.2962 C.2       1 UNL1        0.0000
     13 C          31.5519    5.7309   21.1950 C.3       1 UNL1        0.0000
     14 C          30.9527    7.0060   20.7131 C.ar      1 UNL1        0.0000
     15 C          29.8656    7.4864   21.4647 C.ar      1 UNL1        0.0000
     16 C          29.2388    8.6515   21.0923 C.ar      1 UNL1        0.0000
     17 C          28.0899    9.1810   21.8609 C.2       1 UNL1        0.0000
     18 C          25.7947    8.8555   22.6939 C.3       1 UNL1        0.0000
     19 C          24.4886    8.2640   22.2088 C.3       1 UNL1        0.0000
     20 C          25.6278    6.8408   20.5303 C.3       1 UNL1        0.0000
     21 C          26.9004    7.0879   21.2989 C.3       1 UNL1        0.0000
     22 C          23.8796    8.4556   19.8043 C.2       1 UNL1        0.0000
     23 C          22.8673    9.5063   19.9400 C.3       1 UNL1        0.0000
     24 C          21.4306    9.0418   20.0197 C.3       1 UNL1        0.0000
     25 C          21.8991    9.7831   18.8465 C.3       1 UNL1        0.0000
     26 C          29.6191    9.3971   20.0017 C.ar      1 UNL1        0.0000
     27 C          30.6833    8.9259   19.2667 C.ar      1 UNL1        0.0000
     28 C          31.3244    7.7370   19.6433 C.ar      1 UNL1        0.0000
     29 O          35.2189    3.8232   17.6139 O.2       1 UNL1        0.0000
     30 O          24.0788    8.0340   18.6094 O.2       1 UNL1        0.0000
     31 O          28.1202   10.3007   22.4215 O.2       1 UNL1        0.0000
     32 F          28.9635   10.5480   19.6724 F         1 UNL1        0.0000
     33 H          36.8982    4.3286   19.2282 H         1 UNL1        0.0000
     34 H          37.7084    5.1808   21.3573 H         1 UNL1        0.0000
     35 H          36.0945    6.0499   22.9156 H         1 UNL1        0.0000
     36 H          33.7457    6.0972   22.4379 H         1 UNL1        0.0000
     37 H          31.9598    5.8809   22.1729 H         1 UNL1        0.0000
     38 H          30.7885    4.9813   21.2231 H         1 UNL1        0.0000
     39 H          29.5391    6.9655   22.2934 H         1 UNL1        0.0000
     40 H          25.7460    9.9202   22.5969 H         1 UNL1        0.0000
     41 H          25.9262    8.5569   23.7135 H         1 UNL1        0.0000
     42 H          23.7096    8.9915   22.2984 H         1 UNL1        0.0000
     43 H          24.2367    7.4080   22.7997 H         1 UNL1        0.0000
     44 H          25.8429    6.8496   19.4824 H         1 UNL1        0.0000
     45 H          25.2309    5.8895   20.8178 H         1 UNL1        0.0000
     46 H          27.7252    7.0391   20.6188 H         1 UNL1        0.0000
     47 H          26.9661    6.3398   22.0599 H         1 UNL1        0.0000
     48 H          23.5334   10.1209   20.5082 H         1 UNL1        0.0000
     49 H          20.7564    9.5036   20.7106 H         1 UNL1        0.0000
     50 H          20.9470    8.1006   20.1781 H         1 UNL1        0.0000
     51 H          21.5576   10.7835   18.6800 H         1 UNL1        0.0000
     52 H          21.8884    9.5977   17.7935 H         1 UNL1        0.0000
     53 H          31.0094    9.4485   18.4380 H         1 UNL1        0.0000
     54 H          32.1196    7.4056   19.0746 H         1 UNL1        0.0000
     55 H          32.7195    4.0152   17.3437 H         1 UNL1        0.0000
@<TRIPOS>BOND
     1    1   18 1
     2    1   21 1
     3    1   17 am
     4    2   19 1
     5    2   20 1
     6    2   22 am
     7    3    4 1
     8    3   12 2
     9    4    5 am
    10    4   55 1
    11    5   29 2
    12    5    6 1
    13    6    7 ar
    14    6   11 ar
    15    7    8 ar
    16    7   33 1
    17    8   34 1
    18    8    9 ar
    19    9   10 ar
    20    9   35 1
    21   10   11 ar
    22   10   36 1
    23   11   12 1
    24   12   13 1
    25   13   37 1
    26   13   38 1
    27   13   14 1
    28   14   15 ar
    29   14   28 ar
    30   15   39 1
    31   15   16 ar
    32   16   26 ar
    33   16   17 1
    34   17   31 2
    35   18   19 1
    36   18   40 1
    37   18   41 1
    38   19   42 1
    39   19   43 1
    40   20   21 1
    41   20   45 1
    42   20   44 1
    43   21   46 1
    44   21   47 1
    45   22   30 2
    46   22   23 1
    47   23   25 1
    48   23   24 1
    49   23   48 1
    50   24   25 1
    51   24   49 1
    52   24   50 1
    53   25   51 1
    54   25   52 1
    55   26   27 ar
    56   26   32 1
    57   27   28 ar
    58   27   53 1
    59   28   54 1
@<TRIPOS>SUBSTRUCTURE
1 UNL1 1
@<TRIPOS>COMMENT
Olaparib
PLANTSproteinTorsions
70
3 29.5730
48 61.2574
123 91.1685
171 177.6405
348 66.5026
606 77.5513
632 222.2734
655 96.3970
678 185.0868
700 197.2544
773 51.9515
807 169.2119
891 18.8250
933 158.1429
999 198.2260
1020 97.2135
1361 130.3955
1371 20.4500
1544 113.8958
1649 21.3710
1689 344.2782
1736 145.7761
1771 77.5114
2012 102.4993
2070 313.2968
2082 134.8713
2147 178.8335
2300 27.8075
2527 15.0101
2551 155.7380
2605 200.1413
2653 203.9806
2739 14.6113
2807 145.0556
2841 217.4568
2875 212.3229
2885 51.3333
2915 123.7332
3074 91.8950
3130 188.8083
3421 112.2378
3586 27.3054
3784 297.8258
3818 254.8775
3881 59.3534
3933 265.8199
4033 71.8718
4046 137.2640
4094 122.7161
4145 128.3674
4208 59.4205
4235 19.8859
4332 165.4751
4568 97.1212
4685 267.0698
4749 158.1210
4805 219.6098
4858 276.8865
4871 23.4303
4945 45.4220
4999 141.6544
5010 138.2912
5106 63.5222
5130 152.3424
5249 25.6107
5258 207.0334
5318 57.5264
5369 198.3465
5589 260.2892
5645 348.8629
PLANTSmolcadARTstart hb
PLANTSmolcadARTstart HB
LINES
24.0788 8.034 18.6094 22.5458 6.44549 18.0803 0 255 0 5
28.1202 10.3007 22.4215 27.443 10.119 24.587 0 255 0 5
PLANTSmolcadARTstart HBCH
LINES
PLANTSmolcadARTstart HB-CHO
LINES
PLANTSmolcadARTend
PLANTSmolcadARTstart HB_WATER
LINES
PLANTSmolcadARTend

PLANTSmolcadARTend

