@<TRIPOS>MOLECULE
Olaparib_entry_00001_conf_69
55 59 1
SMALL
NO_CHARGES


@<TRIPOS>ATOM
      1 N          24.1969    6.5993    0.8579 N.am      1 UNL1        0.0000
      2 N          22.5003    7.1807    2.7373 N.am      1 UNL1        0.0000
      3 N          30.2992    9.9495    2.4971 N.2       1 UNL1        0.0000
      4 N          30.6770   10.4274    3.6579 N.am      1 UNL1        0.0000
      5 C          29.8163   10.8588    4.5906 C.2       1 UNL1        0.0000
      6 C          28.4640   10.8006    4.3233 C.ar      1 UNL1        0.0000
      7 C          27.5258   11.2549    5.2509 C.ar      1 UNL1        0.0000
      8 C          26.1808   11.2069    4.9536 C.ar      1 UNL1        0.0000
      9 C          25.8308   10.6993    3.7203 C.ar      1 UNL1        0.0000
     10 C          26.7510   10.2454    2.7901 C.ar      1 UNL1        0.0000
     11 C          28.0792   10.2949    3.0952 C.ar      1 UNL1        0.0000
     12 C          28.9764    9.8586    2.1576 C.2       1 UNL1        0.0000
     13 C          28.6891    9.2486    0.8659 C.3       1 UNL1        0.0000
     14 C          28.3622    7.8051    1.0296 C.ar      1 UNL1        0.0000
     15 C          27.0419    7.4429    0.7082 C.ar      1 UNL1        0.0000
     16 C          26.6415    6.1345    0.8370 C.ar      1 UNL1        0.0000
     17 C          25.2578    5.7227    0.5099 C.2       1 UNL1        0.0000
     18 C          22.8497    6.2390    0.5544 C.3       1 UNL1        0.0000
     19 C          21.8482    6.8838    1.4883 C.3       1 UNL1        0.0000
     20 C          23.6129    8.1358    2.6962 C.3       1 UNL1        0.0000
     21 C          24.5108    7.8521    1.5195 C.3       1 UNL1        0.0000
     22 C          22.1093    6.5968    3.9457 C.2       1 UNL1        0.0000
     23 C          21.0342    5.6216    4.1461 C.3       1 UNL1        0.0000
     24 C          21.0798    4.8344    5.4362 C.3       1 UNL1        0.0000
     25 C          21.3159    4.1621    4.1566 C.3       1 UNL1        0.0000
     26 C          27.4738    5.1303    1.2716 C.ar      1 UNL1        0.0000
     27 C          28.7659    5.4860    1.5860 C.ar      1 UNL1        0.0000
     28 C          29.1775    6.8203    1.4567 C.ar      1 UNL1        0.0000
     29 O          30.1592   11.3189    5.7098 O.2       1 UNL1        0.0000
     30 O          22.7481    6.9374    5.0046 O.2       1 UNL1        0.0000
     31 O          25.0008    4.6365   -0.0584 O.2       1 UNL1        0.0000
     32 F          27.0280    3.8452    1.3834 F         1 UNL1        0.0000
     33 H          27.8391   11.6268    6.1611 H         1 UNL1        0.0000
     34 H          25.4689   11.5362    5.6229 H         1 UNL1        0.0000
     35 H          24.8292   10.6557    3.4772 H         1 UNL1        0.0000
     36 H          26.4369    9.8747    1.8794 H         1 UNL1        0.0000
     37 H          29.5456    9.3460    0.2320 H         1 UNL1        0.0000
     38 H          27.8470    9.7444    0.4296 H         1 UNL1        0.0000
     39 H          26.3755    8.1575    0.3768 H         1 UNL1        0.0000
     40 H          22.7541    5.1757    0.6304 H         1 UNL1        0.0000
     41 H          22.6378    6.5853   -0.4362 H         1 UNL1        0.0000
     42 H          21.0324    6.2133    1.6588 H         1 UNL1        0.0000
     43 H          21.4733    7.7858    1.0510 H         1 UNL1        0.0000
     44 H          24.1810    8.0547    3.5991 H         1 UNL1        0.0000
     45 H          23.2169    9.1249    2.5967 H         1 UNL1        0.0000
     46 H          25.5230    7.8104    1.8643 H         1 UNL1        0.0000
     47 H          24.3640    8.6360    0.8074 H         1 UNL1        0.0000
     48 H          20.3349    6.2339    3.6165 H         1 UNL1        0.0000
     49 H          20.1779    4.6471    5.9810 H         1 UNL1        0.0000
     50 H          21.6172    4.9211    6.3574 H         1 UNL1        0.0000
     51 H          20.5873    3.4777    3.7746 H         1 UNL1        0.0000
     52 H          22.1025    3.5503    3.7691 H         1 UNL1        0.0000
     53 H          29.4319    4.7697    1.9169 H         1 UNL1        0.0000
     54 H          30.1517    7.0602    1.6994 H         1 UNL1        0.0000
     55 H          31.6410   10.4710    3.8545 H         1 UNL1        0.0000
@<TRIPOS>BOND
     1    1   18 1
     2    1   21 1
     3    1   17 am
     4    2   19 1
     5    2   20 1
     6    2   22 am
     7    3    4 1
     8    3   12 2
     9    4    5 am
    10    4   55 1
    11    5   29 2
    12    5    6 1
    13    6    7 ar
    14    6   11 ar
    15    7    8 ar
    16    7   33 1
    17    8   34 1
    18    8    9 ar
    19    9   10 ar
    20    9   35 1
    21   10   11 ar
    22   10   36 1
    23   11   12 1
    24   12   13 1
    25   13   37 1
    26   13   38 1
    27   13   14 1
    28   14   15 ar
    29   14   28 ar
    30   15   39 1
    31   15   16 ar
    32   16   26 ar
    33   16   17 1
    34   17   31 2
    35   18   19 1
    36   18   40 1
    37   18   41 1
    38   19   42 1
    39   19   43 1
    40   20   21 1
    41   20   45 1
    42   20   44 1
    43   21   46 1
    44   21   47 1
    45   22   30 2
    46   22   23 1
    47   23   25 1
    48   23   24 1
    49   23   48 1
    50   24   25 1
    51   24   49 1
    52   24   50 1
    53   25   51 1
    54   25   52 1
    55   26   27 ar
    56   26   32 1
    57   27   28 ar
    58   27   53 1
    59   28   54 1
@<TRIPOS>SUBSTRUCTURE
1 UNL1 1
@<TRIPOS>COMMENT
Olaparib
PLANTSproteinTorsions
70
3 114.8646
48 87.3019
123 7.6823
171 348.7021
348 215.6255
606 85.2084
632 87.5277
655 223.6893
678 196.9461
700 196.8955
773 64.2559
807 1.4619
891 246.9014
933 49.8811
999 118.0865
1020 46.7696
1361 140.2693
1371 199.7272
1544 61.4870
1649 135.9957
1689 5.7866
1736 41.6243
1771 127.2526
2012 75.6123
2070 234.0487
2082 246.4681
2147 79.0548
2300 138.1855
2527 252.0559
2551 149.8872
2605 78.8915
2653 28.3771
2739 177.3611
2807 157.2500
2841 138.3559
2875 309.9857
2885 134.1908
2915 283.7562
3074 56.2246
3130 243.1122
3421 164.6733
3586 236.9432
3784 44.9314
3818 126.0230
3881 149.2648
3933 152.9785
4033 192.3382
4046 215.1125
4094 194.9620
4145 339.6695
4208 51.5543
4235 108.3524
4332 130.6110
4568 67.0718
4685 165.1805
4749 70.9731
4805 304.8248
4858 105.8206
4871 17.4776
4945 212.3218
4999 166.7672
5010 82.9442
5106 106.8831
5130 251.6849
5249 67.8641
5258 86.8307
5318 136.6031
5369 183.1406
5589 312.7007
5645 251.6519
PLANTSmolcadARTstart hb
PLANTSmolcadARTstart HB
LINES
30.1592 11.3189 5.70976 29.7608 9.65105 6.90889 0 255 0 5
25.0008 4.63647 -0.0583892 24.058 3.73135 0.924676 0 255 0 5
PLANTSmolcadARTstart HBCH
LINES
PLANTSmolcadARTstart HB-CHO
LINES
PLANTSmolcadARTend
PLANTSmolcadARTstart HB_WATER
LINES
PLANTSmolcadARTend

PLANTSmolcadARTend

