@<TRIPOS>MOLECULE
Olaparib_entry_00001_conf_52
55 59 1
SMALL
NO_CHARGES


@<TRIPOS>ATOM
      1 N          27.0690    8.6808   21.5345 N.am      1 UNL1        0.0000
      2 N          24.6293    8.0188   20.9361 N.am      1 UNL1        0.0000
      3 N          31.3843    6.5731   15.9457 N.2       1 UNL1        0.0000
      4 N          32.4159    6.2260   15.2150 N.am      1 UNL1        0.0000
      5 C          32.8780    4.9696   15.1453 C.2       1 UNL1        0.0000
      6 C          32.2421    3.9872   15.8763 C.ar      1 UNL1        0.0000
      7 C          32.6940    2.6672   15.8557 C.ar      1 UNL1        0.0000
      8 C          32.0562    1.7066   16.6106 C.ar      1 UNL1        0.0000
      9 C          30.9783    2.1184   17.3654 C.ar      1 UNL1        0.0000
     10 C          30.5193    3.4247   17.3957 C.ar      1 UNL1        0.0000
     11 C          31.1559    4.3670   16.6430 C.ar      1 UNL1        0.0000
     12 C          30.7003    5.6569   16.6980 C.2       1 UNL1        0.0000
     13 C          29.5338    6.1598   17.4117 C.3       1 UNL1        0.0000
     14 C          29.9454    6.8626   18.6583 C.ar      1 UNL1        0.0000
     15 C          28.9678    7.6913   19.2373 C.ar      1 UNL1        0.0000
     16 C          29.2567    8.3903   20.3847 C.ar      1 UNL1        0.0000
     17 C          28.2502    9.2733   21.0161 C.2       1 UNL1        0.0000
     18 C          26.0777    9.4990   22.1548 C.3       1 UNL1        0.0000
     19 C          24.6909    8.8979   22.0748 C.3       1 UNL1        0.0000
     20 C          25.5207    6.8538   20.9462 C.3       1 UNL1        0.0000
     21 C          26.8968    7.2444   21.4206 C.3       1 UNL1        0.0000
     22 C          23.7685    8.2456   19.8582 C.2       1 UNL1        0.0000
     23 C          22.8354    9.3636   19.6957 C.3       1 UNL1        0.0000
     24 C          21.3936    9.0869   20.0573 C.3       1 UNL1        0.0000
     25 C          21.7681    9.3267   18.6618 C.3       1 UNL1        0.0000
     26 C          30.4746    8.3278   21.0195 C.ar      1 UNL1        0.0000
     27 C          31.4308    7.5164   20.4518 C.ar      1 UNL1        0.0000
     28 C          31.1396    6.8025   19.2805 C.ar      1 UNL1        0.0000
     29 O          33.8646    4.6171   14.4495 O.2       1 UNL1        0.0000
     30 O          23.7821    7.3957   18.8976 O.2       1 UNL1        0.0000
     31 O          28.4102   10.5124   21.1045 O.2       1 UNL1        0.0000
     32 F          30.7130    9.0425   22.1575 F         1 UNL1        0.0000
     33 H          33.5065    2.4095   15.2739 H         1 UNL1        0.0000
     34 H          32.3713    0.7248   16.6114 H         1 UNL1        0.0000
     35 H          30.4874    1.4153   17.9389 H         1 UNL1        0.0000
     36 H          29.7073    3.6819   17.9787 H         1 UNL1        0.0000
     37 H          28.8948    5.3395   17.6646 H         1 UNL1        0.0000
     38 H          29.0156    6.8525   16.7817 H         1 UNL1        0.0000
     39 H          28.0362    7.7746   18.8016 H         1 UNL1        0.0000
     40 H          26.0669   10.4521   21.6681 H         1 UNL1        0.0000
     41 H          26.3330    9.5867   23.1908 H         1 UNL1        0.0000
     42 H          23.9669    9.6779   21.9668 H         1 UNL1        0.0000
     43 H          24.4817    8.3487   22.9693 H         1 UNL1        0.0000
     44 H          25.5907    6.4546   19.9560 H         1 UNL1        0.0000
     45 H          25.1220    6.1184   21.6134 H         1 UNL1        0.0000
     46 H          27.6176    6.8695   20.7242 H         1 UNL1        0.0000
     47 H          27.0303    6.8274   22.3961 H         1 UNL1        0.0000
     48 H          23.5926   10.0757   19.9489 H         1 UNL1        0.0000
     49 H          20.8261    9.8193   20.5927 H         1 UNL1        0.0000
     50 H          20.8807    8.3076   20.5813 H         1 UNL1        0.0000
     51 H          21.4645   10.2322   18.1791 H         1 UNL1        0.0000
     52 H          21.6307    8.7870   17.7490 H         1 UNL1        0.0000
     53 H          32.3625    7.4335   20.8892 H         1 UNL1        0.0000
     54 H          31.8746    6.2015   18.8753 H         1 UNL1        0.0000
     55 H          32.8735    6.9228   14.6908 H         1 UNL1        0.0000
@<TRIPOS>BOND
     1    1   18 1
     2    1   21 1
     3    1   17 am
     4    2   19 1
     5    2   20 1
     6    2   22 am
     7    3    4 1
     8    3   12 2
     9    4    5 am
    10    4   55 1
    11    5   29 2
    12    5    6 1
    13    6    7 ar
    14    6   11 ar
    15    7    8 ar
    16    7   33 1
    17    8   34 1
    18    8    9 ar
    19    9   10 ar
    20    9   35 1
    21   10   11 ar
    22   10   36 1
    23   11   12 1
    24   12   13 1
    25   13   37 1
    26   13   38 1
    27   13   14 1
    28   14   15 ar
    29   14   28 ar
    30   15   39 1
    31   15   16 ar
    32   16   26 ar
    33   16   17 1
    34   17   31 2
    35   18   19 1
    36   18   40 1
    37   18   41 1
    38   19   42 1
    39   19   43 1
    40   20   21 1
    41   20   45 1
    42   20   44 1
    43   21   46 1
    44   21   47 1
    45   22   30 2
    46   22   23 1
    47   23   25 1
    48   23   24 1
    49   23   48 1
    50   24   25 1
    51   24   49 1
    52   24   50 1
    53   25   51 1
    54   25   52 1
    55   26   27 ar
    56   26   32 1
    57   27   28 ar
    58   27   53 1
    59   28   54 1
@<TRIPOS>SUBSTRUCTURE
1 UNL1 1
@<TRIPOS>COMMENT
Olaparib
PLANTSproteinTorsions
70
3 69.8234
48 63.7860
123 71.6249
171 171.8626
348 322.8145
606 20.2842
632 39.2738
655 80.0295
678 169.2908
700 110.3618
773 33.3312
807 189.9369
891 22.7896
933 135.2145
999 174.3741
1020 128.0950
1361 180.5749
1371 6.6531
1544 139.9727
1649 62.7635
1689 4.5624
1736 127.0833
1771 240.9455
2012 41.6199
2070 185.2090
2082 5.0126
2147 309.0044
2300 25.5283
2527 311.5874
2551 296.0677
2605 97.4263
2653 250.0062
2739 311.9605
2807 145.5566
2841 12.2311
2875 150.5121
2885 121.9885
2915 248.5910
3074 53.9826
3130 202.5253
3421 163.0601
3586 98.3866
3784 56.2250
3818 91.2152
3881 86.1267
3933 175.7295
4033 47.6386
4046 228.8389
4094 130.4125
4145 158.7546
4208 70.1218
4235 48.3548
4332 224.5209
4568 75.0354
4685 253.6545
4749 11.8662
4805 241.4456
4858 233.8384
4871 175.0552
4945 18.0834
4999 242.0623
5010 219.7832
5106 63.3186
5130 185.4281
5249 179.3513
5258 258.6382
5318 263.8261
5369 71.1606
5589 131.6954
5645 218.0665
PLANTSmolcadARTstart hb
PLANTSmolcadARTstart HB
LINES
23.7821 7.39574 18.8976 22.5162 6.41286 18.199 0 255 0 5
PLANTSmolcadARTstart HBCH
LINES
PLANTSmolcadARTstart HB-CHO
LINES
PLANTSmolcadARTend
PLANTSmolcadARTstart HB_WATER
LINES
PLANTSmolcadARTend

PLANTSmolcadARTend

