@<TRIPOS>MOLECULE
Olaparib_entry_00001_conf_53
55 59 1
SMALL
NO_CHARGES


@<TRIPOS>ATOM
      1 N         -17.4177   -4.8624    8.6146 N.am      1 UNL1        0.0000
      2 N         -17.0763   -2.2875    8.6586 N.am      1 UNL1        0.0000
      3 N         -15.5592  -10.4062   10.1144 N.2       1 UNL1        0.0000
      4 N         -15.8443  -11.6729    9.9336 N.am      1 UNL1        0.0000
      5 C         -15.2818  -12.6615   10.6429 C.2       1 UNL1        0.0000
      6 C         -14.3556  -12.3381   11.6131 C.ar      1 UNL1        0.0000
      7 C         -13.7251  -13.3291   12.3665 C.ar      1 UNL1        0.0000
      8 C         -12.7873  -12.9839   13.3157 C.ar      1 UNL1        0.0000
      9 C         -12.5179  -11.6403   13.4687 C.ar      1 UNL1        0.0000
     10 C         -13.1355  -10.6464   12.7280 C.ar      1 UNL1        0.0000
     11 C         -14.0639  -10.9985   11.7932 C.ar      1 UNL1        0.0000
     12 C         -14.6521  -10.0049   11.0574 C.2       1 UNL1        0.0000
     13 C         -14.4755   -8.5659   11.2023 C.3       1 UNL1        0.0000
     14 C         -15.7883   -7.8960   11.4151 C.ar      1 UNL1        0.0000
     15 C         -16.3350   -7.2622   10.2850 C.ar      1 UNL1        0.0000
     16 C         -17.5393   -6.6075   10.3844 C.ar      1 UNL1        0.0000
     17 C         -18.1390   -5.9280    9.2139 C.2       1 UNL1        0.0000
     18 C         -17.9612   -4.1862    7.4813 C.3       1 UNL1        0.0000
     19 C         -17.4610   -2.7631    7.3552 C.3       1 UNL1        0.0000
     20 C         -15.9762   -2.9922    9.3259 C.3       1 UNL1        0.0000
     21 C         -16.1332   -4.4833    9.1735 C.3       1 UNL1        0.0000
     22 C         -17.7083   -1.2065    9.2801 C.2       1 UNL1        0.0000
     23 C         -18.8230   -0.4153    8.7524 C.3       1 UNL1        0.0000
     24 C         -18.4496    0.8124    7.9527 C.3       1 UNL1        0.0000
     25 C         -19.0970    0.9552    9.2587 C.3       1 UNL1        0.0000
     26 C         -18.2628   -6.5321   11.5509 C.ar      1 UNL1        0.0000
     27 C         -17.7267   -7.1529   12.6564 C.ar      1 UNL1        0.0000
     28 C         -16.4976   -7.8209   12.5588 C.ar      1 UNL1        0.0000
     29 O         -15.5430  -13.8816   10.4851 O.2       1 UNL1        0.0000
     30 O         -17.2822   -0.8540   10.4374 O.2       1 UNL1        0.0000
     31 O         -19.2505   -6.2633    8.7438 O.2       1 UNL1        0.0000
     32 F         -19.4547   -5.8689   11.5986 F         1 UNL1        0.0000
     33 H         -13.9617  -14.3219   12.2134 H         1 UNL1        0.0000
     34 H         -12.3086  -13.6981   13.8849 H         1 UNL1        0.0000
     35 H         -11.8180  -11.3604   14.1730 H         1 UNL1        0.0000
     36 H         -12.8975   -9.6538   12.8809 H         1 UNL1        0.0000
     37 H         -14.0208   -8.1757   10.3157 H         1 UNL1        0.0000
     38 H         -13.8522   -8.3782   12.0517 H         1 UNL1        0.0000
     39 H         -15.8333   -7.2883    9.3839 H         1 UNL1        0.0000
     40 H         -19.0274   -4.1680    7.5723 H         1 UNL1        0.0000
     41 H         -17.6478   -4.7179    6.6067 H         1 UNL1        0.0000
     42 H         -18.2380   -2.1428    6.9607 H         1 UNL1        0.0000
     43 H         -16.6198   -2.7318    6.6943 H         1 UNL1        0.0000
     44 H         -15.9776   -2.7434   10.3664 H         1 UNL1        0.0000
     45 H         -15.0516   -2.6954    8.8765 H         1 UNL1        0.0000
     46 H         -16.0342   -4.9377   10.1372 H         1 UNL1        0.0000
     47 H         -15.3774   -4.8179    8.4952 H         1 UNL1        0.0000
     48 H         -19.4269   -1.2891    8.6259 H         1 UNL1        0.0000
     49 H         -18.9874    1.0532    7.0594 H         1 UNL1        0.0000
     50 H         -17.5487    1.1817    7.5089 H         1 UNL1        0.0000
     51 H         -20.1054    1.3089    9.3151 H         1 UNL1        0.0000
     52 H         -18.8558    1.4815   10.1576 H         1 UNL1        0.0000
     53 H         -18.2302   -7.1265   13.5575 H         1 UNL1        0.0000
     54 H         -16.1178   -8.2777   13.4030 H         1 UNL1        0.0000
     55 H         -16.5049  -11.9098    9.2427 H         1 UNL1        0.0000
@<TRIPOS>BOND
     1    1   18 1
     2    1   21 1
     3    1   17 am
     4    2   19 1
     5    2   20 1
     6    2   22 am
     7    3    4 1
     8    3   12 2
     9    4    5 am
    10    4   55 1
    11    5   29 2
    12    5    6 1
    13    6    7 ar
    14    6   11 ar
    15    7    8 ar
    16    7   33 1
    17    8   34 1
    18    8    9 ar
    19    9   10 ar
    20    9   35 1
    21   10   11 ar
    22   10   36 1
    23   11   12 1
    24   12   13 1
    25   13   37 1
    26   13   38 1
    27   13   14 1
    28   14   15 ar
    29   14   28 ar
    30   15   39 1
    31   15   16 ar
    32   16   26 ar
    33   16   17 1
    34   17   31 2
    35   18   19 1
    36   18   40 1
    37   18   41 1
    38   19   42 1
    39   19   43 1
    40   20   21 1
    41   20   45 1
    42   20   44 1
    43   21   46 1
    44   21   47 1
    45   22   30 2
    46   22   23 1
    47   23   25 1
    48   23   24 1
    49   23   48 1
    50   24   25 1
    51   24   49 1
    52   24   50 1
    53   25   51 1
    54   25   52 1
    55   26   27 ar
    56   26   32 1
    57   27   28 ar
    58   27   53 1
    59   28   54 1
@<TRIPOS>SUBSTRUCTURE
1 UNL1 1
@<TRIPOS>COMMENT
Olaparib
PLANTSproteinTorsions
70
3 220.8756
48 239.0895
123 66.3448
171 94.8045
348 347.1353
606 94.9806
632 246.8575
655 253.4169
678 191.5248
700 7.4959
773 37.9270
807 153.7502
891 160.0734
933 33.0266
999 309.7772
1020 109.8061
1361 72.7103
1371 25.6824
1544 12.8158
1649 164.0036
1689 20.6128
1736 314.5324
1771 167.4753
2012 13.2490
2070 100.2610
2082 207.5296
2147 24.3920
2300 202.3700
2527 107.8028
2551 158.8666
2605 62.7297
2653 142.6274
2739 88.9402
2807 134.8223
2841 193.2856
2875 222.9261
2885 328.4321
2915 93.7094
3074 4.8343
3130 87.9351
3421 120.9571
3586 206.9299
3784 126.1465
3818 147.6134
3881 27.8434
3933 141.8970
4033 59.6094
4046 295.6079
4094 133.7054
4145 190.9001
4208 93.5913
4235 158.9156
4332 112.4200
4568 131.4738
4685 300.5366
4749 247.6772
4805 247.5691
4858 271.6166
4871 129.1693
4945 66.8496
4999 182.1375
5010 142.2341
5106 183.8659
5130 236.8578
5249 204.0118
5258 224.3242
5318 20.1743
5369 123.9672
5589 170.1465
5645 178.2215
PLANTSmolcadARTstart hb
PLANTSmolcadARTstart HB
LINES
-17.2822 -0.854023 10.4374 -16.2245 -1.66358 12.0604 0 255 0 5
PLANTSmolcadARTstart HBCH
LINES
PLANTSmolcadARTstart HB-CHO
LINES
PLANTSmolcadARTend
PLANTSmolcadARTstart HB_WATER
LINES
PLANTSmolcadARTend

PLANTSmolcadARTend

