@<TRIPOS>MOLECULE
Olaparib_entry_00001_conf_11
55 59 1
SMALL
NO_CHARGES


@<TRIPOS>ATOM
      1 N          10.2753   13.5611    1.3292 N.am      1 UNL1        0.0000
      2 N          12.3692   14.8590    0.5051 N.am      1 UNL1        0.0000
      3 N          10.5830    9.6814    8.2242 N.2       1 UNL1        0.0000
      4 N          10.5150    8.6258    8.9987 N.am      1 UNL1        0.0000
      5 C          11.2703    7.5330    8.8198 C.2       1 UNL1        0.0000
      6 C          12.1660    7.5098    7.7706 C.ar      1 UNL1        0.0000
      7 C          12.9621    6.3899    7.5272 C.ar      1 UNL1        0.0000
      8 C          13.8346    6.3811    6.4603 C.ar      1 UNL1        0.0000
      9 C          13.8698    7.5118    5.6720 C.ar      1 UNL1        0.0000
     10 C          13.0855    8.6298    5.9015 C.ar      1 UNL1        0.0000
     11 C          12.2273    8.6293    6.9614 C.ar      1 UNL1        0.0000
     12 C          11.4466    9.7357    7.1638 C.2       1 UNL1        0.0000
     13 C          11.4708   10.9904    6.4235 C.3       1 UNL1        0.0000
     14 C          10.8021   10.8320    5.1024 C.ar      1 UNL1        0.0000
     15 C          10.4913   12.0294    4.4335 C.ar      1 UNL1        0.0000
     16 C           9.8635   11.9866    3.2117 C.ar      1 UNL1        0.0000
     17 C           9.5202   13.2295    2.4846 C.2       1 UNL1        0.0000
     18 C           9.9707   14.7489    0.5989 C.3       1 UNL1        0.0000
     19 C          11.1653   15.2938   -0.1541 C.3       1 UNL1        0.0000
     20 C          12.6133   13.4135    0.5589 C.3       1 UNL1        0.0000
     21 C          11.3479   12.6761    0.9146 C.3       1 UNL1        0.0000
     22 C          13.2780   15.7547    1.0760 C.2       1 UNL1        0.0000
     23 C          13.1686   17.2154    1.1162 C.3       1 UNL1        0.0000
     24 C          13.9720   17.9729    0.0833 C.3       1 UNL1        0.0000
     25 C          14.3295   18.0604    1.5010 C.3       1 UNL1        0.0000
     26 C           9.5115   10.8146    2.5853 C.ar      1 UNL1        0.0000
     27 C           9.8162    9.6432    3.2410 C.ar      1 UNL1        0.0000
     28 C          10.4558    9.6832    4.4882 C.ar      1 UNL1        0.0000
     29 O          11.2204    6.5118    9.5524 O.2       1 UNL1        0.0000
     30 O          14.3264   15.2657    1.6300 O.2       1 UNL1        0.0000
     31 O           8.5938   13.9863    2.8557 O.2       1 UNL1        0.0000
     32 F           8.8882   10.8248    1.3711 F         1 UNL1        0.0000
     33 H          12.8981    5.5674    8.1471 H         1 UNL1        0.0000
     34 H          14.4333    5.5656    6.2606 H         1 UNL1        0.0000
     35 H          14.5152    7.5253    4.8673 H         1 UNL1        0.0000
     36 H          13.1492    9.4517    5.2804 H         1 UNL1        0.0000
     37 H          12.4867   11.2896    6.2703 H         1 UNL1        0.0000
     38 H          10.9466   11.7341    6.9871 H         1 UNL1        0.0000
     39 H          10.7336   12.9376    4.8590 H         1 UNL1        0.0000
     40 H           9.6290   15.4951    1.2859 H         1 UNL1        0.0000
     41 H           9.2192   14.5012   -0.1222 H         1 UNL1        0.0000
     42 H          11.1266   16.3627   -0.1643 H         1 UNL1        0.0000
     43 H          11.1531   14.9343   -1.1622 H         1 UNL1        0.0000
     44 H          13.3587   13.2089    1.2985 H         1 UNL1        0.0000
     45 H          12.9463   13.0823   -0.4025 H         1 UNL1        0.0000
     46 H          11.5603   12.0000    1.7164 H         1 UNL1        0.0000
     47 H          11.0183   12.1625    0.0367 H         1 UNL1        0.0000
     48 H          12.1526   17.1634    1.4469 H         1 UNL1        0.0000
     49 H          13.5432   18.8181   -0.4138 H         1 UNL1        0.0000
     50 H          14.4911   17.7094   -0.8145 H         1 UNL1        0.0000
     51 H          14.1679   18.9744    2.0334 H         1 UNL1        0.0000
     52 H          15.2270   17.8885    2.0562 H         1 UNL1        0.0000
     53 H           9.5736    8.7349    2.8137 H         1 UNL1        0.0000
     54 H          10.6726    8.7903    4.9587 H         1 UNL1        0.0000
     55 H           9.8777    8.6367    9.7494 H         1 UNL1        0.0000
@<TRIPOS>BOND
     1    1   18 1
     2    1   21 1
     3    1   17 am
     4    2   19 1
     5    2   20 1
     6    2   22 am
     7    3    4 1
     8    3   12 2
     9    4    5 am
    10    4   55 1
    11    5   29 2
    12    5    6 1
    13    6    7 ar
    14    6   11 ar
    15    7    8 ar
    16    7   33 1
    17    8   34 1
    18    8    9 ar
    19    9   10 ar
    20    9   35 1
    21   10   11 ar
    22   10   36 1
    23   11   12 1
    24   12   13 1
    25   13   37 1
    26   13   38 1
    27   13   14 1
    28   14   15 ar
    29   14   28 ar
    30   15   39 1
    31   15   16 ar
    32   16   26 ar
    33   16   17 1
    34   17   31 2
    35   18   19 1
    36   18   40 1
    37   18   41 1
    38   19   42 1
    39   19   43 1
    40   20   21 1
    41   20   45 1
    42   20   44 1
    43   21   46 1
    44   21   47 1
    45   22   30 2
    46   22   23 1
    47   23   25 1
    48   23   24 1
    49   23   48 1
    50   24   25 1
    51   24   49 1
    52   24   50 1
    53   25   51 1
    54   25   52 1
    55   26   27 ar
    56   26   32 1
    57   27   28 ar
    58   27   53 1
    59   28   54 1
@<TRIPOS>SUBSTRUCTURE
1 UNL1 1
@<TRIPOS>COMMENT
Olaparib
PLANTSproteinTorsions
70
3 211.9679
48 25.0053
123 234.3790
171 68.3778
348 60.8116
606 58.5493
632 7.2045
655 310.4184
678 34.7804
700 5.2904
773 205.8623
807 276.8107
891 215.1222
933 102.5082
999 4.9199
1020 151.0309
1361 310.2106
1371 173.8471
1544 338.1870
1649 109.8901
1689 78.5872
1736 54.1750
1771 110.4680
2012 100.7389
2070 23.1120
2082 246.4304
2147 319.8220
2300 225.3726
2527 210.8701
2551 91.4377
2605 147.0466
2653 258.9466
2739 78.4339
2807 256.3810
2841 123.2688
2875 354.0977
2885 298.2180
2915 36.7833
3074 276.6802
3130 89.7577
3421 120.2628
3586 69.4885
3784 183.8463
3818 215.1770
3881 67.2931
3933 205.3626
4033 268.6366
4046 140.2175
4094 56.5802
4145 77.7770
4208 246.5227
4235 242.2584
4332 200.3961
4568 319.6896
4685 90.5065
4749 213.7591
4805 115.2601
4858 229.3665
4871 270.7073
4945 296.6840
4999 231.1228
5010 244.4485
5106 31.4560
5130 191.3364
5249 80.9435
5258 46.1054
5318 123.3782
5369 254.5332
5589 215.4138
5645 213.0925
PLANTSmolcadARTstart hb
PLANTSmolcadARTstart HB
LINES
11.2204 6.51182 9.55236 10.371 4.942 10.541 0 255 0 5
PLANTSmolcadARTstart HBCH
LINES
PLANTSmolcadARTstart HB-CHO
LINES
PLANTSmolcadARTend
PLANTSmolcadARTstart HB_WATER
LINES
PLANTSmolcadARTend

PLANTSmolcadARTend

