@<TRIPOS>MOLECULE
Olaparib_entry_00001_conf_42
55 59 1
SMALL
NO_CHARGES


@<TRIPOS>ATOM
      1 N          11.2410   12.7301   -0.2148 N.am      1 UNL1        0.0000
      2 N          11.0464   15.1356   -1.1761 N.am      1 UNL1        0.0000
      3 N          11.9007    9.3338    7.0503 N.2       1 UNL1        0.0000
      4 N          11.4598    9.0238    8.2453 N.am      1 UNL1        0.0000
      5 C          10.2298    8.5418    8.4728 C.2       1 UNL1        0.0000
      6 C           9.3795    8.3604    7.4015 C.ar      1 UNL1        0.0000
      7 C           8.0820    7.8806    7.5844 C.ar      1 UNL1        0.0000
      8 C           7.2429    7.7276    6.5018 C.ar      1 UNL1        0.0000
      9 C           7.7487    8.0689    5.2654 C.ar      1 UNL1        0.0000
     10 C           9.0338    8.5465    5.0693 C.ar      1 UNL1        0.0000
     11 C           9.8570    8.6917    6.1468 C.ar      1 UNL1        0.0000
     12 C          11.1182    9.1816    5.9377 C.2       1 UNL1        0.0000
     13 C          11.7502    9.5000    4.6640 C.3       1 UNL1        0.0000
     14 C          11.0574   10.6425    4.0067 C.ar      1 UNL1        0.0000
     15 C          11.0915   10.6437    2.6008 C.ar      1 UNL1        0.0000
     16 C          10.4885   11.6629    1.9034 C.ar      1 UNL1        0.0000
     17 C          10.5102   11.6941    0.4236 C.2       1 UNL1        0.0000
     18 C          11.2893   12.7905   -1.6400 C.3       1 UNL1        0.0000
     19 C          11.5194   14.1942   -2.1575 C.3       1 UNL1        0.0000
     20 C          11.7130   15.1258    0.1306 C.3       1 UNL1        0.0000
     21 C          11.9279   13.7113    0.6044 C.3       1 UNL1        0.0000
     22 C          10.0007   16.0269   -1.4336 C.2       1 UNL1        0.0000
     23 C           9.2313   16.1478   -2.6748 C.3       1 UNL1        0.0000
     24 C           9.8675   16.9644   -3.7769 C.3       1 UNL1        0.0000
     25 C           8.6643   17.4543   -3.1006 C.3       1 UNL1        0.0000
     26 C           9.8356   12.7092    2.5108 C.ar      1 UNL1        0.0000
     27 C           9.8029   12.7071    3.8869 C.ar      1 UNL1        0.0000
     28 C          10.4181   11.6693    4.6017 C.ar      1 UNL1        0.0000
     29 O           9.7895    8.2375    9.6110 O.2       1 UNL1        0.0000
     30 O           9.6625   16.8335   -0.4954 O.2       1 UNL1        0.0000
     31 O           9.9097   10.8426   -0.2714 O.2       1 UNL1        0.0000
     32 F           9.2526   13.6986    1.7733 F         1 UNL1        0.0000
     33 H           7.7503    7.6393    8.5314 H         1 UNL1        0.0000
     34 H           6.2803    7.3744    6.6119 H         1 UNL1        0.0000
     35 H           7.1365    7.9631    4.4419 H         1 UNL1        0.0000
     36 H           9.3645    8.7887    4.1220 H         1 UNL1        0.0000
     37 H          11.7030    8.6440    4.0236 H         1 UNL1        0.0000
     38 H          12.7694    9.7730    4.8429 H         1 UNL1        0.0000
     39 H          11.5683    9.8817    2.0943 H         1 UNL1        0.0000
     40 H          10.3602   12.4294   -2.0297 H         1 UNL1        0.0000
     41 H          12.1139   12.1880   -1.9612 H         1 UNL1        0.0000
     42 H          10.9854   14.3312   -3.0742 H         1 UNL1        0.0000
     43 H          12.5635   14.3484   -2.3351 H         1 UNL1        0.0000
     44 H          11.1048   15.6456    0.8408 H         1 UNL1        0.0000
     45 H          12.6646   15.6063    0.0377 H         1 UNL1        0.0000
     46 H          11.5671   13.6287    1.6084 H         1 UNL1        0.0000
     47 H          12.9753   13.5066    0.5389 H         1 UNL1        0.0000
     48 H           8.8175   15.1690   -2.5527 H         1 UNL1        0.0000
     49 H           9.8122   16.6289   -4.7916 H         1 UNL1        0.0000
     50 H          10.8463   17.3558   -3.9606 H         1 UNL1        0.0000
     51 H           7.7337   17.4829   -3.6280 H         1 UNL1        0.0000
     52 H           8.4107   18.3599   -2.5918 H         1 UNL1        0.0000
     53 H           9.3249   13.4699    4.3926 H         1 UNL1        0.0000
     54 H          10.3791   11.6919    5.6330 H         1 UNL1        0.0000
     55 H          12.0624    9.1508    9.0137 H         1 UNL1        0.0000
@<TRIPOS>BOND
     1    1   18 1
     2    1   21 1
     3    1   17 am
     4    2   19 1
     5    2   20 1
     6    2   22 am
     7    3    4 1
     8    3   12 2
     9    4    5 am
    10    4   55 1
    11    5   29 2
    12    5    6 1
    13    6    7 ar
    14    6   11 ar
    15    7    8 ar
    16    7   33 1
    17    8   34 1
    18    8    9 ar
    19    9   10 ar
    20    9   35 1
    21   10   11 ar
    22   10   36 1
    23   11   12 1
    24   12   13 1
    25   13   37 1
    26   13   38 1
    27   13   14 1
    28   14   15 ar
    29   14   28 ar
    30   15   39 1
    31   15   16 ar
    32   16   26 ar
    33   16   17 1
    34   17   31 2
    35   18   19 1
    36   18   40 1
    37   18   41 1
    38   19   42 1
    39   19   43 1
    40   20   21 1
    41   20   45 1
    42   20   44 1
    43   21   46 1
    44   21   47 1
    45   22   30 2
    46   22   23 1
    47   23   25 1
    48   23   24 1
    49   23   48 1
    50   24   25 1
    51   24   49 1
    52   24   50 1
    53   25   51 1
    54   25   52 1
    55   26   27 ar
    56   26   32 1
    57   27   28 ar
    58   27   53 1
    59   28   54 1
@<TRIPOS>SUBSTRUCTURE
1 UNL1 1
@<TRIPOS>COMMENT
Olaparib
PLANTSproteinTorsions
70
3 46.0973
48 357.9783
123 170.2932
171 21.7168
348 2.4764
606 38.2458
632 137.7071
655 329.2243
678 121.2583
700 9.4095
773 181.9434
807 137.7070
891 67.7941
933 136.9740
999 134.4306
1020 134.8310
1361 186.7463
1371 235.5900
1544 60.9295
1649 357.6626
1689 26.7131
1736 99.8370
1771 82.6421
2012 18.4551
2070 128.7672
2082 312.6407
2147 120.9987
2300 221.9413
2527 10.1837
2551 95.8195
2605 69.7856
2653 24.7845
2739 9.3492
2807 251.5594
2841 255.1359
2875 264.0223
2885 45.3049
2915 265.6180
3074 266.8433
3130 159.2314
3421 148.5882
3586 44.0023
3784 297.0381
3818 244.8954
3881 153.0425
3933 172.8256
4033 220.0196
4046 65.5805
4094 312.9905
4145 41.3512
4208 127.9266
4235 228.4135
4332 154.0530
4568 146.0362
4685 272.4508
4749 272.9406
4805 275.6065
4858 275.2406
4871 282.8578
4945 41.2654
4999 290.3012
5010 0.5497
5106 152.9960
5130 32.4146
5249 134.7490
5258 202.9788
5318 91.9202
5369 127.7572
5589 205.8069
5645 259.9736
PLANTSmolcadARTstart hb
PLANTSmolcadARTstart HB
LINES
12.0624 9.15082 9.01375 13.015 10.092 10.187 0 255 0 5
PLANTSmolcadARTstart HBCH
LINES
PLANTSmolcadARTstart HB-CHO
LINES
PLANTSmolcadARTend
PLANTSmolcadARTstart HB_WATER
LINES
PLANTSmolcadARTend

PLANTSmolcadARTend

