@<TRIPOS>MOLECULE
Olaparib_entry_00001_conf_34
55 59 1
SMALL
NO_CHARGES


@<TRIPOS>ATOM
      1 N          15.4429   -5.3470   13.5016 N.am      1 UNL1        0.0000
      2 N          16.4832   -3.6457   15.1664 N.am      1 UNL1        0.0000
      3 N          17.5511  -10.5930    8.8200 N.2       1 UNL1        0.0000
      4 N          17.6738  -11.8899    8.6732 N.am      1 UNL1        0.0000
      5 C          16.6828  -12.6767    8.2308 C.2       1 UNL1        0.0000
      6 C          15.4702  -12.1007    7.9122 C.ar      1 UNL1        0.0000
      7 C          14.3991  -12.8760    7.4663 C.ar      1 UNL1        0.0000
      8 C          13.1903  -12.2817    7.1743 C.ar      1 UNL1        0.0000
      9 C          13.1071  -10.9161    7.3463 C.ar      1 UNL1        0.0000
     10 C          14.1615  -10.1346    7.7882 C.ar      1 UNL1        0.0000
     11 C          15.3541  -10.7322    8.0720 C.ar      1 UNL1        0.0000
     12 C          16.3808   -9.9476    8.5246 C.2       1 UNL1        0.0000
     13 C          16.3973   -8.4977    8.6683 C.3       1 UNL1        0.0000
     14 C          16.9292   -8.1099   10.0040 C.ar      1 UNL1        0.0000
     15 C          15.9757   -7.6297   10.9194 C.ar      1 UNL1        0.0000
     16 C          16.3715   -7.2368   12.1755 C.ar      1 UNL1        0.0000
     17 C          15.3924   -6.7239   13.1601 C.2       1 UNL1        0.0000
     18 C          14.5122   -4.8146   14.4435 C.3       1 UNL1        0.0000
     19 C          15.0443   -3.5947   15.1645 C.3       1 UNL1        0.0000
     20 C          17.1520   -3.6060   13.8614 C.3       1 UNL1        0.0000
     21 C          16.4485   -4.5064   12.8787 C.3       1 UNL1        0.0000
     22 C          17.2298   -3.7304   16.3452 C.2       1 UNL1        0.0000
     23 C          16.7113   -3.7928   17.7143 C.3       1 UNL1        0.0000
     24 C          17.7437   -3.8879   18.8148 C.3       1 UNL1        0.0000
     25 C          16.8613   -5.0230   18.5351 C.3       1 UNL1        0.0000
     26 C          17.6766   -7.2859   12.6048 C.ar      1 UNL1        0.0000
     27 C          18.6090   -7.7561   11.7079 C.ar      1 UNL1        0.0000
     28 C          18.2088   -8.1568   10.4251 C.ar      1 UNL1        0.0000
     29 O          16.7817  -13.9217    8.0822 O.2       1 UNL1        0.0000
     30 O          18.5078   -3.7586   16.2387 O.2       1 UNL1        0.0000
     31 O          14.5317   -7.4616   13.6929 O.2       1 UNL1        0.0000
     32 F          18.0196   -6.8833   13.8630 F         1 UNL1        0.0000
     33 H          14.5121  -13.8956    7.3543 H         1 UNL1        0.0000
     34 H          12.3847  -12.8334    6.8429 H         1 UNL1        0.0000
     35 H          12.2107  -10.4516    7.1346 H         1 UNL1        0.0000
     36 H          14.0474   -9.1150    7.9011 H         1 UNL1        0.0000
     37 H          15.4008   -8.1220    8.5634 H         1 UNL1        0.0000
     38 H          17.0310   -8.0829    7.9122 H         1 UNL1        0.0000
     39 H          14.9817   -7.5722   10.6487 H         1 UNL1        0.0000
     40 H          14.2877   -5.5700   15.1677 H         1 UNL1        0.0000
     41 H          13.6392   -4.5147   13.9012 H         1 UNL1        0.0000
     42 H          14.6831   -3.5864   16.1713 H         1 UNL1        0.0000
     43 H          14.7130   -2.7066   14.6674 H         1 UNL1        0.0000
     44 H          18.1647   -3.9322   13.9740 H         1 UNL1        0.0000
     45 H          17.1263   -2.6031   13.4893 H         1 UNL1        0.0000
     46 H          17.1762   -5.1363   12.4109 H         1 UNL1        0.0000
     47 H          15.9488   -3.8802   12.1706 H         1 UNL1        0.0000
     48 H          15.8776   -3.1716   17.4623 H         1 UNL1        0.0000
     49 H          17.6199   -3.3228   19.7151 H         1 UNL1        0.0000
     50 H          18.8029   -3.7477   18.8734 H         1 UNL1        0.0000
     51 H          16.0997   -5.2886   19.2381 H         1 UNL1        0.0000
     52 H          17.0226   -6.0558   18.3103 H         1 UNL1        0.0000
     53 H          19.6033   -7.8137   11.9803 H         1 UNL1        0.0000
     54 H          18.9281   -8.5051    9.7718 H         1 UNL1        0.0000
     55 H          18.5371  -12.3066    8.8987 H         1 UNL1        0.0000
@<TRIPOS>BOND
     1    1   18 1
     2    1   21 1
     3    1   17 am
     4    2   19 1
     5    2   20 1
     6    2   22 am
     7    3    4 1
     8    3   12 2
     9    4    5 am
    10    4   55 1
    11    5   29 2
    12    5    6 1
    13    6    7 ar
    14    6   11 ar
    15    7    8 ar
    16    7   33 1
    17    8   34 1
    18    8    9 ar
    19    9   10 ar
    20    9   35 1
    21   10   11 ar
    22   10   36 1
    23   11   12 1
    24   12   13 1
    25   13   37 1
    26   13   38 1
    27   13   14 1
    28   14   15 ar
    29   14   28 ar
    30   15   39 1
    31   15   16 ar
    32   16   26 ar
    33   16   17 1
    34   17   31 2
    35   18   19 1
    36   18   40 1
    37   18   41 1
    38   19   42 1
    39   19   43 1
    40   20   21 1
    41   20   45 1
    42   20   44 1
    43   21   46 1
    44   21   47 1
    45   22   30 2
    46   22   23 1
    47   23   25 1
    48   23   24 1
    49   23   48 1
    50   24   25 1
    51   24   49 1
    52   24   50 1
    53   25   51 1
    54   25   52 1
    55   26   27 ar
    56   26   32 1
    57   27   28 ar
    58   27   53 1
    59   28   54 1
@<TRIPOS>SUBSTRUCTURE
1 UNL1 1
@<TRIPOS>COMMENT
Olaparib
PLANTSproteinTorsions
70
3 24.3706
48 174.8322
123 354.8921
171 351.6660
348 61.5253
606 31.6038
632 289.8015
655 350.3420
678 81.7602
700 28.7971
773 157.8553
807 86.5910
891 154.8572
933 147.8322
999 58.8474
1020 78.3827
1361 21.6998
1371 316.1788
1544 183.6747
1649 87.1885
1689 34.3803
1736 133.2747
1771 74.9725
2012 95.7088
2070 220.2486
2082 37.4719
2147 150.5926
2300 270.1255
2527 181.5529
2551 106.9780
2605 334.9479
2653 160.5364
2739 134.7711
2807 185.2267
2841 284.9242
2875 158.7737
2885 6.5291
2915 242.7642
3074 141.8650
3130 166.3263
3421 125.6620
3586 32.5668
3784 135.9394
3818 88.7784
3881 104.3069
3933 68.3467
4033 77.8484
4046 200.3382
4094 94.2129
4145 39.3482
4208 128.9983
4235 264.7198
4332 158.8265
4568 265.1141
4685 248.9330
4749 306.0743
4805 207.9876
4858 197.8889
4871 110.4081
4945 304.7195
4999 201.1727
5010 258.9394
5106 239.8704
5130 217.8571
5249 252.3038
5258 277.3286
5318 265.5775
5369 50.5274
5589 135.0193
5645 164.5523
PLANTSmolcadARTstart hb
PLANTSmolcadARTstart HB
LINES
PLANTSmolcadARTstart HBCH
LINES
PLANTSmolcadARTstart HB-CHO
LINES
PLANTSmolcadARTend
PLANTSmolcadARTstart HB_WATER
LINES
PLANTSmolcadARTend

PLANTSmolcadARTend

