@<TRIPOS>MOLECULE
Olaparib_entry_00001_conf_57
55 59 1
SMALL
NO_CHARGES


@<TRIPOS>ATOM
      1 N          28.4888  -12.5856   17.4135 N.am      1 UNL1        0.0000
      2 N          29.4436  -12.8749   15.0150 N.am      1 UNL1        0.0000
      3 N          29.6996  -14.6775   24.0697 N.2       1 UNL1        0.0000
      4 N          29.2342  -14.4932   25.2814 N.am      1 UNL1        0.0000
      5 C          28.0192  -14.9028   25.6723 C.2       1 UNL1        0.0000
      6 C          27.2121  -15.5509   24.7600 C.ar      1 UNL1        0.0000
      7 C          25.9310  -15.9802   25.1085 C.ar      1 UNL1        0.0000
      8 C          25.1342  -16.6066   24.1745 C.ar      1 UNL1        0.0000
      9 C          25.6644  -16.7760   22.9131 C.ar      1 UNL1        0.0000
     10 C          26.9337  -16.3547   22.5533 C.ar      1 UNL1        0.0000
     11 C          27.7150  -15.7383   23.4857 C.ar      1 UNL1        0.0000
     12 C          28.9604  -15.3124   23.1087 C.2       1 UNL1        0.0000
     13 C          29.6188  -15.5114   21.8242 C.3       1 UNL1        0.0000
     14 C          30.0533  -14.2077   21.2509 C.ar      1 UNL1        0.0000
     15 C          29.2062  -13.6660   20.2677 C.ar      1 UNL1        0.0000
     16 C          29.5281  -12.4703   19.6716 C.ar      1 UNL1        0.0000
     17 C          28.6587  -11.8761   18.6312 C.2       1 UNL1        0.0000
     18 C          27.6543  -12.0470   16.3886 C.3       1 UNL1        0.0000
     19 C          28.0481  -12.5208   15.0060 C.3       1 UNL1        0.0000
     20 C          29.8444  -13.9779   15.8952 C.3       1 UNL1        0.0000
     21 C          29.1735  -13.8531   17.2389 C.3       1 UNL1        0.0000
     22 C          30.3916  -12.2116   14.2304 C.2       1 UNL1        0.0000
     23 C          30.1516  -11.0900   13.3186 C.3       1 UNL1        0.0000
     24 C          30.0522  -11.4343   11.8497 C.3       1 UNL1        0.0000
     25 C          31.1898  -10.6571   12.3466 C.3       1 UNL1        0.0000
     26 C          30.6567  -11.7507   19.9855 C.ar      1 UNL1        0.0000
     27 C          31.4852  -12.2819   20.9480 C.ar      1 UNL1        0.0000
     28 C          31.1603  -13.5023   21.5575 C.ar      1 UNL1        0.0000
     29 O          27.5559  -14.7364   26.8296 O.2       1 UNL1        0.0000
     30 O          31.6081  -12.6118   14.3027 O.2       1 UNL1        0.0000
     31 O          28.0763  -10.7792   18.7938 O.2       1 UNL1        0.0000
     32 F          30.9328  -10.5674   19.3641 F         1 UNL1        0.0000
     33 H          25.5796  -15.8293   26.0671 H         1 UNL1        0.0000
     34 H          24.1844  -16.9331   24.4085 H         1 UNL1        0.0000
     35 H          25.0840  -17.2414   22.1985 H         1 UNL1        0.0000
     36 H          27.2840  -16.5050   21.5941 H         1 UNL1        0.0000
     37 H          28.9368  -15.9836   21.1482 H         1 UNL1        0.0000
     38 H          30.4817  -16.1274   21.9702 H         1 UNL1        0.0000
     39 H          28.3456  -14.1651   19.9943 H         1 UNL1        0.0000
     40 H          27.7223  -10.9793   16.4175 H         1 UNL1        0.0000
     41 H          26.6556  -12.3850   16.5741 H         1 UNL1        0.0000
     42 H          27.8800  -11.7380   14.2966 H         1 UNL1        0.0000
     43 H          27.4592  -13.3718   14.7330 H         1 UNL1        0.0000
     44 H          30.9056  -13.9548   16.0289 H         1 UNL1        0.0000
     45 H          29.5487  -14.9035   15.4472 H         1 UNL1        0.0000
     46 H          29.9177  -13.9456   18.0023 H         1 UNL1        0.0000
     47 H          28.4378  -14.6262   17.3034 H         1 UNL1        0.0000
     48 H          29.5680  -10.5750   14.0524 H         1 UNL1        0.0000
     49 H          29.3090  -10.9650   11.2391 H         1 UNL1        0.0000
     50 H          29.9391  -12.3394   11.2902 H         1 UNL1        0.0000
     51 H          31.2780   -9.6221   12.0895 H         1 UNL1        0.0000
     52 H          32.2516  -10.7682   12.2889 H         1 UNL1        0.0000
     53 H          32.3459  -11.7811   21.2210 H         1 UNL1        0.0000
     54 H          31.7989  -13.8786   22.2759 H         1 UNL1        0.0000
     55 H          29.8059  -14.0314   25.9369 H         1 UNL1        0.0000
@<TRIPOS>BOND
     1    1   18 1
     2    1   21 1
     3    1   17 am
     4    2   19 1
     5    2   20 1
     6    2   22 am
     7    3    4 1
     8    3   12 2
     9    4    5 am
    10    4   55 1
    11    5   29 2
    12    5    6 1
    13    6    7 ar
    14    6   11 ar
    15    7    8 ar
    16    7   33 1
    17    8   34 1
    18    8    9 ar
    19    9   10 ar
    20    9   35 1
    21   10   11 ar
    22   10   36 1
    23   11   12 1
    24   12   13 1
    25   13   37 1
    26   13   38 1
    27   13   14 1
    28   14   15 ar
    29   14   28 ar
    30   15   39 1
    31   15   16 ar
    32   16   26 ar
    33   16   17 1
    34   17   31 2
    35   18   19 1
    36   18   40 1
    37   18   41 1
    38   19   42 1
    39   19   43 1
    40   20   21 1
    41   20   45 1
    42   20   44 1
    43   21   46 1
    44   21   47 1
    45   22   30 2
    46   22   23 1
    47   23   25 1
    48   23   24 1
    49   23   48 1
    50   24   25 1
    51   24   49 1
    52   24   50 1
    53   25   51 1
    54   25   52 1
    55   26   27 ar
    56   26   32 1
    57   27   28 ar
    58   27   53 1
    59   28   54 1
@<TRIPOS>SUBSTRUCTURE
1 UNL1 1
@<TRIPOS>COMMENT
Olaparib
PLANTSproteinTorsions
70
3 37.8358
48 47.7432
123 351.0600
171 52.2942
348 18.3205
606 94.3388
632 70.8486
655 25.8872
678 168.1443
700 352.7396
773 207.8449
807 312.6277
891 35.1269
933 132.2755
999 47.3885
1020 329.8427
1361 210.2181
1371 16.5043
1544 127.5863
1649 42.4323
1689 334.1125
1736 215.6173
1771 230.9396
2012 202.3585
2070 294.3784
2082 8.0349
2147 297.9971
2300 26.8264
2527 57.2060
2551 279.2784
2605 102.8003
2653 206.3498
2739 231.0889
2807 171.9536
2841 242.2514
2875 208.9023
2885 134.2860
2915 155.6608
3074 263.6585
3130 36.1759
3421 116.2322
3586 145.4489
3784 293.5477
3818 114.8674
3881 86.6985
3933 268.3340
4033 29.1741
4046 156.1842
4094 195.3806
4145 39.9732
4208 122.1276
4235 177.0506
4332 152.2148
4568 41.0846
4685 189.2237
4749 295.5881
4805 222.3508
4858 174.9418
4871 246.0352
4945 177.3091
4999 34.0326
5010 21.4562
5106 7.0751
5130 16.7201
5249 108.5925
5258 95.0224
5318 238.7468
5369 326.8842
5589 261.4258
5645 270.0132
PLANTSmolcadARTstart hb
PLANTSmolcadARTstart HB
LINES
PLANTSmolcadARTstart HBCH
LINES
PLANTSmolcadARTstart HB-CHO
LINES
PLANTSmolcadARTend
PLANTSmolcadARTstart HB_WATER
LINES
PLANTSmolcadARTend

PLANTSmolcadARTend

