@<TRIPOS>MOLECULE
Olaparib_entry_00001_conf_28
55 59 1
SMALL
NO_CHARGES


@<TRIPOS>ATOM
      1 N          19.6058   -0.3578   16.4835 N.am      1 UNL1        0.0000
      2 N          19.6771    0.4627   18.9472 N.am      1 UNL1        0.0000
      3 N          15.2683   -4.7352   13.0187 N.2       1 UNL1        0.0000
      4 N          14.8049   -5.2994   11.9299 N.am      1 UNL1        0.0000
      5 C          15.3577   -6.3861   11.3727 C.2       1 UNL1        0.0000
      6 C          16.4700   -6.9443   11.9684 C.ar      1 UNL1        0.0000
      7 C          17.0965   -8.0636   11.4189 C.ar      1 UNL1        0.0000
      8 C          18.2191   -8.5914   12.0194 C.ar      1 UNL1        0.0000
      9 C          18.6718   -7.9634   13.1604 C.ar      1 UNL1        0.0000
     10 C          18.0604   -6.8521   13.7163 C.ar      1 UNL1        0.0000
     11 C          16.9486   -6.3392   13.1158 C.ar      1 UNL1        0.0000
     12 C          16.3667   -5.2298   13.6684 C.2       1 UNL1        0.0000
     13 C          16.7387   -4.5501   14.9024 C.3       1 UNL1        0.0000
     14 C          16.6158   -3.0745   14.7450 C.ar      1 UNL1        0.0000
     15 C          17.7764   -2.3357   15.0363 C.ar      1 UNL1        0.0000
     16 C          17.7590   -0.9656   14.9303 C.ar      1 UNL1        0.0000
     17 C          18.9633   -0.1599   15.2333 C.2       1 UNL1        0.0000
     18 C          20.7724    0.3970   16.8095 C.3       1 UNL1        0.0000
     19 C          20.9600    0.5665   18.3019 C.3       1 UNL1        0.0000
     20 C          18.9709   -0.8169   18.8218 C.3       1 UNL1        0.0000
     21 C          19.0561   -1.3319   17.4080 C.3       1 UNL1        0.0000
     22 C          19.1099    1.5199   19.6649 C.2       1 UNL1        0.0000
     23 C          19.6808    2.8542   19.8670 C.3       1 UNL1        0.0000
     24 C          20.5680    3.0233   21.0796 C.3       1 UNL1        0.0000
     25 C          19.2689    3.6971   21.0201 C.3       1 UNL1        0.0000
     26 C          16.6479   -0.2529   14.5463 C.ar      1 UNL1        0.0000
     27 C          15.5124   -0.9771   14.2615 C.ar      1 UNL1        0.0000
     28 C          15.5264   -2.3751   14.3696 C.ar      1 UNL1        0.0000
     29 O          14.9272   -6.9420   10.3299 O.2       1 UNL1        0.0000
     30 O          17.9670    1.3213   20.2122 O.2       1 UNL1        0.0000
     31 O          19.4251    0.6803   14.4273 O.2       1 UNL1        0.0000
     32 F          16.6809    1.1086   14.4567 F         1 UNL1        0.0000
     33 H          16.7185   -8.4973   10.5622 H         1 UNL1        0.0000
     34 H          18.6990   -9.4180   11.6324 H         1 UNL1        0.0000
     35 H          19.5116   -8.3417   13.6248 H         1 UNL1        0.0000
     36 H          18.4397   -6.4181   14.5726 H         1 UNL1        0.0000
     37 H          17.7510   -4.7950   15.1481 H         1 UNL1        0.0000
     38 H          16.0804   -4.8685   15.6838 H         1 UNL1        0.0000
     39 H          18.6387   -2.8209   15.3290 H         1 UNL1        0.0000
     40 H          20.6896    1.3657   16.3621 H         1 UNL1        0.0000
     41 H          21.6197   -0.1401   16.4359 H         1 UNL1        0.0000
     42 H          21.3877    1.5260   18.5035 H         1 UNL1        0.0000
     43 H          21.6159   -0.1932   18.6734 H         1 UNL1        0.0000
     44 H          17.9428   -0.6797   19.0842 H         1 UNL1        0.0000
     45 H          19.4271   -1.5299   19.4763 H         1 UNL1        0.0000
     46 H          18.0719   -1.5946   17.0801 H         1 UNL1        0.0000
     47 H          19.7132   -2.1754   17.4128 H         1 UNL1        0.0000
     48 H          19.7400    3.0250   18.8126 H         1 UNL1        0.0000
     49 H          21.4706    3.5935   21.0070 H         1 UNL1        0.0000
     50 H          21.0453    2.3568   21.7673 H         1 UNL1        0.0000
     51 H          19.2275    4.7609   20.9124 H         1 UNL1        0.0000
     52 H          18.4114    3.7223   21.6583 H         1 UNL1        0.0000
     53 H          14.6503   -0.4903   13.9680 H         1 UNL1        0.0000
     54 H          14.6614   -2.8941   14.1506 H         1 UNL1        0.0000
     55 H          14.0110   -4.9056   11.5004 H         1 UNL1        0.0000
@<TRIPOS>BOND
     1    1   18 1
     2    1   21 1
     3    1   17 am
     4    2   19 1
     5    2   20 1
     6    2   22 am
     7    3    4 1
     8    3   12 2
     9    4    5 am
    10    4   55 1
    11    5   29 2
    12    5    6 1
    13    6    7 ar
    14    6   11 ar
    15    7    8 ar
    16    7   33 1
    17    8   34 1
    18    8    9 ar
    19    9   10 ar
    20    9   35 1
    21   10   11 ar
    22   10   36 1
    23   11   12 1
    24   12   13 1
    25   13   37 1
    26   13   38 1
    27   13   14 1
    28   14   15 ar
    29   14   28 ar
    30   15   39 1
    31   15   16 ar
    32   16   26 ar
    33   16   17 1
    34   17   31 2
    35   18   19 1
    36   18   40 1
    37   18   41 1
    38   19   42 1
    39   19   43 1
    40   20   21 1
    41   20   45 1
    42   20   44 1
    43   21   46 1
    44   21   47 1
    45   22   30 2
    46   22   23 1
    47   23   25 1
    48   23   24 1
    49   23   48 1
    50   24   25 1
    51   24   49 1
    52   24   50 1
    53   25   51 1
    54   25   52 1
    55   26   27 ar
    56   26   32 1
    57   27   28 ar
    58   27   53 1
    59   28   54 1
@<TRIPOS>SUBSTRUCTURE
1 UNL1 1
@<TRIPOS>COMMENT
Olaparib
PLANTSproteinTorsions
70
3 235.6957
48 234.7411
123 11.2048
171 47.1329
348 109.5333
606 341.8956
632 251.5148
655 292.7462
678 48.3332
700 216.6950
773 194.1488
807 162.8254
891 221.6538
933 235.3888
999 175.0170
1020 68.0491
1361 178.8055
1371 166.9974
1544 148.6007
1649 62.8872
1689 64.4442
1736 63.3082
1771 158.0916
2012 283.1682
2070 178.2841
2082 10.9435
2147 73.0201
2300 172.0790
2527 200.0748
2551 169.0938
2605 333.1424
2653 10.8451
2739 132.8667
2807 60.3282
2841 247.1925
2875 236.0517
2885 188.6589
2915 142.1210
3074 101.7249
3130 169.4345
3421 163.1572
3586 285.1474
3784 91.2598
3818 55.1064
3881 325.3207
3933 177.4298
4033 113.2738
4046 309.3713
4094 70.2776
4145 26.7380
4208 215.1866
4235 46.3267
4332 93.3929
4568 166.4753
4685 237.2289
4749 205.0334
4805 149.4226
4858 67.9306
4871 95.6004
4945 300.9610
4999 221.1548
5010 218.5836
5106 150.9846
5130 127.8198
5249 189.2405
5258 201.4785
5318 10.1804
5369 181.4578
5589 279.2854
5645 156.9113
PLANTSmolcadARTstart hb
PLANTSmolcadARTstart HB
LINES
14.011 -4.90556 11.5004 12.472 -4.198 10.959 0 255 0 5
PLANTSmolcadARTstart HBCH
LINES
PLANTSmolcadARTstart HB-CHO
LINES
PLANTSmolcadARTend
PLANTSmolcadARTstart HB_WATER
LINES
PLANTSmolcadARTend

PLANTSmolcadARTend

