@<TRIPOS>MOLECULE
Olaparib_entry_00001_conf_39
55 59 1
SMALL
NO_CHARGES


@<TRIPOS>ATOM
      1 N           9.6054   13.7299    1.0250 N.am      1 UNL1        0.0000
      2 N          11.0689   15.7334    0.2553 N.am      1 UNL1        0.0000
      3 N          12.7362    9.3467    6.1818 N.2       1 UNL1        0.0000
      4 N          13.7668    8.5812    6.4471 N.am      1 UNL1        0.0000
      5 C          14.9406    9.0554    6.8877 C.2       1 UNL1        0.0000
      6 C          15.0792   10.4156    7.0735 C.ar      1 UNL1        0.0000
      7 C          16.2853   10.9640    7.5112 C.ar      1 UNL1        0.0000
      8 C          16.4074   12.3277    7.6692 C.ar      1 UNL1        0.0000
      9 C          15.2985   13.0928    7.3756 C.ar      1 UNL1        0.0000
     10 C          14.0957   12.5623    6.9401 C.ar      1 UNL1        0.0000
     11 C          13.9847   11.2114    6.7895 C.ar      1 UNL1        0.0000
     12 C          12.7943   10.7048    6.3414 C.2       1 UNL1        0.0000
     13 C          11.5604   11.4325    6.0753 C.3       1 UNL1        0.0000
     14 C          11.0773   11.1569    4.6940 C.ar      1 UNL1        0.0000
     15 C          10.3359   12.1905    4.0942 C.ar      1 UNL1        0.0000
     16 C           9.8383   12.0262    2.8237 C.ar      1 UNL1        0.0000
     17 C           9.0513   13.0941    2.1668 C.2       1 UNL1        0.0000
     18 C           8.8743   14.7607    0.3617 C.3       1 UNL1        0.0000
     19 C           9.7722   15.7349   -0.3704 C.3       1 UNL1        0.0000
     20 C          11.8184   14.4726    0.2299 C.3       1 UNL1        0.0000
     21 C          10.9133   13.3124    0.5553 C.3       1 UNL1        0.0000
     22 C          11.6091   16.8689    0.8663 C.2       1 UNL1        0.0000
     23 C          10.9822   18.1879    0.9854 C.3       1 UNL1        0.0000
     24 C          11.3656   19.2058   -0.0649 C.3       1 UNL1        0.0000
     25 C          11.7868   19.3907    1.3256 C.3       1 UNL1        0.0000
     26 C          10.0257   10.8838    2.0822 C.ar      1 UNL1        0.0000
     27 C          10.7515    9.8728    2.6703 C.ar      1 UNL1        0.0000
     28 C          11.2599   10.0367    3.9668 C.ar      1 UNL1        0.0000
     29 O          15.9397    8.3374    7.1488 O.2       1 UNL1        0.0000
     30 O          12.7775   16.7657    1.3852 O.2       1 UNL1        0.0000
     31 O           7.9247   13.4472    2.5851 O.2       1 UNL1        0.0000
     32 F           9.5101   10.7688    0.8238 F         1 UNL1        0.0000
     33 H          17.0870   10.3478    7.7175 H         1 UNL1        0.0000
     34 H          17.2881   12.7561    7.9918 H         1 UNL1        0.0000
     35 H          15.3690   14.1161    7.4859 H         1 UNL1        0.0000
     36 H          13.2947   13.1793    6.7328 H         1 UNL1        0.0000
     37 H          11.7401   12.4819    6.1827 H         1 UNL1        0.0000
     38 H          10.8133   11.1115    6.7711 H         1 UNL1        0.0000
     39 H          10.1657   13.0697    4.6067 H         1 UNL1        0.0000
     40 H           8.3052   15.3000    1.0902 H         1 UNL1        0.0000
     41 H           8.2435   14.2928   -0.3658 H         1 UNL1        0.0000
     42 H           9.3509   16.7170   -0.3230 H         1 UNL1        0.0000
     43 H           9.8635   15.4432   -1.3961 H         1 UNL1        0.0000
     44 H          12.6069   14.5163    0.9516 H         1 UNL1        0.0000
     45 H          12.2227   14.3297   -0.7505 H         1 UNL1        0.0000
     46 H          11.3761   12.7215    1.3182 H         1 UNL1        0.0000
     47 H          10.7675   12.7564   -0.3462 H         1 UNL1        0.0000
     48 H          10.0861   17.7627    1.3859 H         1 UNL1        0.0000
     49 H          10.6192   19.8456   -0.4879 H         1 UNL1        0.0000
     50 H          11.8663   19.1668   -1.0098 H         1 UNL1        0.0000
     51 H          11.3513   20.1725    1.9123 H         1 UNL1        0.0000
     52 H          12.7294   19.5476    1.8052 H         1 UNL1        0.0000
     53 H          10.9216    8.9937    2.1561 H         1 UNL1        0.0000
     54 H          11.8005    9.2629    4.3846 H         1 UNL1        0.0000
     55 H          13.6737    7.6095    6.3167 H         1 UNL1        0.0000
@<TRIPOS>BOND
     1    1   18 1
     2    1   21 1
     3    1   17 am
     4    2   19 1
     5    2   20 1
     6    2   22 am
     7    3    4 1
     8    3   12 2
     9    4    5 am
    10    4   55 1
    11    5   29 2
    12    5    6 1
    13    6    7 ar
    14    6   11 ar
    15    7    8 ar
    16    7   33 1
    17    8   34 1
    18    8    9 ar
    19    9   10 ar
    20    9   35 1
    21   10   11 ar
    22   10   36 1
    23   11   12 1
    24   12   13 1
    25   13   37 1
    26   13   38 1
    27   13   14 1
    28   14   15 ar
    29   14   28 ar
    30   15   39 1
    31   15   16 ar
    32   16   26 ar
    33   16   17 1
    34   17   31 2
    35   18   19 1
    36   18   40 1
    37   18   41 1
    38   19   42 1
    39   19   43 1
    40   20   21 1
    41   20   45 1
    42   20   44 1
    43   21   46 1
    44   21   47 1
    45   22   30 2
    46   22   23 1
    47   23   25 1
    48   23   24 1
    49   23   48 1
    50   24   25 1
    51   24   49 1
    52   24   50 1
    53   25   51 1
    54   25   52 1
    55   26   27 ar
    56   26   32 1
    57   27   28 ar
    58   27   53 1
    59   28   54 1
@<TRIPOS>SUBSTRUCTURE
1 UNL1 1
@<TRIPOS>COMMENT
Olaparib
PLANTSproteinTorsions
70
3 208.2363
48 37.5650
123 279.9135
171 170.6283
348 66.5195
606 155.6425
632 32.4554
655 354.7996
678 348.2088
700 349.6580
773 196.8457
807 96.5369
891 7.7765
933 138.1094
999 352.5334
1020 59.7523
1361 350.1036
1371 215.7379
1544 11.3689
1649 130.2855
1689 304.3508
1736 86.5797
1771 75.5769
2012 340.1908
2070 36.7954
2082 201.7476
2147 350.6243
2300 5.7405
2527 203.7637
2551 243.0458
2605 212.3861
2653 37.8979
2739 287.5048
2807 233.0196
2841 164.9777
2875 116.8952
2885 263.2783
2915 183.2247
3074 240.5205
3130 253.2859
3421 114.4559
3586 13.1654
3784 332.7292
3818 344.7750
3881 32.9940
3933 127.3432
4033 241.1743
4046 58.8146
4094 178.5202
4145 10.2626
4208 29.8722
4235 118.5820
4332 272.2876
4568 283.9031
4685 24.7838
4749 36.0256
4805 251.0198
4858 227.0866
4871 311.6871
4945 94.5283
4999 98.7436
5010 172.8107
5106 122.4968
5130 151.8123
5249 107.2459
5258 241.1421
5318 123.3748
5369 123.9402
5589 62.4410
5645 122.8758
PLANTSmolcadARTstart hb
PLANTSmolcadARTstart HB
LINES
15.9397 8.33737 7.14876 16.372 6.74 7.624 0 255 0 5
PLANTSmolcadARTstart HBCH
LINES
PLANTSmolcadARTstart HB-CHO
LINES
PLANTSmolcadARTend
PLANTSmolcadARTstart HB_WATER
LINES
PLANTSmolcadARTend

PLANTSmolcadARTend

