@<TRIPOS>MOLECULE
Olaparib_entry_00001_conf_46
55 59 1
SMALL
NO_CHARGES


@<TRIPOS>ATOM
      1 N          15.0628  -11.0609    9.6566 N.am      1 UNL1        0.0000
      2 N          15.8043  -13.5420    9.8632 N.am      1 UNL1        0.0000
      3 N          15.9704   -6.4259   14.1417 N.2       1 UNL1        0.0000
      4 N          16.1639   -6.2712   15.4290 N.am      1 UNL1        0.0000
      5 C          16.2613   -5.0713   16.0187 C.2       1 UNL1        0.0000
      6 C          16.1540   -3.9381   15.2390 C.ar      1 UNL1        0.0000
      7 C          16.2679   -2.6649   15.7986 C.ar      1 UNL1        0.0000
      8 C          16.1787   -1.5473   14.9970 C.ar      1 UNL1        0.0000
      9 C          15.9779   -1.7588   13.6494 C.ar      1 UNL1        0.0000
     10 C          15.8634   -3.0162   13.0805 C.ar      1 UNL1        0.0000
     11 C          15.9505   -4.1155   13.8829 C.ar      1 UNL1        0.0000
     12 C          15.8529   -5.3515   13.3021 C.2       1 UNL1        0.0000
     13 C          15.5741   -5.6597   11.9055 C.3       1 UNL1        0.0000
     14 C          16.2916   -6.8963   11.4889 C.ar      1 UNL1        0.0000
     15 C          15.6008   -7.7213   10.5835 C.ar      1 UNL1        0.0000
     16 C          16.1767   -8.8906   10.1480 C.ar      1 UNL1        0.0000
     17 C          15.4735   -9.7819    9.1980 C.2       1 UNL1        0.0000
     18 C          14.3778  -11.9463    8.7712 C.3       1 UNL1        0.0000
     19 C          14.5679  -13.4022    9.1388 C.3       1 UNL1        0.0000
     20 C          15.9077  -12.8362   11.1451 C.3       1 UNL1        0.0000
     21 C          15.3515  -11.4405   11.0271 C.3       1 UNL1        0.0000
     22 C          16.8714  -14.3088    9.3861 C.2       1 UNL1        0.0000
     23 C          16.9260  -15.0557    8.1267 C.3       1 UNL1        0.0000
     24 C          17.3095  -16.5144    8.2327 C.3       1 UNL1        0.0000
     25 C          18.2174  -15.5609    7.5910 C.3       1 UNL1        0.0000
     26 C          17.4201   -9.3154   10.5527 C.ar      1 UNL1        0.0000
     27 C          18.0953   -8.5070   11.4390 C.ar      1 UNL1        0.0000
     28 C          17.5101   -7.3137   11.8861 C.ar      1 UNL1        0.0000
     29 O          16.4454   -4.9027   17.2514 O.2       1 UNL1        0.0000
     30 O          17.9255  -14.3781   10.1136 O.2       1 UNL1        0.0000
     31 O          15.2339   -9.4427    8.0163 O.2       1 UNL1        0.0000
     32 F          17.9488  -10.4860   10.0916 F         1 UNL1        0.0000
     33 H          16.4184   -2.5596   16.8141 H         1 UNL1        0.0000
     34 H          16.2592   -0.5963   15.3874 H         1 UNL1        0.0000
     35 H          15.9096   -0.9356   13.0314 H         1 UNL1        0.0000
     36 H          15.7141   -3.1207   12.0646 H         1 UNL1        0.0000
     37 H          15.8956   -4.8430   11.2935 H         1 UNL1        0.0000
     38 H          14.5219   -5.8174   11.7901 H         1 UNL1        0.0000
     39 H          14.6639   -7.4496   10.2473 H         1 UNL1        0.0000
     40 H          14.7478  -11.7921    7.7788 H         1 UNL1        0.0000
     41 H          13.3320  -11.7286    8.8417 H         1 UNL1        0.0000
     42 H          14.6027  -13.9957    8.2496 H         1 UNL1        0.0000
     43 H          13.7513  -13.7321    9.7470 H         1 UNL1        0.0000
     44 H          16.9359  -12.7813   11.4355 H         1 UNL1        0.0000
     45 H          15.3442  -13.3706   11.8812 H         1 UNL1        0.0000
     46 H          16.0670  -10.7526   11.4271 H         1 UNL1        0.0000
     47 H          14.4292  -11.4159   11.5674 H         1 UNL1        0.0000
     48 H          16.1313  -14.4743    7.7089 H         1 UNL1        0.0000
     49 H          16.7979  -17.2465    7.6430 H         1 UNL1        0.0000
     50 H          17.3929  -17.2191    9.0336 H         1 UNL1        0.0000
     51 H          18.3724  -15.6056    6.5332 H         1 UNL1        0.0000
     52 H          19.2422  -15.2929    7.7360 H         1 UNL1        0.0000
     53 H          19.0331   -8.7797   11.7742 H         1 UNL1        0.0000
     54 H          18.0378   -6.7261   12.5509 H         1 UNL1        0.0000
     55 H          16.2409   -7.0764   15.9906 H         1 UNL1        0.0000
@<TRIPOS>BOND
     1    1   18 1
     2    1   21 1
     3    1   17 am
     4    2   19 1
     5    2   20 1
     6    2   22 am
     7    3    4 1
     8    3   12 2
     9    4    5 am
    10    4   55 1
    11    5   29 2
    12    5    6 1
    13    6    7 ar
    14    6   11 ar
    15    7    8 ar
    16    7   33 1
    17    8   34 1
    18    8    9 ar
    19    9   10 ar
    20    9   35 1
    21   10   11 ar
    22   10   36 1
    23   11   12 1
    24   12   13 1
    25   13   37 1
    26   13   38 1
    27   13   14 1
    28   14   15 ar
    29   14   28 ar
    30   15   39 1
    31   15   16 ar
    32   16   26 ar
    33   16   17 1
    34   17   31 2
    35   18   19 1
    36   18   40 1
    37   18   41 1
    38   19   42 1
    39   19   43 1
    40   20   21 1
    41   20   45 1
    42   20   44 1
    43   21   46 1
    44   21   47 1
    45   22   30 2
    46   22   23 1
    47   23   25 1
    48   23   24 1
    49   23   48 1
    50   24   25 1
    51   24   49 1
    52   24   50 1
    53   25   51 1
    54   25   52 1
    55   26   27 ar
    56   26   32 1
    57   27   28 ar
    58   27   53 1
    59   28   54 1
@<TRIPOS>SUBSTRUCTURE
1 UNL1 1
@<TRIPOS>COMMENT
Olaparib
PLANTSproteinTorsions
70
3 155.9820
48 357.6521
123 150.9308
171 78.2419
348 348.9859
606 111.8076
632 116.0035
655 230.0739
678 139.7657
700 6.4836
773 129.8876
807 12.2932
891 92.0084
933 309.0171
999 177.4675
1020 29.9304
1361 135.5882
1371 212.2985
1544 339.3642
1649 271.0670
1689 249.3331
1736 214.2085
1771 160.8673
2012 288.2127
2070 0.1693
2082 101.7473
2147 237.8332
2300 5.8386
2527 220.8152
2551 75.4735
2605 54.7400
2653 34.2869
2739 163.6127
2807 302.0872
2841 296.5524
2875 335.1526
2885 248.8183
2915 341.3144
3074 145.1479
3130 135.8829
3421 186.3830
3586 98.9824
3784 353.6220
3818 132.5084
3881 132.0922
3933 250.9385
4033 162.1969
4046 224.2502
4094 253.5621
4145 181.0628
4208 183.9803
4235 227.8938
4332 123.0194
4568 270.2797
4685 287.2509
4749 337.2470
4805 4.4725
4858 143.5706
4871 28.7311
4945 45.2466
4999 5.7016
5010 294.1503
5106 77.0336
5130 260.9691
5249 25.1757
5258 311.1921
5318 354.3634
5369 293.4412
5589 96.6190
5645 134.4715
PLANTSmolcadARTstart hb
PLANTSmolcadARTstart HB
LINES
16.2409 -7.07644 15.9906 17.571 -8.075 17.002 0 255 0 5
PLANTSmolcadARTstart HBCH
LINES
PLANTSmolcadARTstart HB-CHO
LINES
PLANTSmolcadARTend
PLANTSmolcadARTstart HB_WATER
LINES
PLANTSmolcadARTend

PLANTSmolcadARTend

