@<TRIPOS>MOLECULE
Olaparib_entry_00001_conf_30_protein
188 118 70
SMALL
NO_CHARGES


@<TRIPOS>ATOM
      1 H         -20.7068   10.3651   10.5043 H       223 ASP223      0.0000
      2 N         -20.6100    9.4850   10.9640 N.4     223 ASP223      1.0000
      3 H2        -20.0107    8.8915   10.4329 H       223 ASP223      0.0000
      4 H3        -21.5045    9.0575   11.0648 H       223 ASP223      0.0000
      5 HG1       -23.6166    5.2300   14.5785 H       226 THR226      0.0000
      6 OG1       -23.6480    5.6080   15.5080 O.3     226 THR226      0.0000
      7 HH        -27.4741    3.6862   18.2349 H       230 TYR230      0.0000
      8 OH        -27.8370    3.0600   17.5440 O.3     230 TYR230      0.0000
      9 HG        -16.0834   -1.7031   11.9609 H       233 SER233      0.0000
     10 OG        -15.9490   -2.4540   12.6070 O.3     233 SER233      0.0000
     11 HZ1        -9.6300    4.3305    8.9120 H       243 LYS243      0.0000
     12 NZ         -8.7810    4.7010    8.5470 N.4     243 LYS243      1.0000
     13 HZ2        -8.2976    5.2115    9.2517 H       243 LYS243      0.0000
     14 HZ3        -8.9703    5.2891    7.7653 H       243 LYS243      0.0000
     15 HZ1        22.5670    8.4994   -0.2793 H       259 LYS259      0.0000
     16 NZ         22.3540    9.4710   -0.2580 N.4     259 LYS259      1.0000
     17 HZ2        23.1800   10.0097   -0.3836 H       259 LYS259      0.0000
     18 HZ3        21.9111    9.7099    0.5998 H       259 LYS259      0.0000
     19 HH         15.7533   -4.4393   -2.7145 H       260 TYR260      0.0000
     20 OH         15.3870   -3.7430   -3.3350 O.3     260 TYR260      0.0000
     21 HG1        12.5396    3.5622   -4.9969 H       262 THR262      0.0000
     22 OG1        11.6660    3.1790   -5.3180 O.3     262 THR262      0.0000
     23 HZ1         9.0335    6.4222   -8.4852 H       263 LYS263      0.0000
     24 NZ          9.6700    5.6550   -8.4530 N.4     263 LYS263      1.0000
     25 HZ2         9.4312    5.0457   -7.6999 H       263 LYS263      0.0000
     26 HZ3        10.6012    5.9908   -8.3367 H       263 LYS263      0.0000
     27 HZ1        21.0979   -1.5148  -10.0376 H       264 LYS264      0.0000
     28 NZ         21.2250   -1.7280  -11.0010 N.4     264 LYS264      1.0000
     29 HZ2        21.8757   -2.4729  -11.1066 H       264 LYS264      0.0000
     30 HZ3        21.5396   -0.9224  -11.4941 H       264 LYS264      0.0000
     31 HZ1         7.4671   -5.4287  -10.0868 H       269 LYS269      0.0000
     32 NZ          7.3110   -6.1790   -9.4530 N.4     269 LYS269      1.0000
     33 HZ2         6.3379   -6.3708   -9.3768 H       269 LYS269      0.0000
     34 HZ3         7.6911   -5.9619   -8.5601 H       269 LYS269      0.0000
     35 HG1        15.0667  -12.0373   -2.8007 H       271 THR271      0.0000
     36 OG1        14.9200  -12.8790   -2.2680 O.3     271 THR271      0.0000
     37 HZ1        22.9863  -18.0002    5.4796 H       276 LYS276      0.0000
     38 NZ         22.5510  -17.9540    4.5780 N.4     276 LYS276      1.0000
     39 HZ2        21.5549  -17.9695    4.6911 H       276 LYS276      0.0000
     40 HZ3        22.8337  -18.7472    4.0354 H       276 LYS276      0.0000
     41 HH         20.1639   -6.8281    9.0322 H       279 TYR279      0.0000
     42 OH         19.8080   -7.2760    8.2120 O.3     279 TYR279      0.0000
     43 HZ1        34.1548  -12.8279    8.1316 H       283 LYS283      0.0000
     44 NZ         33.9490  -11.9430    7.7200 N.4     283 LYS283      1.0000
     45 HZ2        33.8515  -12.0407    6.7331 H       283 LYS283      0.0000
     46 HZ3        34.6755  -11.2929    7.9283 H       283 LYS283      0.0000
     47 HZ1        31.0884  -11.1579   -2.5041 H       284 LYS284      0.0000
     48 NZ         31.2280  -12.1170   -2.2610 N.4     284 LYS284      1.0000
     49 HZ2        31.4926  -12.6351   -3.0728 H       284 LYS284      0.0000
     50 HZ3        30.3841  -12.4937   -1.8811 H       284 LYS284      0.0000
     51 HH         26.9694    3.2347   -1.5145 H       306 TYR306      0.0000
     52 OH         27.7740    2.7440   -1.8460 O.3     306 TYR306      0.0000
     53 HG1        26.5924   -5.4310  -10.0704 H       307 THR307      0.0000
     54 OG1        26.3120   -4.9350   -9.2430 O.3     307 THR307      0.0000
     55 HG1        31.9756   10.1401   -9.1910 H       317 THR317      0.0000
     56 OG1        31.8950    9.2350   -9.6220 O.3     317 THR317      0.0000
     57 HG1        32.0266    5.2003    6.8211 H       323 THR323      0.0000
     58 OG1        32.4070    5.6740    7.6230 O.3     323 THR323      0.0000
     59 HZ1        29.8461    9.5965    6.9640 H       325 LYS325      0.0000
     60 NZ         29.1610    8.9330    7.2460 N.4     325 LYS325      1.0000
     61 HZ2        29.5755    8.0357    7.3615 H       325 LYS325      0.0000
     62 HZ3        28.4244    8.8909    6.5785 H       325 LYS325      0.0000
     63 HG         25.1150    3.2435   11.8153 H       328 SER328      0.0000
     64 OG         25.1580    2.2890   11.5220 O.3     328 SER328      0.0000
     65 HZ1        22.6812    3.4161    1.7610 H       330 LYS330      0.0000
     66 NZ         23.5180    3.0260    1.3810 N.4     330 LYS330      1.0000
     67 HZ2        24.0518    3.7428    0.9354 H       330 LYS330      0.0000
     68 HZ3        23.2880    2.3150    0.7185 H       330 LYS330      0.0000
     69 HZ1         8.5427  -13.1239    2.3648 H       345 LYS345      0.0000
     70 NZ          8.3930  -14.1050    2.4430 N.4     345 LYS345      1.0000
     71 HZ2         8.8847  -14.4659    3.2305 H       345 LYS345      0.0000
     72 HZ3         8.6906  -14.5655    1.6115 H       345 LYS345      0.0000
     73 HZ1         3.1299  -13.4387   -0.1425 H       348 LYS348      0.0000
     74 NZ          2.7670  -12.9680   -0.9450 N.4     348 LYS348      1.0000
     75 HZ2         2.0435  -13.5174   -1.3586 H       348 LYS348      0.0000
     76 HZ3         3.4989  -12.8194   -1.6086 H       348 LYS348      0.0000
     77 HG1        -5.5321   -8.5419    0.4316 H       349 THR349      0.0000
     78 OG1        -6.3420   -8.2570    0.9570 O.3     349 THR349      0.0000
     79 HG        -11.9689  -11.6988    5.9217 H       353 SER353      0.0000
     80 OG        -11.8450  -12.6320    5.5800 O.3     353 SER353      0.0000
     81 HH         -4.5177   -7.0494   19.9997 H       362 TYR362      0.0000
     82 OH         -4.7470   -6.1480   19.6250 O.3     362 TYR362      0.0000
     83 HG         -2.7254    6.3031   32.2786 H       376 SER376      0.0000
     84 OG         -3.5570    5.9650   31.8460 O.3     376 SER376      0.0000
     85 HH          3.6139    6.9567   39.9842 H       377 TYR377      0.0000
     86 OH          3.4610    6.1200   39.4630 O.3     377 TYR377      0.0000
     87 HZ1         2.8772   12.0941   38.7775 H       380 LYS380      0.0000
     88 NZ          2.3270   11.2610   38.6950 N.4     380 LYS380      1.0000
     89 HZ2         1.4683   11.3821   39.1969 H       380 LYS380      0.0000
     90 HZ3         2.8327   10.4917   39.0892 H       380 LYS380      0.0000
     91 HG          1.4309   12.2649   28.8522 H       383 SER383      0.0000
     92 OG          2.1950   11.6230   28.9400 O.3     383 SER383      0.0000
     93 HG         12.1599   12.0919   33.9393 H       388 SER388      0.0000
     94 OG         11.5430   12.3570   33.2060 O.3     388 SER388      0.0000
     95 HG1        23.7528   15.0407   23.5231 H       393 THR393      0.0000
     96 OG1        22.9410   15.5890   23.7600 O.3     393 THR393      0.0000
     97 HG         19.7535   21.0325   21.3017 H       395 SER395      0.0000
     98 OG         19.0240   21.7000   21.1650 O.3     395 SER395      0.0000
     99 HH         15.8438   13.1363   19.8251 H       397 TYR397      0.0000
    100 OH         14.8710   12.9690   19.6890 O.3     397 TYR397      0.0000
    101 HG1         8.7793   20.9947   20.9182 H       398 THR398      0.0000
    102 OG1         8.6220   20.0310   21.1580 O.3     398 THR398      0.0000
    103 HG1         3.5454   18.5090   20.6035 H       400 THR400      0.0000
    104 OG1         3.9170   17.8990   21.3100 O.3     400 THR400      0.0000
    105 HZ1         4.8967  -11.2808   16.7528 H       409 LYS409      0.0000
    106 NZ          4.4340  -11.4210   17.6290 N.4     409 LYS409      1.0000
    107 HZ2         4.0117  -12.3284   17.6397 H       409 LYS409      0.0000
    108 HZ3         3.7246  -10.7237   17.7445 H       409 LYS409      0.0000
    109 HZ1         2.6229  -11.2062   32.8338 H       413 LYS413      0.0000
    110 NZ          1.6780  -11.4650   33.0130 N.4     413 LYS413      1.0000
    111 HZ2         1.0571  -10.8147   32.5838 H       413 LYS413      0.0000
    112 HZ3         1.5120  -11.5001   33.9944 H       413 LYS413      0.0000
    113 HG         14.1933   -0.0549   14.4569 H       430 SER430      0.0000
    114 OG         13.4130    0.4260   14.0760 O.3     430 SER430      0.0000
    115 HG          6.0939   -8.0059   12.4919 H       440 SER440      0.0000
    116 OG          5.9710   -8.9830   12.3290 O.3     440 SER440      0.0000
    117 HG1        32.9060   -3.0904   10.2202 H       453 THR453      0.0000
    118 OG1        32.1320   -2.9810   10.8570 O.3     453 THR453      0.0000
    119 HH         23.1019   -6.5633   12.3581 H       455 TYR455      0.0000
    120 OH         23.2810   -5.5850   12.3310 O.3     455 TYR455      0.0000
    121 HZ1        26.6354   -9.9932   11.7455 H       459 LYS459      0.0000
    122 NZ         26.6110  -10.3810   12.6630 N.4     459 LYS459      1.0000
    123 HZ2        27.4546  -10.8781   12.8475 H       459 LYS459      0.0000
    124 HZ3        25.8279  -10.9894   12.7567 H       459 LYS459      0.0000
    125 HH         26.2644   -2.1835   20.1082 H       462 TYR462      0.0000
    126 OH         25.6260   -2.9400   20.0150 O.3     462 TYR462      0.0000
    127 HZ1        24.4191    6.2280   23.8778 H       469 LYS469      0.0000
    128 NZ         23.5700    5.9180   24.3040 N.4     469 LYS469      1.0000
    129 HZ2        23.4356    6.3944   25.1719 H       469 LYS469      0.0000
    130 HZ3        23.6155    4.9330   24.4651 H       469 LYS469      0.0000
    131 HG         15.2737    4.4331   23.7957 H       470 SER470      0.0000
    132 OG         15.8020    4.6360   22.9740 O.3     470 SER470      0.0000
    133 HH         22.5596    6.4547   18.0262 H       473 TYR473      0.0000
    134 OH         22.3100    5.5040   17.8300 O.3     473 TYR473      0.0000
    135 HG         11.5355   13.8211    7.0737 H       477 SER477      0.0000
    136 OG         11.1460   14.2360    7.8940 O.3     477 SER477      0.0000
    137 HZ1         5.2005   12.6290    5.3261 H       480 LYS480      0.0000
    138 NZ          5.0820   11.8220    4.7460 N.4     480 LYS480      1.0000
    139 HZ2         4.8414   12.1120    3.8190 H       480 LYS480      0.0000
    140 HZ3         4.3493   11.2504    5.1168 H       480 LYS480      0.0000
    141 HG1         2.0483   12.1140   12.3702 H       482 THR482      0.0000
    142 OG1         2.7330   12.0500   13.1080 O.3     482 THR482      0.0000
    143 HG          9.5155   -3.4762   24.6572 H       488 SER488      0.0000
    144 OG         10.3440   -2.9460   24.8140 O.3     488 SER488      0.0000
    145 HZ1        37.3391   -7.4462   16.6726 H       504 LYS504      0.0000
    146 NZ         37.6760   -7.8080   17.5340 N.4     504 LYS504      1.0000
    147 HZ2        37.4061   -7.2226   18.2894 H       504 LYS504      0.0000
    148 HZ3        38.6630   -7.9130   17.5082 H       504 LYS504      0.0000
    149 HZ1        29.7968   -6.3298   36.9508 H       512 LYS512      0.0000
    150 NZ         30.3650   -6.7700   36.2570 N.4     512 LYS512      1.0000
    151 HZ2        31.3173   -6.7777   36.5581 H       512 LYS512      0.0000
    152 HZ3        30.2883   -6.2721   35.3940 H       512 LYS512      0.0000
    153 HZ1        23.5654    1.7106   35.0411 H       516 LYS516      0.0000
    154 NZ         24.0380    2.5320   34.7210 N.4     516 LYS516      1.0000
    155 HZ2        24.8817    2.6557   35.2423 H       516 LYS516      0.0000
    156 HZ3        23.4467    3.3287   34.8492 H       516 LYS516      0.0000
    157 HZ1        31.3881   13.5457   26.3025 H       520 LYS520      0.0000
    158 NZ         30.6520   14.1570   26.5930 N.4     520 LYS520      1.0000
    159 HZ2        29.7969   13.8837   26.1529 H       520 LYS520      0.0000
    160 HZ3        30.8753   15.0966   26.3344 H       520 LYS520      0.0000
    161 HG         18.7867   12.3511   39.9926 H       524 SER524      0.0000
    162 OG         18.8770   11.4400   40.3940 O.3     524 SER524      0.0000
    163 HG         19.5104    7.6230   43.1252 H       525 SER525      0.0000
    164 OG         19.6990    6.6420   43.1690 O.3     525 SER525      0.0000
    165 HG1         8.0507    0.1582   42.5243 H       530 THR530      0.0000
    166 OG1         7.6550    0.4270   41.6380 O.3     530 THR530      0.0000
    167 HG          9.9037   -4.3214   35.1638 H       534 SER534      0.0000
    168 OG          9.6090   -3.6750   34.4630 O.3     534 SER534      0.0000
    169 HG1        13.3460    0.2307   39.9309 H       535 THR535      0.0000
    170 OG1        13.6020   -0.2690   39.0930 O.3     535 THR535      0.0000
    171 HG         21.3873   13.6087   38.7482 H       542 SER542      0.0000
    172 OG         22.1280   13.5570   38.0820 O.3     542 SER542      0.0000
    173 HG1        29.0536    9.5548   34.4190 H       544 THR544      0.0000
    174 OG1        28.0730    9.6670   34.2240 O.3     544 THR544      0.0000
    175 HH         38.9037   13.1689   18.4464 H       552 TYR552      0.0000
    176 OH         38.7990   13.4190   19.4090 O.3     552 TYR552      0.0000
    177 HG1        34.3621   10.0500   28.9858 H       553 THR553      0.0000
    178 OG1        34.2910    9.6820   28.0520 O.3     553 THR553      0.0000
    179 HH         22.5130   15.2479   25.3540 H       556 TYR556      0.0000
    180 OH         22.3900   15.0220   26.3220 O.3     556 TYR556      0.0000
    181 HH         21.6459    3.0088   33.0843 H       559 TYR559      0.0000
    182 OH         20.7160    2.6790   32.9500 O.3     559 TYR559      0.0000
    183 HH          2.9700    0.3893   32.5248 H       571 TYR571      0.0000
    184 OH          2.2400    0.1330   31.8950 O.3     571 TYR571      0.0000
    185 HZ1        -2.3744    9.3699   14.3733 H       574 LYS574      0.0000
    186 NZ         -2.0400    8.5440   14.8270 N.4     574 LYS574      1.0000
    187 HZ2        -2.0977    7.7702   14.1970 H       574 LYS574      0.0000
    188 HZ3        -2.5955    8.3585   15.6369 H       574 LYS574      0.0000
@<TRIPOS>BOND
     1    2    1 1
     2    2    4 1
     3    2    3 1
     4    6    5 1
     5    8    7 1
     6   10    9 1
     7   12   11 1
     8   12   13 1
     9   12   14 1
    10   16   15 1
    11   16   17 1
    12   16   18 1
    13   20   19 1
    14   22   21 1
    15   24   26 1
    16   24   23 1
    17   24   25 1
    18   28   27 1
    19   28   30 1
    20   28   29 1
    21   32   33 1
    22   32   34 1
    23   32   31 1
    24   36   35 1
    25   38   37 1
    26   38   39 1
    27   38   40 1
    28   42   41 1
    29   44   43 1
    30   44   45 1
    31   44   46 1
    32   48   47 1
    33   48   49 1
    34   48   50 1
    35   52   51 1
    36   54   53 1
    37   56   55 1
    38   58   57 1
    39   60   61 1
    40   60   59 1
    41   60   62 1
    42   64   63 1
    43   66   65 1
    44   66   68 1
    45   66   67 1
    46   70   69 1
    47   70   71 1
    48   70   72 1
    49   74   73 1
    50   74   75 1
    51   74   76 1
    52   78   77 1
    53   80   79 1
    54   82   81 1
    55   84   83 1
    56   86   85 1
    57   88   87 1
    58   88   89 1
    59   88   90 1
    60   92   91 1
    61   94   93 1
    62   96   95 1
    63   98   97 1
    64  100   99 1
    65  102  101 1
    66  104  103 1
    67  106  107 1
    68  106  108 1
    69  106  105 1
    70  110  109 1
    71  110  112 1
    72  110  111 1
    73  114  113 1
    74  116  115 1
    75  118  117 1
    76  120  119 1
    77  122  121 1
    78  122  123 1
    79  122  124 1
    80  126  125 1
    81  128  127 1
    82  128  129 1
    83  128  130 1
    84  132  131 1
    85  134  133 1
    86  136  135 1
    87  138  137 1
    88  138  140 1
    89  138  139 1
    90  142  141 1
    91  144  143 1
    92  146  147 1
    93  146  145 1
    94  146  148 1
    95  150  151 1
    96  150  149 1
    97  150  152 1
    98  154  153 1
    99  154  155 1
   100  154  156 1
   101  158  157 1
   102  158  159 1
   103  158  160 1
   104  162  161 1
   105  164  163 1
   106  166  165 1
   107  168  167 1
   108  170  169 1
   109  172  171 1
   110  174  173 1
   111  176  175 1
   112  178  177 1
   113  180  179 1
   114  182  181 1
   115  184  183 1
   116  186  185 1
   117  186  188 1
   118  186  187 1
@<TRIPOS>SUBSTRUCTURE
223 ASP223 1
226 THR226 5
230 TYR230 7
233 SER233 9
243 LYS243 11
259 LYS259 15
260 TYR260 19
262 THR262 21
263 LYS263 23
264 LYS264 27
269 LYS269 31
271 THR271 35
276 LYS276 37
279 TYR279 41
283 LYS283 43
284 LYS284 47
306 TYR306 51
307 THR307 53
317 THR317 55
323 THR323 57
325 LYS325 59
328 SER328 63
330 LYS330 65
345 LYS345 69
348 LYS348 73
349 THR349 77
353 SER353 79
362 TYR362 81
376 SER376 83
377 TYR377 85
380 LYS380 87
383 SER383 91
388 SER388 93
393 THR393 95
395 SER395 97
397 TYR397 99
398 THR398 101
400 THR400 103
409 LYS409 105
413 LYS413 109
430 SER430 113
440 SER440 115
453 THR453 117
455 TYR455 119
459 LYS459 121
462 TYR462 125
469 LYS469 127
470 SER470 131
473 TYR473 133
477 SER477 135
480 LYS480 137
482 THR482 141
488 SER488 143
504 LYS504 145
512 LYS512 149
516 LYS516 153
520 LYS520 157
524 SER524 161
525 SER525 163
530 THR530 165
534 SER534 167
535 THR535 169
542 SER542 171
544 THR544 173
552 TYR552 175
553 THR553 177
556 TYR556 179
559 TYR559 181
571 TYR571 183
574 LYS574 185
@<TRIPOS>COMMENT
