@<TRIPOS>MOLECULE
Olaparib_entry_00001_conf_62
55 59 1
SMALL
NO_CHARGES


@<TRIPOS>ATOM
      1 N          28.6280  -12.1798   16.9423 N.am      1 UNL1        0.0000
      2 N          26.3591  -13.2526   16.2716 N.am      1 UNL1        0.0000
      3 N          31.1905  -15.3372   22.8900 N.2       1 UNL1        0.0000
      4 N          31.8604  -15.6442   23.9743 N.am      1 UNL1        0.0000
      5 C          31.3147  -15.6496   25.1986 C.2       1 UNL1        0.0000
      6 C          29.9825  -15.3162   25.3328 C.ar      1 UNL1        0.0000
      7 C          29.3698  -15.2866   26.5862 C.ar      1 UNL1        0.0000
      8 C          28.0433  -14.9299   26.6985 C.ar      1 UNL1        0.0000
      9 C          27.3802  -14.6125   25.5320 C.ar      1 UNL1        0.0000
     10 C          27.9756  -14.6374   24.2819 C.ar      1 UNL1        0.0000
     11 C          29.2880  -14.9942   24.1815 C.ar      1 UNL1        0.0000
     12 C          29.8659  -14.9966   22.9403 C.2       1 UNL1        0.0000
     13 C          29.2227  -14.7423   21.6578 C.3       1 UNL1        0.0000
     14 C          29.9317  -13.6591   20.9220 C.ar      1 UNL1        0.0000
     15 C          29.6348  -13.5637   19.5507 C.ar      1 UNL1        0.0000
     16 C          30.2473  -12.6015   18.7841 C.ar      1 UNL1        0.0000
     17 C          29.9583  -12.4780   17.3375 C.2       1 UNL1        0.0000
     18 C          28.3116  -12.0482   15.5568 C.3       1 UNL1        0.0000
     19 C          26.8622  -12.3643   15.2563 C.3       1 UNL1        0.0000
     20 C          26.3331  -12.7437   17.6472 C.3       1 UNL1        0.0000
     21 C          27.6127  -12.0141   17.9659 C.3       1 UNL1        0.0000
     22 C          25.9116  -14.5453   15.9837 C.2       1 UNL1        0.0000
     23 C          25.8879  -15.1979   14.6720 C.3       1 UNL1        0.0000
     24 C          25.8405  -16.7091   14.6797 C.3       1 UNL1        0.0000
     25 C          27.0378  -16.0141   14.2014 C.3       1 UNL1        0.0000
     26 C          31.1564  -11.7016   19.2879 C.ar      1 UNL1        0.0000
     27 C          31.4463  -11.7960   20.6303 C.ar      1 UNL1        0.0000
     28 C          30.8239  -12.7772   21.4152 C.ar      1 UNL1        0.0000
     29 O          31.9402  -15.9423   26.2498 O.2       1 UNL1        0.0000
     30 O          25.4713  -15.2529   16.9587 O.2       1 UNL1        0.0000
     31 O          30.8438  -12.6271   16.4643 O.2       1 UNL1        0.0000
     32 F          31.7385  -10.7643   18.4846 F         1 UNL1        0.0000
     33 H          29.9103  -15.5326   27.4302 H         1 UNL1        0.0000
     34 H          27.5687  -14.9011   27.6135 H         1 UNL1        0.0000
     35 H          26.3868  -14.3415   25.5940 H         1 UNL1        0.0000
     36 H          27.4347  -14.3901   23.4383 H         1 UNL1        0.0000
     37 H          28.2075  -14.4483   21.8250 H         1 UNL1        0.0000
     38 H          29.2575  -15.6364   21.0707 H         1 UNL1        0.0000
     39 H          28.9591  -14.2145   19.1213 H         1 UNL1        0.0000
     40 H          28.9316  -12.7187   14.9988 H         1 UNL1        0.0000
     41 H          28.4841  -11.0281   15.2815 H         1 UNL1        0.0000
     42 H          26.7882  -12.8343   14.2982 H         1 UNL1        0.0000
     43 H          26.2884  -11.4609   15.2473 H         1 UNL1        0.0000
     44 H          26.2182  -13.5637   18.3246 H         1 UNL1        0.0000
     45 H          25.5138  -12.0629   17.7493 H         1 UNL1        0.0000
     46 H          27.9983  -12.3886   18.8912 H         1 UNL1        0.0000
     47 H          27.3822  -10.9716   18.0226 H         1 UNL1        0.0000
     48 H          25.3323  -14.3905   14.2433 H         1 UNL1        0.0000
     49 H          25.2106  -17.2284   13.9877 H         1 UNL1        0.0000
     50 H          25.6427  -17.4566   15.4194 H         1 UNL1        0.0000
     51 H          27.2831  -16.0355   13.1601 H         1 UNL1        0.0000
     52 H          28.0760  -16.0569   14.4531 H         1 UNL1        0.0000
     53 H          32.1223  -11.1437   21.0589 H         1 UNL1        0.0000
     54 H          31.0594  -12.8265   22.4190 H         1 UNL1        0.0000
     55 H          32.8115  -15.8833   23.8846 H         1 UNL1        0.0000
@<TRIPOS>BOND
     1    1   18 1
     2    1   21 1
     3    1   17 am
     4    2   19 1
     5    2   20 1
     6    2   22 am
     7    3    4 1
     8    3   12 2
     9    4    5 am
    10    4   55 1
    11    5   29 2
    12    5    6 1
    13    6    7 ar
    14    6   11 ar
    15    7    8 ar
    16    7   33 1
    17    8   34 1
    18    8    9 ar
    19    9   10 ar
    20    9   35 1
    21   10   11 ar
    22   10   36 1
    23   11   12 1
    24   12   13 1
    25   13   37 1
    26   13   38 1
    27   13   14 1
    28   14   15 ar
    29   14   28 ar
    30   15   39 1
    31   15   16 ar
    32   16   26 ar
    33   16   17 1
    34   17   31 2
    35   18   19 1
    36   18   40 1
    37   18   41 1
    38   19   42 1
    39   19   43 1
    40   20   21 1
    41   20   45 1
    42   20   44 1
    43   21   46 1
    44   21   47 1
    45   22   30 2
    46   22   23 1
    47   23   25 1
    48   23   24 1
    49   23   48 1
    50   24   25 1
    51   24   49 1
    52   24   50 1
    53   25   51 1
    54   25   52 1
    55   26   27 ar
    56   26   32 1
    57   27   28 ar
    58   27   53 1
    59   28   54 1
@<TRIPOS>SUBSTRUCTURE
1 UNL1 1
@<TRIPOS>COMMENT
Olaparib
PLANTSproteinTorsions
70
3 102.8365
48 10.6905
123 92.6028
171 143.2510
348 26.0581
606 53.3706
632 346.0573
655 346.2355
678 55.7815
700 105.0351
773 48.1229
807 170.8945
891 65.9254
933 112.8618
999 80.5710
1020 14.5635
1361 203.1257
1371 32.0291
1544 60.4774
1649 58.9183
1689 50.7874
1736 175.4106
1771 269.2056
2012 232.2215
2070 88.1140
2082 171.0477
2147 115.2593
2300 345.5075
2527 52.2830
2551 226.3880
2605 57.6017
2653 179.3185
2739 41.8722
2807 148.1734
2841 276.5721
2875 215.2704
2885 181.7336
2915 286.5847
3074 279.7386
3130 140.0899
3421 189.5320
3586 286.6105
3784 86.6262
3818 275.1805
3881 308.3617
3933 284.1551
4033 301.8929
4046 175.8294
4094 17.8034
4145 129.5812
4208 191.8159
4235 68.3929
4332 202.9313
4568 100.9391
4685 92.6236
4749 284.0773
4805 237.5360
4858 241.9698
4871 222.9773
4945 37.5694
4999 281.1843
5010 339.6312
5106 237.6627
5130 19.1159
5249 108.1974
5258 99.9686
5318 78.6441
5369 43.5898
5589 158.9698
5645 167.0044
PLANTSmolcadARTstart hb
PLANTSmolcadARTstart HB
LINES
PLANTSmolcadARTstart HBCH
LINES
PLANTSmolcadARTstart HB-CHO
LINES
PLANTSmolcadARTend
PLANTSmolcadARTstart HB_WATER
LINES
PLANTSmolcadARTend

PLANTSmolcadARTend

