@<TRIPOS>MOLECULE
Olaparib_entry_00001_conf_60
55 59 1
SMALL
NO_CHARGES


@<TRIPOS>ATOM
      1 N          26.9141    8.6198   22.1196 N.am      1 UNL1        0.0000
      2 N          24.7334    8.0007   20.8509 N.am      1 UNL1        0.0000
      3 N          34.0598    5.9429   21.5399 N.2       1 UNL1        0.0000
      4 N          35.1585    5.6509   20.8869 N.am      1 UNL1        0.0000
      5 C          35.1629    5.0871   19.6708 C.2       1 UNL1        0.0000
      6 C          33.9555    4.7961   19.0699 C.ar      1 UNL1        0.0000
      7 C          33.9030    4.1909   17.8137 C.ar      1 UNL1        0.0000
      8 C          32.6856    3.8899   17.2419 C.ar      1 UNL1        0.0000
      9 C          31.5577    4.2126   17.9665 C.ar      1 UNL1        0.0000
     10 C          31.5949    4.8128   19.2139 C.ar      1 UNL1        0.0000
     11 C          32.8046    5.1088   19.7696 C.ar      1 UNL1        0.0000
     12 C          32.8240    5.6860   21.0110 C.2       1 UNL1        0.0000
     13 C          31.6848    6.1191   21.8097 C.3       1 UNL1        0.0000
     14 C          31.0739    7.3463   21.2284 C.ar      1 UNL1        0.0000
     15 C          29.9207    7.8165   21.8816 C.ar      1 UNL1        0.0000
     16 C          29.2789    8.9377   21.4129 C.ar      1 UNL1        0.0000
     17 C          28.0610    9.4552   22.0766 C.2       1 UNL1        0.0000
     18 C          25.7227    9.0820   22.7551 C.3       1 UNL1        0.0000
     19 C          24.4745    8.4296   22.2008 C.3       1 UNL1        0.0000
     20 C          25.7766    6.9865   20.6637 C.3       1 UNL1        0.0000
     21 C          26.9816    7.3041   21.5113 C.3       1 UNL1        0.0000
     22 C          24.0363    8.5139   19.7533 C.2       1 UNL1        0.0000
     23 C          22.9844    9.5338   19.7759 C.3       1 UNL1        0.0000
     24 C          21.5803    9.0380   20.0377 C.3       1 UNL1        0.0000
     25 C          21.9360    9.5767   18.7230 C.3       1 UNL1        0.0000
     26 C          29.7058    9.6481   20.3160 C.ar      1 UNL1        0.0000
     27 C          30.8347    9.1869   19.6774 C.ar      1 UNL1        0.0000
     28 C          31.4914    8.0426   20.1524 C.ar      1 UNL1        0.0000
     29 O          36.2056    4.8009   19.0285 O.2       1 UNL1        0.0000
     30 O          24.3350    8.0567   18.5927 O.2       1 UNL1        0.0000
     31 O          28.0155   10.5946   22.5946 O.2       1 UNL1        0.0000
     32 F          29.0328   10.7559   19.8890 F         1 UNL1        0.0000
     33 H          34.7768    3.9688   17.3115 H         1 UNL1        0.0000
     34 H          32.6214    3.4433   16.3148 H         1 UNL1        0.0000
     35 H          30.6362    3.9946   17.5572 H         1 UNL1        0.0000
     36 H          30.7206    5.0336   19.7161 H         1 UNL1        0.0000
     37 H          32.0125    6.3273   22.8068 H         1 UNL1        0.0000
     38 H          30.9513    5.3398   21.8160 H         1 UNL1        0.0000
     39 H          29.5572    7.3208   22.7103 H         1 UNL1        0.0000
     40 H          25.6479   10.1404   22.6141 H         1 UNL1        0.0000
     41 H          25.7889    8.8248   23.7922 H         1 UNL1        0.0000
     42 H          23.6686    9.1329   22.2065 H         1 UNL1        0.0000
     43 H          24.2071    7.5872   22.8045 H         1 UNL1        0.0000
     44 H          26.0671    6.9650   19.6343 H         1 UNL1        0.0000
     45 H          25.3898    6.0333   20.9582 H         1 UNL1        0.0000
     46 H          27.8549    7.2589   20.8944 H         1 UNL1        0.0000
     47 H          27.0152    6.5864   22.3031 H         1 UNL1        0.0000
     48 H          23.6545   10.2636   20.1794 H         1 UNL1        0.0000
     49 H          20.9297    9.5895   20.6841 H         1 UNL1        0.0000
     50 H          21.1544    8.1224   20.3918 H         1 UNL1        0.0000
     51 H          21.5360   10.5184   18.4097 H         1 UNL1        0.0000
     52 H          21.8673    9.2075   17.7219 H         1 UNL1        0.0000
     53 H          31.1977    9.6842   18.8485 H         1 UNL1        0.0000
     54 H          32.3356    7.7179   19.6548 H         1 UNL1        0.0000
     55 H          36.0233    5.8566   21.3108 H         1 UNL1        0.0000
@<TRIPOS>BOND
     1    1   18 1
     2    1   21 1
     3    1   17 am
     4    2   19 1
     5    2   20 1
     6    2   22 am
     7    3    4 1
     8    3   12 2
     9    4    5 am
    10    4   55 1
    11    5   29 2
    12    5    6 1
    13    6    7 ar
    14    6   11 ar
    15    7    8 ar
    16    7   33 1
    17    8   34 1
    18    8    9 ar
    19    9   10 ar
    20    9   35 1
    21   10   11 ar
    22   10   36 1
    23   11   12 1
    24   12   13 1
    25   13   37 1
    26   13   38 1
    27   13   14 1
    28   14   15 ar
    29   14   28 ar
    30   15   39 1
    31   15   16 ar
    32   16   26 ar
    33   16   17 1
    34   17   31 2
    35   18   19 1
    36   18   40 1
    37   18   41 1
    38   19   42 1
    39   19   43 1
    40   20   21 1
    41   20   45 1
    42   20   44 1
    43   21   46 1
    44   21   47 1
    45   22   30 2
    46   22   23 1
    47   23   25 1
    48   23   24 1
    49   23   48 1
    50   24   25 1
    51   24   49 1
    52   24   50 1
    53   25   51 1
    54   25   52 1
    55   26   27 ar
    56   26   32 1
    57   27   28 ar
    58   27   53 1
    59   28   54 1
@<TRIPOS>SUBSTRUCTURE
1 UNL1 1
@<TRIPOS>COMMENT
Olaparib
PLANTSproteinTorsions
70
3 22.9750
48 63.1743
123 40.5007
171 172.4131
348 319.1068
606 16.2106
632 244.5937
655 30.1446
678 146.9162
700 196.2636
773 59.0220
807 121.1762
891 15.6796
933 59.5951
999 82.3218
1020 132.6195
1361 82.3914
1371 19.3383
1544 165.2941
1649 358.4387
1689 344.5491
1736 127.2660
1771 141.2496
2012 102.2469
2070 179.4851
2082 3.9515
2147 74.4236
2300 10.0908
2527 338.3007
2551 114.1921
2605 235.4526
2653 150.8155
2739 61.0919
2807 170.5338
2841 177.7187
2875 128.9756
2885 93.6384
2915 172.0163
3074 55.6839
3130 235.6456
3421 136.3273
3586 245.2865
3784 238.6550
3818 241.0498
3881 35.7417
3933 156.9329
4033 38.4215
4046 217.4048
4094 117.9389
4145 105.6538
4208 67.6600
4235 13.9490
4332 147.1142
4568 50.1168
4685 184.2619
4749 343.2204
4805 291.3138
4858 70.5955
4871 227.0895
4945 295.8112
4999 137.0737
5010 264.4664
5106 75.3709
5130 127.6543
5249 189.1946
5258 264.2310
5318 302.6071
5369 250.9411
5589 316.5668
5645 247.2416
PLANTSmolcadARTstart hb
PLANTSmolcadARTstart HB
LINES
28.0155 10.5946 22.5946 27.443 10.119 24.587 0 255 0 5
PLANTSmolcadARTstart HBCH
LINES
PLANTSmolcadARTstart HB-CHO
LINES
PLANTSmolcadARTend
PLANTSmolcadARTstart HB_WATER
LINES
PLANTSmolcadARTend

PLANTSmolcadARTend

