@<TRIPOS>MOLECULE
Olaparib_entry_00001_conf_05
55 59 1
SMALL
NO_CHARGES


@<TRIPOS>ATOM
      1 N          15.0738   -4.9489   13.5084 N.am      1 UNL1        0.0000
      2 N          15.6443   -2.4161   13.5966 N.am      1 UNL1        0.0000
      3 N          15.1440  -10.2667   11.0788 N.2       1 UNL1        0.0000
      4 N          14.5317  -11.3707   11.4322 N.am      1 UNL1        0.0000
      5 C          13.7996  -12.1085   10.5858 C.2       1 UNL1        0.0000
      6 C          13.6792  -11.6920    9.2760 C.ar      1 UNL1        0.0000
      7 C          12.9128  -12.4117    8.3584 C.ar      1 UNL1        0.0000
      8 C          12.7894  -11.9651    7.0604 C.ar      1 UNL1        0.0000
      9 C          13.4483  -10.7984    6.7352 C.ar      1 UNL1        0.0000
     10 C          14.2118  -10.0740    7.6354 C.ar      1 UNL1        0.0000
     11 C          14.3296  -10.5259    8.9167 C.ar      1 UNL1        0.0000
     12 C          15.0736   -9.7885    9.7983 C.2       1 UNL1        0.0000
     13 C          15.8529   -8.5891    9.5207 C.3       1 UNL1        0.0000
     14 C          16.5687   -8.1347   10.7448 C.ar      1 UNL1        0.0000
     15 C          15.7832   -7.4429   11.6840 C.ar      1 UNL1        0.0000
     16 C          16.3566   -6.9744   12.8418 C.ar      1 UNL1        0.0000
     17 C          15.5571   -6.2397   13.8480 C.2       1 UNL1        0.0000
     18 C          14.2953   -4.2119   14.4506 C.3       1 UNL1        0.0000
     19 C          14.3950   -2.7154   14.2467 C.3       1 UNL1        0.0000
     20 C          15.8451   -2.9711   12.2536 C.3       1 UNL1        0.0000
     21 C          15.3854   -4.4053   12.1996 C.3       1 UNL1        0.0000
     22 C          16.6359   -1.6359   14.1985 C.2       1 UNL1        0.0000
     23 C          16.5906   -1.0271   15.5306 C.3       1 UNL1        0.0000
     24 C          16.7484    0.4757   15.5827 C.3       1 UNL1        0.0000
     25 C          17.7965   -0.3922   16.1242 C.3       1 UNL1        0.0000
     26 C          17.6859   -7.1451   13.1478 C.ar      1 UNL1        0.0000
     27 C          18.4538   -7.8223   12.2277 C.ar      1 UNL1        0.0000
     28 C          17.8723   -8.3008   11.0449 C.ar      1 UNL1        0.0000
     29 O          13.2062  -13.1704   10.9056 O.2       1 UNL1        0.0000
     30 O          17.7087   -1.4183   13.5299 O.2       1 UNL1        0.0000
     31 O          15.2985   -6.7196   14.9757 O.2       1 UNL1        0.0000
     32 F          18.2085   -6.6600   14.3115 F         1 UNL1        0.0000
     33 H          12.4383  -13.2799    8.6517 H         1 UNL1        0.0000
     34 H          12.2291  -12.4798    6.3644 H         1 UNL1        0.0000
     35 H          13.3679  -10.4459    5.7691 H         1 UNL1        0.0000
     36 H          14.6852   -9.2051    7.3416 H         1 UNL1        0.0000
     37 H          15.1970   -7.8121    9.1874 H         1 UNL1        0.0000
     38 H          16.5752   -8.8142    8.7637 H         1 UNL1        0.0000
     39 H          14.7792   -7.2872   11.5042 H         1 UNL1        0.0000
     40 H          14.6382   -4.4472   15.4367 H         1 UNL1        0.0000
     41 H          13.2709   -4.4899   14.3112 H         1 UNL1        0.0000
     42 H          14.3546   -2.2202   15.1940 H         1 UNL1        0.0000
     43 H          13.5801   -2.3770   13.6408 H         1 UNL1        0.0000
     44 H          16.8846   -2.9258   12.0050 H         1 UNL1        0.0000
     45 H          15.2727   -2.3992   11.5534 H         1 UNL1        0.0000
     46 H          16.1623   -4.9969   11.7617 H         1 UNL1        0.0000
     47 H          14.4879   -4.4330   11.6192 H         1 UNL1        0.0000
     48 H          15.8971   -1.7630   15.8798 H         1 UNL1        0.0000
     49 H          16.1386    1.0553   16.2441 H         1 UNL1        0.0000
     50 H          16.7160    1.2658   14.8618 H         1 UNL1        0.0000
     51 H          17.9543   -0.4371   17.1816 H         1 UNL1        0.0000
     52 H          18.8485   -0.4853   15.9572 H         1 UNL1        0.0000
     53 H          19.4584   -7.9780   12.4092 H         1 UNL1        0.0000
     54 H          18.4706   -8.8051   10.3716 H         1 UNL1        0.0000
     55 H          14.6143  -11.6731   12.3658 H         1 UNL1        0.0000
@<TRIPOS>BOND
     1    1   18 1
     2    1   21 1
     3    1   17 am
     4    2   19 1
     5    2   20 1
     6    2   22 am
     7    3    4 1
     8    3   12 2
     9    4    5 am
    10    4   55 1
    11    5   29 2
    12    5    6 1
    13    6    7 ar
    14    6   11 ar
    15    7    8 ar
    16    7   33 1
    17    8   34 1
    18    8    9 ar
    19    9   10 ar
    20    9   35 1
    21   10   11 ar
    22   10   36 1
    23   11   12 1
    24   12   13 1
    25   13   37 1
    26   13   38 1
    27   13   14 1
    28   14   15 ar
    29   14   28 ar
    30   15   39 1
    31   15   16 ar
    32   16   26 ar
    33   16   17 1
    34   17   31 2
    35   18   19 1
    36   18   40 1
    37   18   41 1
    38   19   42 1
    39   19   43 1
    40   20   21 1
    41   20   45 1
    42   20   44 1
    43   21   46 1
    44   21   47 1
    45   22   30 2
    46   22   23 1
    47   23   25 1
    48   23   24 1
    49   23   48 1
    50   24   25 1
    51   24   49 1
    52   24   50 1
    53   25   51 1
    54   25   52 1
    55   26   27 ar
    56   26   32 1
    57   27   28 ar
    58   27   53 1
    59   28   54 1
@<TRIPOS>SUBSTRUCTURE
1 UNL1 1
@<TRIPOS>COMMENT
Olaparib
PLANTSproteinTorsions
70
3 100.2710
48 187.6948
123 57.0981
171 75.6250
348 189.0041
606 38.1248
632 249.0106
655 342.0217
678 37.1089
700 79.5606
773 153.1913
807 89.6071
891 191.4669
933 142.1341
999 301.2267
1020 159.3132
1361 33.0073
1371 8.8271
1544 61.9015
1649 20.7652
1689 68.4955
1736 13.6098
1771 145.4642
2012 134.3584
2070 213.7673
2082 121.3845
2147 54.2807
2300 125.3899
2527 107.5934
2551 105.3458
2605 164.8997
2653 163.8804
2739 93.0374
2807 262.9807
2841 280.1090
2875 23.5326
2885 261.0053
2915 190.8731
3074 109.1438
3130 155.5108
3421 255.0857
3586 23.0686
3784 65.8687
3818 195.6140
3881 74.1842
3933 42.2188
4033 273.0027
4046 146.3249
4094 45.3185
4145 204.5016
4208 114.0329
4235 219.0458
4332 130.2652
4568 286.4601
4685 31.6237
4749 225.9681
4805 104.4271
4858 311.3638
4871 311.4482
4945 187.2863
4999 201.9819
5010 298.2512
5106 255.2618
5130 210.6083
5249 84.1884
5258 264.4205
5318 270.0340
5369 131.3368
5589 61.4869
5645 319.5348
PLANTSmolcadARTstart hb
PLANTSmolcadARTstart HB
LINES
15.2985 -6.71958 14.9757 14.939 -7.462 16.94 0 255 0 5
PLANTSmolcadARTstart HBCH
LINES
PLANTSmolcadARTstart HB-CHO
LINES
PLANTSmolcadARTend
PLANTSmolcadARTstart HB_WATER
LINES
PLANTSmolcadARTend

PLANTSmolcadARTend

