@<TRIPOS>MOLECULE
Olaparib_entry_00001_conf_29_protein
188 118 70
SMALL
NO_CHARGES


@<TRIPOS>ATOM
      1 H         -21.5178    9.0840   11.0656 H       223 ASP223      0.0000
      2 N         -20.6100    9.4850   10.9640 N.4     223 ASP223      1.0000
      3 H2        -20.6792   10.3608   10.4931 H       223 ASP223      0.0000
      4 H3        -20.0255    8.8679   10.4438 H       223 ASP223      0.0000
      5 HG1       -24.4200    6.1123   15.1111 H       226 THR226      0.0000
      6 OG1       -23.6480    5.6080   15.5080 O.3     226 THR226      0.0000
      7 HH        -28.4946    3.3306   16.8401 H       230 TYR230      0.0000
      8 OH        -27.8370    3.0600   17.5440 O.3     230 TYR230      0.0000
      9 HG        -15.8120   -1.8707   11.8067 H       233 SER233      0.0000
     10 OG        -15.9490   -2.4540   12.6070 O.3     233 SER233      0.0000
     11 HZ1        -8.3925    5.5532    8.2094 H       243 LYS243      0.0000
     12 NZ         -8.7810    4.7010    8.5470 N.4     243 LYS243      1.0000
     13 HZ2        -9.6965    4.5707    8.1785 H       243 LYS243      0.0000
     14 HZ3        -8.8088    4.7065    9.5429 H       243 LYS243      0.0000
     15 HZ1        21.9457    9.7879    0.5921 H       259 LYS259      0.0000
     16 NZ         22.3540    9.4710   -0.2580 N.4     259 LYS259      1.0000
     17 HZ2        22.5000    8.4882   -0.2270 H       259 LYS259      0.0000
     18 HZ3        23.2122    9.9440   -0.4277 H       259 LYS259      0.0000
     19 HH         15.2647   -3.7093   -4.3289 H       260 TYR260      0.0000
     20 OH         15.3870   -3.7430   -3.3350 O.3     260 TYR260      0.0000
     21 HG1        12.3749    3.6375   -4.7700 H       262 THR262      0.0000
     22 OG1        11.6660    3.1790   -5.3180 O.3     262 THR262      0.0000
     23 HZ1         9.0116    6.4039   -8.4729 H       263 LYS263      0.0000
     24 NZ          9.6700    5.6550   -8.4530 N.4     263 LYS263      1.0000
     25 HZ2         9.4612    5.0379   -7.6974 H       263 LYS263      0.0000
     26 HZ3        10.5931    6.0169   -8.3516 H       263 LYS263      0.0000
     27 HZ1        21.8256   -1.4611  -11.7478 H       264 LYS264      0.0000
     28 NZ         21.2250   -1.7280  -11.0010 N.4     264 LYS264      1.0000
     29 HZ2        21.0699   -0.9578  -10.3909 H       264 LYS264      0.0000
     30 HZ3        21.6178   -2.4925  -10.4987 H       264 LYS264      0.0000
     31 HZ1         7.7946   -5.8677   -8.6416 H       269 LYS269      0.0000
     32 NZ          7.3110   -6.1790   -9.4530 N.4     269 LYS269      1.0000
     33 HZ2         7.3285   -5.4766  -10.1571 H       269 LYS269      0.0000
     34 HZ3         6.3725   -6.4170   -9.2260 H       269 LYS269      0.0000
     35 HG1        15.0618  -12.0520   -2.8246 H       271 THR271      0.0000
     36 OG1        14.9200  -12.8790   -2.2680 O.3     271 THR271      0.0000
     37 HZ1        23.3654  -18.4675    4.8566 H       276 LYS276      0.0000
     38 NZ         22.5510  -17.9540    4.5780 N.4     276 LYS276      1.0000
     39 HZ2        22.0074  -17.7308    5.3904 H       276 LYS276      0.0000
     40 HZ3        22.0022  -18.5187    3.9589 H       276 LYS276      0.0000
     41 HH         19.4006   -7.9917    8.7793 H       279 TYR279      0.0000
     42 OH         19.8080   -7.2760    8.2120 O.3     279 TYR279      0.0000
     43 HZ1        34.4051  -11.2029    7.2310 H       283 LYS283      0.0000
     44 NZ         33.9490  -11.9430    7.7200 N.4     283 LYS283      1.0000
     45 HZ2        34.5260  -12.2650    8.4659 H       283 LYS283      0.0000
     46 HZ3        33.7501  -12.6932    7.0943 H       283 LYS283      0.0000
     47 HZ1        30.8081  -11.2116   -2.2112 H       284 LYS284      0.0000
     48 NZ         31.2280  -12.1170   -2.2610 N.4     284 LYS284      1.0000
     49 HZ2        31.6173  -12.2581   -3.1698 H       284 LYS284      0.0000
     50 HZ3        30.5396  -12.8174   -2.0768 H       284 LYS284      0.0000
     51 HH         27.3191    3.6149   -2.0267 H       306 TYR306      0.0000
     52 OH         27.7740    2.7440   -1.8460 O.3     306 TYR306      0.0000
     53 HG1        27.2409   -5.3122   -9.1782 H       307 THR307      0.0000
     54 OG1        26.3120   -4.9350   -9.2430 O.3     307 THR307      0.0000
     55 HG1        32.6873    8.8556  -10.1117 H       317 THR317      0.0000
     56 OG1        31.8950    9.2350   -9.6220 O.3     317 THR317      0.0000
     57 HG1        31.9957    5.1379    6.8777 H       323 THR323      0.0000
     58 OG1        32.4070    5.6740    7.6230 O.3     323 THR323      0.0000
     59 HZ1        28.4113    8.7024    6.6346 H       325 LYS325      0.0000
     60 NZ         29.1610    8.9330    7.2460 N.4     325 LYS325      1.0000
     61 HZ2        29.6960    9.6830    6.8697 H       325 LYS325      0.0000
     62 HZ3        29.7394    8.1381    7.3997 H       325 LYS325      0.0000
     63 HG         25.3307    2.3985   12.5003 H       328 SER328      0.0000
     64 OG         25.1580    2.2890   11.5220 O.3     328 SER328      0.0000
     65 HZ1        22.6322    2.5676    1.3354 H       330 LYS330      0.0000
     66 NZ         23.5180    3.0260    1.3810 N.4     330 LYS330      1.0000
     67 HZ2        23.3849    3.9989    1.5629 H       330 LYS330      0.0000
     68 HZ3        24.0039    2.9075    0.5167 H       330 LYS330      0.0000
     69 HZ1         8.6600  -14.4398    1.5443 H       345 LYS345      0.0000
     70 NZ          8.3930  -14.1050    2.4430 N.4     345 LYS345      1.0000
     71 HZ2         8.5617  -13.1255    2.5089 H       345 LYS345      0.0000
     72 HZ3         8.8961  -14.5889    3.1534 H       345 LYS345      0.0000
     73 HZ1         2.0941  -13.4511   -1.5028 H       348 LYS348      0.0000
     74 NZ          2.7670  -12.9680   -0.9450 N.4     348 LYS348      1.0000
     75 HZ2         3.5990  -12.8187   -1.4759 H       348 LYS348      0.0000
     76 HZ3         2.9788  -13.5063   -0.1303 H       348 LYS348      0.0000
     77 HG1        -7.2930   -8.3408    0.6381 H       349 THR349      0.0000
     78 OG1        -6.3420   -8.2570    0.9570 O.3     349 THR349      0.0000
     79 HG        -11.2437  -13.2722    6.0612 H       353 SER353      0.0000
     80 OG        -11.8450  -12.6320    5.5800 O.3     353 SER353      0.0000
     81 HH         -4.2120   -5.3430   19.8918 H       362 TYR362      0.0000
     82 OH         -4.7470   -6.1480   19.6250 O.3     362 TYR362      0.0000
     83 HG         -3.7996    6.6469   31.1611 H       376 SER376      0.0000
     84 OG         -3.5570    5.9650   31.8460 O.3     376 SER376      0.0000
     85 HH          4.0844    5.7141   38.7984 H       377 TYR377      0.0000
     86 OH          3.4610    6.1200   39.4630 O.3     377 TYR377      0.0000
     87 HZ1         1.7983   10.6358   39.2722 H       380 LYS380      0.0000
     88 NZ          2.3270   11.2610   38.6950 N.4     380 LYS380      1.0000
     89 HZ2         3.3040   11.1274   38.8731 H       380 LYS380      0.0000
     90 HZ3         2.0781   12.2051   38.9178 H       380 LYS380      0.0000
     91 HG          1.4483   11.1788   29.4388 H       383 SER383      0.0000
     92 OG          2.1950   11.6230   28.9400 O.3     383 SER383      0.0000
     93 HG         11.7715   12.0352   32.2934 H       388 SER388      0.0000
     94 OG         11.5430   12.3570   33.2060 O.3     388 SER388      0.0000
     95 HG1        22.0968   15.2535   23.3234 H       393 THR393      0.0000
     96 OG1        22.9410   15.5890   23.7600 O.3     393 THR393      0.0000
     97 HG         18.8355   22.5631   20.7002 H       395 SER395      0.0000
     98 OG         19.0240   21.7000   21.1650 O.3     395 SER395      0.0000
     99 HH         14.8515   12.2535   18.9958 H       397 TYR397      0.0000
    100 OH         14.8710   12.9690   19.6890 O.3     397 TYR397      0.0000
    101 HG1         8.0885   19.2626   20.7892 H       398 THR398      0.0000
    102 OG1         8.6220   20.0310   21.1580 O.3     398 THR398      0.0000
    103 HG1         3.2234   18.5672   21.5959 H       400 THR400      0.0000
    104 OG1         3.9170   17.8990   21.3100 O.3     400 THR400      0.0000
    105 HZ1         3.8641  -12.2328   17.7620 H       409 LYS409      0.0000
    106 NZ          4.4340  -11.4210   17.6290 N.4     409 LYS409      1.0000
    107 HZ2         3.8533  -10.6059   17.6199 H       409 LYS409      0.0000
    108 HZ3         4.9164  -11.4943   16.7545 H       409 LYS409      0.0000
    109 HZ1         0.8391  -11.1427   33.4424 H       413 LYS413      0.0000
    110 NZ          1.6780  -11.4650   33.0130 N.4     413 LYS413      1.0000
    111 HZ2         2.4062  -11.5309   33.6897 H       413 LYS413      0.0000
    112 HZ3         1.9473  -10.8474   32.2795 H       413 LYS413      0.0000
    113 HG         14.2209   -0.0146   14.4480 H       430 SER430      0.0000
    114 OG         13.4130    0.4260   14.0760 O.3     430 SER430      0.0000
    115 HG          6.0146   -9.4789   11.4638 H       440 SER440      0.0000
    116 OG          5.9710   -8.9830   12.3290 O.3     440 SER440      0.0000
    117 HG1        32.5870   -2.3445   10.2211 H       453 THR453      0.0000
    118 OG1        32.1320   -2.9810   10.8570 O.3     453 THR453      0.0000
    119 HH         22.3498   -5.3254   12.5665 H       455 TYR455      0.0000
    120 OH         23.2810   -5.5850   12.3310 O.3     455 TYR455      0.0000
    121 HZ1        26.3400  -10.0454   11.7648 H       459 LYS459      0.0000
    122 NZ         26.6110  -10.3810   12.6630 N.4     459 LYS459      1.0000
    123 HZ2        27.5600  -10.6841   12.6437 H       459 LYS459      0.0000
    124 HZ3        26.0178  -11.1313   12.9413 H       459 LYS459      0.0000
    125 HH         25.7394   -2.8506   19.0313 H       462 TYR462      0.0000
    126 OH         25.6260   -2.9400   20.0150 O.3     462 TYR462      0.0000
    127 HZ1        23.3197    6.1604   25.2407 H       469 LYS469      0.0000
    128 NZ         23.5700    5.9180   24.3040 N.4     469 LYS469      1.0000
    129 HZ2        23.7846    4.9434   24.2545 H       469 LYS469      0.0000
    130 HZ3        24.3655    6.4518   24.0203 H       469 LYS469      0.0000
    131 HG         15.6269    4.8404   23.9347 H       470 SER470      0.0000
    132 OG         15.8020    4.6360   22.9740 O.3     470 SER470      0.0000
    133 HH         22.8525    5.8174   17.0476 H       473 TYR473      0.0000
    134 OH         22.3100    5.5040   17.8300 O.3     473 TYR473      0.0000
    135 HG         10.4896   13.7047    8.4264 H       477 SER477      0.0000
    136 OG         11.1460   14.2360    7.8940 O.3     477 SER477      0.0000
    137 HZ1         4.3819   11.3453    4.2127 H       480 LYS480      0.0000
    138 NZ          5.0820   11.8220    4.7460 N.4     480 LYS480      1.0000
    139 HZ2         4.7722   11.9146    5.6929 H       480 LYS480      0.0000
    140 HZ3         5.2364   12.7303    4.3558 H       480 LYS480      0.0000
    141 HG1         2.3006   12.0251   14.0188 H       482 THR482      0.0000
    142 OG1         2.7330   12.0500   13.1080 O.3     482 THR482      0.0000
    143 HG         10.8166   -2.1534   24.4390 H       488 SER488      0.0000
    144 OG         10.3440   -2.9460   24.8140 O.3     488 SER488      0.0000
    145 HZ1        37.4079   -7.4833   16.6346 H       504 LYS504      0.0000
    146 NZ         37.6760   -7.8080   17.5340 N.4     504 LYS504      1.0000
    147 HZ2        37.3374   -7.1991   18.2416 H       504 LYS504      0.0000
    148 HZ3        38.6629   -7.8995   17.5940 H       504 LYS504      0.0000
    149 HZ1        31.3347   -6.7086   36.0251 H       512 LYS512      0.0000
    150 NZ         30.3650   -6.7700   36.2570 N.4     512 LYS512      1.0000
    151 HZ2        29.8387   -6.1620   35.6646 H       512 LYS512      0.0000
    152 HZ3        30.2305   -6.5094   37.2123 H       512 LYS512      0.0000
    153 HZ1        24.7011    3.1446   35.1517 H       516 LYS516      0.0000
    154 NZ         24.0380    2.5320   34.7210 N.4     516 LYS516      1.0000
    155 HZ2        23.1195    2.9140   34.8176 H       516 LYS516      0.0000
    156 HZ3        24.0749    1.6357   35.1638 H       516 LYS516      0.0000
    157 HZ1        31.6188   14.2772   26.3676 H       520 LYS520      0.0000
    158 NZ         30.6520   14.1570   26.5930 N.4     520 LYS520      1.0000
    159 HZ2        30.3137   13.3135   26.1762 H       520 LYS520      0.0000
    160 HZ3        30.1280   14.9346   26.2460 H       520 LYS520      0.0000
    161 HG         18.2457   10.7644   40.7739 H       524 SER524      0.0000
    162 OG         18.8770   11.4400   40.3940 O.3     524 SER524      0.0000
    163 HG         20.2046    7.3704   42.7068 H       525 SER525      0.0000
    164 OG         19.6990    6.6420   43.1690 O.3     525 SER525      0.0000
    165 HG1         6.8028    0.0496   41.2562 H       530 THR530      0.0000
    166 OG1         7.6550    0.4270   41.6380 O.3     530 THR530      0.0000
    167 HG         10.5311   -4.0471   34.3792 H       534 SER534      0.0000
    168 OG          9.6090   -3.6750   34.4630 O.3     534 SER534      0.0000
    169 HG1        14.5159   -0.2073   39.5151 H       535 THR535      0.0000
    170 OG1        13.6020   -0.2690   39.0930 O.3     535 THR535      0.0000
    171 HG         22.4843   13.6348   39.0106 H       542 SER542      0.0000
    172 OG         22.1280   13.5570   38.0820 O.3     542 SER542      0.0000
    173 HG1        27.4760    9.9540   33.4668 H       544 THR544      0.0000
    174 OG1        28.0730    9.6670   34.2240 O.3     544 THR544      0.0000
    175 HH         39.7021   13.2478   19.8030 H       552 TYR552      0.0000
    176 OH         38.7990   13.4190   19.4090 O.3     552 TYR552      0.0000
    177 HG1        34.5547    8.8197   28.4984 H       553 THR553      0.0000
    178 OG1        34.2910    9.6820   28.0520 O.3     553 THR553      0.0000
    179 HH         21.9232   15.4359   27.1055 H       556 TYR556      0.0000
    180 OH         22.3900   15.0220   26.3220 O.3     556 TYR556      0.0000
    181 HH         21.6007    2.6467   33.4058 H       559 TYR559      0.0000
    182 OH         20.7160    2.6790   32.9500 O.3     559 TYR559      0.0000
    183 HH          1.4059   -0.4130   31.8578 H       571 TYR571      0.0000
    184 OH          2.2400    0.1330   31.8950 O.3     571 TYR571      0.0000
    185 HZ1        -2.3555    9.3457   14.3195 H       574 LYS574      0.0000
    186 NZ         -2.0400    8.5440   14.8270 N.4     574 LYS574      1.0000
    187 HZ2        -2.1066    7.7334   14.2461 H       574 LYS574      0.0000
    188 HZ3        -2.6055    8.4195   15.6417 H       574 LYS574      0.0000
@<TRIPOS>BOND
     1    2    1 1
     2    2    4 1
     3    2    3 1
     4    6    5 1
     5    8    7 1
     6   10    9 1
     7   12   11 1
     8   12   13 1
     9   12   14 1
    10   16   15 1
    11   16   17 1
    12   16   18 1
    13   20   19 1
    14   22   21 1
    15   24   26 1
    16   24   23 1
    17   24   25 1
    18   28   27 1
    19   28   30 1
    20   28   29 1
    21   32   33 1
    22   32   34 1
    23   32   31 1
    24   36   35 1
    25   38   37 1
    26   38   39 1
    27   38   40 1
    28   42   41 1
    29   44   43 1
    30   44   45 1
    31   44   46 1
    32   48   47 1
    33   48   49 1
    34   48   50 1
    35   52   51 1
    36   54   53 1
    37   56   55 1
    38   58   57 1
    39   60   61 1
    40   60   59 1
    41   60   62 1
    42   64   63 1
    43   66   65 1
    44   66   68 1
    45   66   67 1
    46   70   69 1
    47   70   71 1
    48   70   72 1
    49   74   73 1
    50   74   75 1
    51   74   76 1
    52   78   77 1
    53   80   79 1
    54   82   81 1
    55   84   83 1
    56   86   85 1
    57   88   87 1
    58   88   89 1
    59   88   90 1
    60   92   91 1
    61   94   93 1
    62   96   95 1
    63   98   97 1
    64  100   99 1
    65  102  101 1
    66  104  103 1
    67  106  107 1
    68  106  108 1
    69  106  105 1
    70  110  109 1
    71  110  112 1
    72  110  111 1
    73  114  113 1
    74  116  115 1
    75  118  117 1
    76  120  119 1
    77  122  121 1
    78  122  123 1
    79  122  124 1
    80  126  125 1
    81  128  127 1
    82  128  129 1
    83  128  130 1
    84  132  131 1
    85  134  133 1
    86  136  135 1
    87  138  137 1
    88  138  140 1
    89  138  139 1
    90  142  141 1
    91  144  143 1
    92  146  147 1
    93  146  145 1
    94  146  148 1
    95  150  151 1
    96  150  149 1
    97  150  152 1
    98  154  153 1
    99  154  155 1
   100  154  156 1
   101  158  157 1
   102  158  159 1
   103  158  160 1
   104  162  161 1
   105  164  163 1
   106  166  165 1
   107  168  167 1
   108  170  169 1
   109  172  171 1
   110  174  173 1
   111  176  175 1
   112  178  177 1
   113  180  179 1
   114  182  181 1
   115  184  183 1
   116  186  185 1
   117  186  188 1
   118  186  187 1
@<TRIPOS>SUBSTRUCTURE
223 ASP223 1
226 THR226 5
230 TYR230 7
233 SER233 9
243 LYS243 11
259 LYS259 15
260 TYR260 19
262 THR262 21
263 LYS263 23
264 LYS264 27
269 LYS269 31
271 THR271 35
276 LYS276 37
279 TYR279 41
283 LYS283 43
284 LYS284 47
306 TYR306 51
307 THR307 53
317 THR317 55
323 THR323 57
325 LYS325 59
328 SER328 63
330 LYS330 65
345 LYS345 69
348 LYS348 73
349 THR349 77
353 SER353 79
362 TYR362 81
376 SER376 83
377 TYR377 85
380 LYS380 87
383 SER383 91
388 SER388 93
393 THR393 95
395 SER395 97
397 TYR397 99
398 THR398 101
400 THR400 103
409 LYS409 105
413 LYS413 109
430 SER430 113
440 SER440 115
453 THR453 117
455 TYR455 119
459 LYS459 121
462 TYR462 125
469 LYS469 127
470 SER470 131
473 TYR473 133
477 SER477 135
480 LYS480 137
482 THR482 141
488 SER488 143
504 LYS504 145
512 LYS512 149
516 LYS516 153
520 LYS520 157
524 SER524 161
525 SER525 163
530 THR530 165
534 SER534 167
535 THR535 169
542 SER542 171
544 THR544 173
552 TYR552 175
553 THR553 177
556 TYR556 179
559 TYR559 181
571 TYR571 183
574 LYS574 185
@<TRIPOS>COMMENT
