@<TRIPOS>MOLECULE
Olaparib_entry_00001_conf_97
55 59 1
SMALL
NO_CHARGES


@<TRIPOS>ATOM
      1 N          10.6532   12.7122   -0.0313 N.am      1 UNL1        0.0000
      2 N           8.3818   13.2297   -1.1807 N.am      1 UNL1        0.0000
      3 N          12.3049    8.2154    5.3169 N.2       1 UNL1        0.0000
      4 N          13.1469    7.6992    6.1790 N.am      1 UNL1        0.0000
      5 C          12.8383    7.4750    7.4641 C.2       1 UNL1        0.0000
      6 C          11.5738    7.8012    7.9095 C.ar      1 UNL1        0.0000
      7 C          11.2067    7.6072    9.2417 C.ar      1 UNL1        0.0000
      8 C           9.9449    7.9603    9.6692 C.ar      1 UNL1        0.0000
      9 C           9.0948    8.5019    8.7283 C.ar      1 UNL1        0.0000
     10 C           9.4458    8.7004    7.4035 C.ar      1 UNL1        0.0000
     11 C          10.6959    8.3452    6.9901 C.ar      1 UNL1        0.0000
     12 C          11.0326    8.5643    5.6813 C.2       1 UNL1        0.0000
     13 C          10.1771    9.0653    4.6134 C.3       1 UNL1        0.0000
     14 C          10.7043   10.3517    4.0800 C.ar      1 UNL1        0.0000
     15 C          10.7975   10.4336    2.6792 C.ar      1 UNL1        0.0000
     16 C          11.2824   11.5778    2.0922 C.ar      1 UNL1        0.0000
     17 C          11.3958   11.6933    0.6208 C.2       1 UNL1        0.0000
     18 C          10.7406   12.8579   -1.4484 C.3       1 UNL1        0.0000
     19 C           9.5017   13.4877   -2.0481 C.3       1 UNL1        0.0000
     20 C           8.4454   13.7917    0.1728 C.3       1 UNL1        0.0000
     21 C           9.8160   13.5893    0.7659 C.3       1 UNL1        0.0000
     22 C           7.2742   12.4799   -1.5874 C.2       1 UNL1        0.0000
     23 C           7.0708   11.8452   -2.8923 C.3       1 UNL1        0.0000
     24 C           5.6641   11.3814   -3.1962 C.3       1 UNL1        0.0000
     25 C           6.7341   10.4012   -2.9978 C.3       1 UNL1        0.0000
     26 C          11.6926   12.6773    2.8084 C.ar      1 UNL1        0.0000
     27 C          11.6010   12.5959    4.1795 C.ar      1 UNL1        0.0000
     28 C          11.1076   11.4296    4.7817 C.ar      1 UNL1        0.0000
     29 O          13.6314    6.9798    8.3052 O.2       1 UNL1        0.0000
     30 O           6.3234   12.3176   -0.7419 O.2       1 UNL1        0.0000
     31 O          12.1197   10.9269   -0.0556 O.2       1 UNL1        0.0000
     32 F          12.1679   13.7908    2.1784 F         1 UNL1        0.0000
     33 H          11.8805    7.1981    9.9078 H         1 UNL1        0.0000
     34 H           9.6505    7.8261   10.6482 H         1 UNL1        0.0000
     35 H           8.1460    8.7744    9.0278 H         1 UNL1        0.0000
     36 H           8.7717    9.1106    6.7381 H         1 UNL1        0.0000
     37 H           9.1902    9.2209    4.9964 H         1 UNL1        0.0000
     38 H          10.1577    8.3466    3.8207 H         1 UNL1        0.0000
     39 H          10.5029    9.6368    2.0936 H         1 UNL1        0.0000
     40 H          10.8785   11.8902   -1.8843 H         1 UNL1        0.0000
     41 H          11.5663   13.5068   -1.6563 H         1 UNL1        0.0000
     42 H           9.3146   13.0647   -3.0127 H         1 UNL1        0.0000
     43 H           9.6454   14.5432   -2.1515 H         1 UNL1        0.0000
     44 H           7.7199   13.3058    0.7910 H         1 UNL1        0.0000
     45 H           8.2436   14.8413    0.1219 H         1 UNL1        0.0000
     46 H           9.7068   13.1617    1.7408 H         1 UNL1        0.0000
     47 H          10.2949   14.5447    0.8008 H         1 UNL1        0.0000
     48 H           7.8160   12.4638   -3.3465 H         1 UNL1        0.0000
     49 H           5.2499   11.5318   -4.1714 H         1 UNL1        0.0000
     50 H           4.7008   11.5503   -2.7620 H         1 UNL1        0.0000
     51 H           7.0927    9.8316   -3.8297 H         1 UNL1        0.0000
     52 H           6.8619    9.5556   -2.3560 H         1 UNL1        0.0000
     53 H          11.8956   13.3943    4.7643 H         1 UNL1        0.0000
     54 H          11.0497   11.3946    5.8117 H         1 UNL1        0.0000
     55 H          14.0508    7.4641    5.8667 H         1 UNL1        0.0000
@<TRIPOS>BOND
     1    1   18 1
     2    1   21 1
     3    1   17 am
     4    2   19 1
     5    2   20 1
     6    2   22 am
     7    3    4 1
     8    3   12 2
     9    4    5 am
    10    4   55 1
    11    5   29 2
    12    5    6 1
    13    6    7 ar
    14    6   11 ar
    15    7    8 ar
    16    7   33 1
    17    8   34 1
    18    8    9 ar
    19    9   10 ar
    20    9   35 1
    21   10   11 ar
    22   10   36 1
    23   11   12 1
    24   12   13 1
    25   13   37 1
    26   13   38 1
    27   13   14 1
    28   14   15 ar
    29   14   28 ar
    30   15   39 1
    31   15   16 ar
    32   16   26 ar
    33   16   17 1
    34   17   31 2
    35   18   19 1
    36   18   40 1
    37   18   41 1
    38   19   42 1
    39   19   43 1
    40   20   21 1
    41   20   45 1
    42   20   44 1
    43   21   46 1
    44   21   47 1
    45   22   30 2
    46   22   23 1
    47   23   25 1
    48   23   24 1
    49   23   48 1
    50   24   25 1
    51   24   49 1
    52   24   50 1
    53   25   51 1
    54   25   52 1
    55   26   27 ar
    56   26   32 1
    57   27   28 ar
    58   27   53 1
    59   28   54 1
@<TRIPOS>SUBSTRUCTURE
1 UNL1 1
@<TRIPOS>COMMENT
Olaparib
PLANTSproteinTorsions
70
3 94.8874
48 200.2787
123 49.7040
171 93.9802
348 116.9485
606 220.9616
632 108.6236
655 233.0777
678 21.9528
700 208.1711
773 139.6622
807 132.9146
891 52.5726
933 130.4588
999 211.6791
1020 54.3949
1361 154.0883
1371 225.9872
1544 45.4216
1649 303.3255
1689 200.8922
1736 49.2177
1771 145.9747
2012 47.7628
2070 201.3819
2082 118.7668
2147 256.1057
2300 148.9498
2527 48.3511
2551 50.9114
2605 76.1166
2653 67.6391
2739 304.0186
2807 246.2690
2841 270.1852
2875 17.9760
2885 317.2314
2915 78.0342
3074 37.3120
3130 196.6893
3421 261.6513
3586 266.0183
3784 208.9660
3818 260.7384
3881 326.2263
3933 226.8289
4033 212.9090
4046 354.7546
4094 22.8674
4145 56.3569
4208 255.3378
4235 209.2689
4332 238.2658
4568 144.2960
4685 239.2142
4749 69.1305
4805 210.1568
4858 307.2398
4871 281.8248
4945 338.6558
4999 92.2957
5010 351.0339
5106 318.0021
5130 242.7433
5249 46.4816
5258 133.5547
5318 28.7753
5369 117.8083
5589 81.0551
5645 194.0881
PLANTSmolcadARTstart hb
PLANTSmolcadARTstart HB
LINES
13.6314 6.97983 8.30523 15.126 5.6 7.995 0 255 0 5
PLANTSmolcadARTstart HBCH
LINES
PLANTSmolcadARTstart HB-CHO
LINES
PLANTSmolcadARTend
PLANTSmolcadARTstart HB_WATER
LINES
PLANTSmolcadARTend

PLANTSmolcadARTend

