@<TRIPOS>MOLECULE
Olaparib_entry_00001_conf_85
55 59 1
SMALL
NO_CHARGES


@<TRIPOS>ATOM
      1 N          30.8221  -13.2705   21.1633 N.am      1 UNL1        0.0000
      2 N          32.1277  -15.2542   22.2162 N.am      1 UNL1        0.0000
      3 N          34.1711  -11.7275   14.6522 N.2       1 UNL1        0.0000
      4 N          34.7425  -10.9128   13.7987 N.am      1 UNL1        0.0000
      5 C          34.0964  -10.3656   12.7594 C.2       1 UNL1        0.0000
      6 C          32.7639  -10.6702   12.5714 C.ar      1 UNL1        0.0000
      7 C          32.0494  -10.1441   11.4945 C.ar      1 UNL1        0.0000
      8 C          30.7247  -10.4792   11.3145 C.ar      1 UNL1        0.0000
      9 C          30.1670  -11.3410   12.2350 C.ar      1 UNL1        0.0000
     10 C          30.8641  -11.8709   13.3079 C.ar      1 UNL1        0.0000
     11 C          32.1738  -11.5309   13.4785 C.ar      1 UNL1        0.0000
     12 C          32.8532  -12.0773   14.5342 C.2       1 UNL1        0.0000
     13 C          32.3239  -12.9367   15.5851 C.3       1 UNL1        0.0000
     14 C          31.9816  -12.1363   16.7932 C.ar      1 UNL1        0.0000
     15 C          31.2594  -12.8197   17.7877 C.ar      1 UNL1        0.0000
     16 C          30.8880  -12.1624   18.9361 C.ar      1 UNL1        0.0000
     17 C          30.1244  -12.8533   19.9996 C.2       1 UNL1        0.0000
     18 C          30.1191  -13.9354   22.2124 C.3       1 UNL1        0.0000
     19 C          31.0122  -14.8444   23.0292 C.3       1 UNL1        0.0000
     20 C          33.0313  -14.1987   21.7458 C.3       1 UNL1        0.0000
     21 C          32.2461  -13.0080   21.2592 C.3       1 UNL1        0.0000
     22 C          32.3585  -16.5906   21.8769 C.2       1 UNL1        0.0000
     23 C          31.5447  -17.7490   22.2550 C.3       1 UNL1        0.0000
     24 C          31.5812  -18.1418   23.7146 C.3       1 UNL1        0.0000
     25 C          32.1781  -19.0169   22.7031 C.3       1 UNL1        0.0000
     26 C          31.1871  -10.8430   19.1803 C.ar      1 UNL1        0.0000
     27 C          31.8940  -10.1751   18.2061 C.ar      1 UNL1        0.0000
     28 C          32.2737  -10.8424   17.0327 C.ar      1 UNL1        0.0000
     29 O          34.6267   -9.5815   11.9313 O.2       1 UNL1        0.0000
     30 O          33.3875  -16.8520   21.1572 O.2       1 UNL1        0.0000
     31 O          28.8958  -13.0767   19.9022 O.2       1 UNL1        0.0000
     32 F          30.7949  -10.2345   20.3373 F         1 UNL1        0.0000
     33 H          32.5130   -9.5026   10.8323 H         1 UNL1        0.0000
     34 H          30.1759  -10.1028   10.5268 H         1 UNL1        0.0000
     35 H          29.1769  -11.6058   12.1178 H         1 UNL1        0.0000
     36 H          30.4001  -12.5133   13.9692 H         1 UNL1        0.0000
     37 H          33.0593  -13.6693   15.8448 H         1 UNL1        0.0000
     38 H          31.4360  -13.4142   15.2262 H         1 UNL1        0.0000
     39 H          31.0088  -13.8118   17.6555 H         1 UNL1        0.0000
     40 H          29.3351  -14.5224   21.7809 H         1 UNL1        0.0000
     41 H          29.7340  -13.1838   22.8704 H         1 UNL1        0.0000
     42 H          30.4593  -15.7051   23.3417 H         1 UNL1        0.0000
     43 H          31.3656  -14.3232   23.8946 H         1 UNL1        0.0000
     44 H          33.6285  -14.5776   20.9430 H         1 UNL1        0.0000
     45 H          33.6565  -13.8907   22.5577 H         1 UNL1        0.0000
     46 H          32.6073  -12.7333   20.2900 H         1 UNL1        0.0000
     47 H          32.3798  -12.2224   21.9720 H         1 UNL1        0.0000
     48 H          30.8072  -17.5138   21.5166 H         1 UNL1        0.0000
     49 H          30.6807  -18.4356   24.2125 H         1 UNL1        0.0000
     50 H          31.9268  -17.6783   24.6150 H         1 UNL1        0.0000
     51 H          31.7146  -19.9531   22.4713 H         1 UNL1        0.0000
     52 H          33.1442  -19.4560   22.5726 H         1 UNL1        0.0000
     53 H          32.1448   -9.1824   18.3400 H         1 UNL1        0.0000
     54 H          32.8029  -10.3182   16.3180 H         1 UNL1        0.0000
     55 H          35.6933  -10.6915   13.9280 H         1 UNL1        0.0000
@<TRIPOS>BOND
     1    1   18 1
     2    1   21 1
     3    1   17 am
     4    2   19 1
     5    2   20 1
     6    2   22 am
     7    3    4 1
     8    3   12 2
     9    4    5 am
    10    4   55 1
    11    5   29 2
    12    5    6 1
    13    6    7 ar
    14    6   11 ar
    15    7    8 ar
    16    7   33 1
    17    8   34 1
    18    8    9 ar
    19    9   10 ar
    20    9   35 1
    21   10   11 ar
    22   10   36 1
    23   11   12 1
    24   12   13 1
    25   13   37 1
    26   13   38 1
    27   13   14 1
    28   14   15 ar
    29   14   28 ar
    30   15   39 1
    31   15   16 ar
    32   16   26 ar
    33   16   17 1
    34   17   31 2
    35   18   19 1
    36   18   40 1
    37   18   41 1
    38   19   42 1
    39   19   43 1
    40   20   21 1
    41   20   45 1
    42   20   44 1
    43   21   46 1
    44   21   47 1
    45   22   30 2
    46   22   23 1
    47   23   25 1
    48   23   24 1
    49   23   48 1
    50   24   25 1
    51   24   49 1
    52   24   50 1
    53   25   51 1
    54   25   52 1
    55   26   27 ar
    56   26   32 1
    57   27   28 ar
    58   27   53 1
    59   28   54 1
@<TRIPOS>SUBSTRUCTURE
1 UNL1 1
@<TRIPOS>COMMENT
Olaparib
PLANTSproteinTorsions
70
3 180.6302
48 190.1302
123 124.0195
171 49.8035
348 51.8311
606 79.5155
632 347.4873
655 117.5063
678 174.1752
700 113.9610
773 233.6295
807 215.3552
891 344.2619
933 142.5617
999 96.2988
1020 163.3866
1361 8.7676
1371 288.2198
1544 114.8794
1649 44.7262
1689 151.5656
1736 144.2930
1771 305.7815
2012 233.0642
2070 294.3150
2082 138.6252
2147 74.7488
2300 259.9153
2527 97.5607
2551 69.4669
2605 155.9852
2653 315.1227
2739 245.5215
2807 84.8930
2841 216.7842
2875 119.4714
2885 81.7865
2915 34.8574
3074 37.7547
3130 327.9816
3421 83.1926
3586 10.5532
3784 308.4802
3818 72.5827
3881 224.3586
3933 158.7710
4033 55.8431
4046 11.1449
4094 106.2110
4145 186.8017
4208 87.0401
4235 136.8446
4332 146.6396
4568 357.7563
4685 16.3615
4749 80.9931
4805 34.8494
4858 161.6167
4871 162.9073
4945 214.7451
4999 102.2088
5010 192.4023
5106 210.0413
5130 258.5603
5249 248.2474
5258 275.9084
5318 32.1001
5369 256.7318
5589 14.0729
5645 158.0843
PLANTSmolcadARTstart hb
PLANTSmolcadARTstart HB
LINES
PLANTSmolcadARTstart HBCH
LINES
PLANTSmolcadARTstart HB-CHO
LINES
PLANTSmolcadARTend
PLANTSmolcadARTstart HB_WATER
LINES
PLANTSmolcadARTend

PLANTSmolcadARTend

