@<TRIPOS>MOLECULE
Olaparib_entry_00001_conf_91
55 59 1
SMALL
NO_CHARGES


@<TRIPOS>ATOM
      1 N          17.7491   -9.1139   11.9981 N.am      1 UNL1        0.0000
      2 N          17.4481  -10.0387    9.5892 N.am      1 UNL1        0.0000
      3 N          16.3297   -2.6675   15.3908 N.2       1 UNL1        0.0000
      4 N          15.8300   -1.4558   15.4178 N.am      1 UNL1        0.0000
      5 C          16.5861   -0.3495   15.4536 C.2       1 UNL1        0.0000
      6 C          17.9592   -0.4843   15.4633 C.ar      1 UNL1        0.0000
      7 C          18.7926    0.6335   15.5204 C.ar      1 UNL1        0.0000
      8 C          20.1613    0.4741   15.5506 C.ar      1 UNL1        0.0000
      9 C          20.6410   -0.8183   15.5234 C.ar      1 UNL1        0.0000
     10 C          19.8258   -1.9365   15.4671 C.ar      1 UNL1        0.0000
     11 C          18.4729   -1.7677   15.4350 C.ar      1 UNL1        0.0000
     12 C          17.6811   -2.8839   15.3972 C.2       1 UNL1        0.0000
     13 C          18.1057   -4.2742   15.2978 C.3       1 UNL1        0.0000
     14 C          17.3734   -4.9685   14.2028 C.ar      1 UNL1        0.0000
     15 C          17.5304   -6.3653   14.1599 C.ar      1 UNL1        0.0000
     16 C          16.9017   -7.0939   13.1788 C.ar      1 UNL1        0.0000
     17 C          17.0502   -8.5649   13.1050 C.2       1 UNL1        0.0000
     18 C          17.9169  -10.5275   11.8947 C.3       1 UNL1        0.0000
     19 C          18.0787  -10.9931   10.4636 C.3       1 UNL1        0.0000
     20 C          17.9965   -8.6781    9.5835 C.3       1 UNL1        0.0000
     21 C          18.2812   -8.2164   10.9895 C.3       1 UNL1        0.0000
     22 C          16.3612  -10.3701    8.7750 C.2       1 UNL1        0.0000
     23 C          15.6961  -11.6723    8.6798 C.3       1 UNL1        0.0000
     24 C          16.5702  -12.8400    8.2816 C.3       1 UNL1        0.0000
     25 C          15.5320  -12.3549    7.3695 C.3       1 UNL1        0.0000
     26 C          16.1067   -6.5272   12.2109 C.ar      1 UNL1        0.0000
     27 C          15.9537   -5.1599   12.2539 C.ar      1 UNL1        0.0000
     28 C          16.5946   -4.4133   13.2530 C.ar      1 UNL1        0.0000
     29 O          16.1256    0.8206   15.4786 O.2       1 UNL1        0.0000
     30 O          15.8789   -9.4494    8.0234 O.2       1 UNL1        0.0000
     31 O          16.5827   -9.3283   13.9810 O.2       1 UNL1        0.0000
     32 F          15.5040   -7.2945   11.2566 F         1 UNL1        0.0000
     33 H          18.3839    1.5809   15.5393 H         1 UNL1        0.0000
     34 H          20.7974    1.2846   15.5923 H         1 UNL1        0.0000
     35 H          21.6625   -0.9599   15.5466 H         1 UNL1        0.0000
     36 H          20.2353   -2.8838   15.4493 H         1 UNL1        0.0000
     37 H          17.9065   -4.7705   16.2246 H         1 UNL1        0.0000
     38 H          19.1535   -4.3006   15.0812 H         1 UNL1        0.0000
     39 H          18.1163   -6.8419   14.8628 H         1 UNL1        0.0000
     40 H          17.0573  -11.0060   12.3159 H         1 UNL1        0.0000
     41 H          18.8118  -10.7861   12.4222 H         1 UNL1        0.0000
     42 H          17.6178  -11.9508   10.3431 H         1 UNL1        0.0000
     43 H          19.1187  -11.0735   10.2239 H         1 UNL1        0.0000
     44 H          17.2889   -8.0145    9.1324 H         1 UNL1        0.0000
     45 H          18.9112   -8.6756    9.0282 H         1 UNL1        0.0000
     46 H          17.8417   -7.2505   11.1277 H         1 UNL1        0.0000
     47 H          19.3433   -8.1922   11.1105 H         1 UNL1        0.0000
     48 H          15.0207  -11.4224    9.4709 H         1 UNL1        0.0000
     49 H          16.4551  -13.7856    8.7694 H         1 UNL1        0.0000
     50 H          17.6248  -13.0064    8.2098 H         1 UNL1        0.0000
     51 H          14.6639  -12.9534    7.1875 H         1 UNL1        0.0000
     52 H          15.5266  -12.0267    6.3519 H         1 UNL1        0.0000
     53 H          15.3665   -4.6843   11.5501 H         1 UNL1        0.0000
     54 H          16.4635   -3.3894   13.2623 H         1 UNL1        0.0000
     55 H          14.8506   -1.3535   15.4107 H         1 UNL1        0.0000
@<TRIPOS>BOND
     1    1   18 1
     2    1   21 1
     3    1   17 am
     4    2   19 1
     5    2   20 1
     6    2   22 am
     7    3    4 1
     8    3   12 2
     9    4    5 am
    10    4   55 1
    11    5   29 2
    12    5    6 1
    13    6    7 ar
    14    6   11 ar
    15    7    8 ar
    16    7   33 1
    17    8   34 1
    18    8    9 ar
    19    9   10 ar
    20    9   35 1
    21   10   11 ar
    22   10   36 1
    23   11   12 1
    24   12   13 1
    25   13   37 1
    26   13   38 1
    27   13   14 1
    28   14   15 ar
    29   14   28 ar
    30   15   39 1
    31   15   16 ar
    32   16   26 ar
    33   16   17 1
    34   17   31 2
    35   18   19 1
    36   18   40 1
    37   18   41 1
    38   19   42 1
    39   19   43 1
    40   20   21 1
    41   20   45 1
    42   20   44 1
    43   21   46 1
    44   21   47 1
    45   22   30 2
    46   22   23 1
    47   23   25 1
    48   23   24 1
    49   23   48 1
    50   24   25 1
    51   24   49 1
    52   24   50 1
    53   25   51 1
    54   25   52 1
    55   26   27 ar
    56   26   32 1
    57   27   28 ar
    58   27   53 1
    59   28   54 1
@<TRIPOS>SUBSTRUCTURE
1 UNL1 1
@<TRIPOS>COMMENT
Olaparib
PLANTSproteinTorsions
70
3 20.8751
48 44.1127
123 78.6350
171 91.0159
348 97.0201
606 92.2681
632 233.8637
655 11.1631
678 164.1194
700 238.0859
773 177.4778
807 13.7049
891 179.9493
933 211.5586
999 62.0436
1020 185.6954
1361 98.9440
1371 357.9005
1544 21.6385
1649 60.4923
1689 4.6046
1736 9.6362
1771 86.3443
2012 23.4934
2070 46.4630
2082 147.5605
2147 140.6168
2300 243.1508
2527 176.5523
2551 175.4710
2605 80.0004
2653 85.8460
2739 0.4611
2807 227.0575
2841 23.8406
2875 284.2306
2885 97.2006
2915 239.5334
3074 232.4474
3130 168.9523
3421 5.5059
3586 187.0270
3784 234.7853
3818 54.6481
3881 315.6192
3933 216.3829
4033 89.7919
4046 223.8969
4094 222.4652
4145 52.2931
4208 183.0684
4235 241.6875
4332 110.2490
4568 248.4419
4685 298.5569
4749 344.8866
4805 171.2961
4858 257.5671
4871 104.6730
4945 253.6808
4999 183.2362
5010 137.7772
5106 312.8427
5130 30.9608
5249 208.0461
5258 151.6534
5318 228.3706
5369 48.3422
5589 67.8113
5645 115.5802
PLANTSmolcadARTstart hb
PLANTSmolcadARTstart HB
LINES
16.1256 0.82056 15.4786 14.375 0.66942 14.0987 0 255 0 5
PLANTSmolcadARTstart HBCH
LINES
PLANTSmolcadARTstart HB-CHO
LINES
PLANTSmolcadARTend
PLANTSmolcadARTstart HB_WATER
LINES
PLANTSmolcadARTend

PLANTSmolcadARTend

