@<TRIPOS>MOLECULE
Olaparib_entry_00001_conf_92
55 59 1
SMALL
NO_CHARGES


@<TRIPOS>ATOM
      1 N           9.0115    8.7790    4.4495 N.am      1 UNL1        0.0000
      2 N          10.1444   10.9372    3.5513 N.am      1 UNL1        0.0000
      3 N          11.1106    6.1939    9.0310 N.2       1 UNL1        0.0000
      4 N          12.0247    5.4094    8.5137 N.am      1 UNL1        0.0000
      5 C          12.9845    5.8453    7.6858 C.2       1 UNL1        0.0000
      6 C          13.0188    7.1848    7.3565 C.ar      1 UNL1        0.0000
      7 C          13.9842    7.6878    6.4834 C.ar      1 UNL1        0.0000
      8 C          13.9862    9.0255    6.1519 C.ar      1 UNL1        0.0000
      9 C          13.0045    9.8114    6.7176 C.ar      1 UNL1        0.0000
     10 C          12.0403    9.3257    7.5850 C.ar      1 UNL1        0.0000
     11 C          12.0488    8.0009    7.9086 C.ar      1 UNL1        0.0000
     12 C          11.0780    7.5337    8.7535 C.2       1 UNL1        0.0000
     13 C          10.0523    8.3043    9.4443 C.3       1 UNL1        0.0000
     14 C           8.7647    8.2493    8.6984 C.ar      1 UNL1        0.0000
     15 C           8.8750    8.2790    7.2968 C.ar      1 UNL1        0.0000
     16 C           7.7411    8.2430    6.5211 C.ar      1 UNL1        0.0000
     17 C           7.8243    8.2763    5.0435 C.2       1 UNL1        0.0000
     18 C           9.1307    8.8225    3.0279 C.3       1 UNL1        0.0000
     19 C          10.0823    9.9001    2.5545 C.3       1 UNL1        0.0000
     20 C          10.6630   10.5613    4.8710 C.3       1 UNL1        0.0000
     21 C          10.0851    9.2404    5.3099 C.3       1 UNL1        0.0000
     22 C           9.7340   12.2491    3.2964 C.2       1 UNL1        0.0000
     23 C           9.1846   12.7728    2.0430 C.3       1 UNL1        0.0000
     24 C           7.6892   12.9942    2.0115 C.3       1 UNL1        0.0000
     25 C           8.2936   11.9423    1.1909 C.3       1 UNL1        0.0000
     26 C           6.4714    8.1772    7.0439 C.ar      1 UNL1        0.0000
     27 C           6.3646    8.1482    8.4160 C.ar      1 UNL1        0.0000
     28 C           7.5195    8.1858    9.2105 C.ar      1 UNL1        0.0000
     29 O          13.8703    5.1089    7.1808 O.2       1 UNL1        0.0000
     30 O           9.8410   13.1011    4.2492 O.2       1 UNL1        0.0000
     31 O           6.8883    7.8780    4.3126 O.2       1 UNL1        0.0000
     32 F           5.3758    8.1443    6.2307 F         1 UNL1        0.0000
     33 H          14.6982    7.0576    6.0858 H         1 UNL1        0.0000
     34 H          14.6895    9.4205    5.5095 H         1 UNL1        0.0000
     35 H          12.9872   10.8154    6.4816 H         1 UNL1        0.0000
     36 H          11.3258    9.9564    7.9814 H         1 UNL1        0.0000
     37 H          10.3703    9.3229    9.5233 H         1 UNL1        0.0000
     38 H           9.9036    7.8862   10.4182 H         1 UNL1        0.0000
     39 H           9.8047    8.3280    6.8520 H         1 UNL1        0.0000
     40 H           8.1640    9.0104    2.6088 H         1 UNL1        0.0000
     41 H           9.5243    7.8798    2.7077 H         1 UNL1        0.0000
     42 H           9.7307   10.3093    1.6308 H         1 UNL1        0.0000
     43 H          11.0562    9.4829    2.4033 H         1 UNL1        0.0000
     44 H          10.3969   11.3148    5.5823 H         1 UNL1        0.0000
     45 H          11.7273   10.4689    4.8116 H         1 UNL1        0.0000
     46 H           9.7023    9.3481    6.3035 H         1 UNL1        0.0000
     47 H          10.8690    8.5150    5.2610 H         1 UNL1        0.0000
     48 H          10.0728   13.3371    1.8507 H         1 UNL1        0.0000
     49 H           7.2877   13.8709    1.5474 H         1 UNL1        0.0000
     50 H           6.9134   13.0296    2.7476 H         1 UNL1        0.0000
     51 H           8.3237   12.0510    0.1268 H         1 UNL1        0.0000
     52 H           8.1285   10.8912    1.0849 H         1 UNL1        0.0000
     53 H           5.4336    8.0985    8.8599 H         1 UNL1        0.0000
     54 H           7.4113    8.1633   10.2369 H         1 UNL1        0.0000
     55 H          12.0054    4.4524    8.7454 H         1 UNL1        0.0000
@<TRIPOS>BOND
     1    1   18 1
     2    1   21 1
     3    1   17 am
     4    2   19 1
     5    2   20 1
     6    2   22 am
     7    3    4 1
     8    3   12 2
     9    4    5 am
    10    4   55 1
    11    5   29 2
    12    5    6 1
    13    6    7 ar
    14    6   11 ar
    15    7    8 ar
    16    7   33 1
    17    8   34 1
    18    8    9 ar
    19    9   10 ar
    20    9   35 1
    21   10   11 ar
    22   10   36 1
    23   11   12 1
    24   12   13 1
    25   13   37 1
    26   13   38 1
    27   13   14 1
    28   14   15 ar
    29   14   28 ar
    30   15   39 1
    31   15   16 ar
    32   16   26 ar
    33   16   17 1
    34   17   31 2
    35   18   19 1
    36   18   40 1
    37   18   41 1
    38   19   42 1
    39   19   43 1
    40   20   21 1
    41   20   45 1
    42   20   44 1
    43   21   46 1
    44   21   47 1
    45   22   30 2
    46   22   23 1
    47   23   25 1
    48   23   24 1
    49   23   48 1
    50   24   25 1
    51   24   49 1
    52   24   50 1
    53   25   51 1
    54   25   52 1
    55   26   27 ar
    56   26   32 1
    57   27   28 ar
    58   27   53 1
    59   28   54 1
@<TRIPOS>SUBSTRUCTURE
1 UNL1 1
@<TRIPOS>COMMENT
Olaparib
PLANTSproteinTorsions
70
3 76.1321
48 277.1920
123 6.8959
171 67.9958
348 164.0030
606 241.7713
632 72.9468
655 39.6407
678 308.9562
700 155.9418
773 65.3831
807 228.9052
891 306.9147
933 151.0767
999 196.8474
1020 233.8666
1361 260.9356
1371 240.1780
1544 335.6424
1649 73.4841
1689 304.8573
1736 345.7011
1771 109.1461
2012 277.5122
2070 30.8497
2082 188.7092
2147 58.4313
2300 334.8619
2527 94.1620
2551 321.5375
2605 225.2722
2653 78.2175
2739 16.0377
2807 180.6821
2841 133.4083
2875 264.8428
2885 120.7285
2915 256.4183
3074 87.2335
3130 129.3112
3421 89.7015
3586 64.9546
3784 118.8006
3818 308.3327
3881 79.4818
3933 40.1031
4033 30.4783
4046 157.3863
4094 308.8747
4145 289.1929
4208 35.2573
4235 32.3549
4332 146.0509
4568 139.4919
4685 204.4304
4749 327.0362
4805 31.7712
4858 15.6532
4871 247.1092
4945 206.6290
4999 277.2348
5010 86.3687
5106 140.2370
5130 211.4839
5249 209.1330
5258 282.9293
5318 95.4641
5369 176.8578
5589 251.8019
5645 172.2011
PLANTSmolcadARTstart hb
PLANTSmolcadARTstart HB
LINES
11.1106 6.1939 9.03099 10.371 4.942 10.541 0 255 0 5
13.8703 5.10891 7.18079 15.126 5.6 7.995 0 255 0 5
PLANTSmolcadARTstart HBCH
LINES
PLANTSmolcadARTstart HB-CHO
LINES
PLANTSmolcadARTend
PLANTSmolcadARTstart HB_WATER
LINES
PLANTSmolcadARTend

PLANTSmolcadARTend

