@<TRIPOS>MOLECULE
Olaparib_entry_00001_conf_66
55 59 1
SMALL
NO_CHARGES


@<TRIPOS>ATOM
      1 N          15.9814   -9.3160   10.0657 N.am      1 UNL1        0.0000
      2 N          16.5105   -7.0039   11.1253 N.am      1 UNL1        0.0000
      3 N          17.3011  -16.8286   10.4621 N.2       1 UNL1        0.0000
      4 N          16.5444  -17.8548   10.7670 N.am      1 UNL1        0.0000
      5 C          15.3363  -18.0640   10.2252 C.2       1 UNL1        0.0000
      6 C          14.8581  -17.1588    9.3002 C.ar      1 UNL1        0.0000
      7 C          13.5988  -17.3180    8.7206 C.ar      1 UNL1        0.0000
      8 C          13.1327  -16.3897    7.8148 C.ar      1 UNL1        0.0000
      9 C          13.9616  -15.3260    7.5270 C.ar      1 UNL1        0.0000
     10 C          15.2131  -15.1553    8.0949 C.ar      1 UNL1        0.0000
     11 C          15.6659  -16.0810    8.9881 C.ar      1 UNL1        0.0000
     12 C          16.8979  -15.8880    9.5533 C.2       1 UNL1        0.0000
     13 C          17.8595  -14.8346    9.2552 C.3       1 UNL1        0.0000
     14 C          17.7125  -13.7047   10.2139 C.ar      1 UNL1        0.0000
     15 C          16.7428  -12.7446    9.8742 C.ar      1 UNL1        0.0000
     16 C          16.5406  -11.6586   10.6918 C.ar      1 UNL1        0.0000
     17 C          15.5299  -10.6292   10.3598 C.2       1 UNL1        0.0000
     18 C          15.0371   -8.2977    9.7364 C.3       1 UNL1        0.0000
     19 C          15.5371   -6.9082   10.0687 C.3       1 UNL1        0.0000
     20 C          17.7333   -7.7610   10.8367 C.3       1 UNL1        0.0000
     21 C          17.4051   -9.0382   10.1070 C.3       1 UNL1        0.0000
     22 C          16.3203   -6.4117   12.3773 C.2       1 UNL1        0.0000
     23 C          15.1550   -5.6413   12.8198 C.3       1 UNL1        0.0000
     24 C          15.3281   -4.1401   12.8704 C.3       1 UNL1        0.0000
     25 C          15.1695   -4.9035   14.1102 C.3       1 UNL1        0.0000
     26 C          17.2457  -11.4469   11.8528 C.ar      1 UNL1        0.0000
     27 C          18.1948  -12.3873   12.1842 C.ar      1 UNL1        0.0000
     28 C          18.4043  -13.4961   11.3517 C.ar      1 UNL1        0.0000
     29 O          14.5967  -19.0424   10.5039 O.2       1 UNL1        0.0000
     30 O          17.2539   -6.5461   13.2465 O.2       1 UNL1        0.0000
     31 O          14.3034  -10.8819   10.3313 O.2       1 UNL1        0.0000
     32 F          17.0082  -10.3512   12.6311 F         1 UNL1        0.0000
     33 H          13.0157  -18.1322    8.9698 H         1 UNL1        0.0000
     34 H          12.2060  -16.4860    7.3729 H         1 UNL1        0.0000
     35 H          13.6313  -14.6189    6.8525 H         1 UNL1        0.0000
     36 H          15.7952  -14.3401    7.8460 H         1 UNL1        0.0000
     37 H          17.6927  -14.4766    8.2607 H         1 UNL1        0.0000
     38 H          18.8482  -15.2344    9.3440 H         1 UNL1        0.0000
     39 H          16.1848  -12.8549    9.0134 H         1 UNL1        0.0000
     40 H          14.1350   -8.4774   10.2834 H         1 UNL1        0.0000
     41 H          14.8735   -8.3384    8.6792 H         1 UNL1        0.0000
     42 H          14.7182   -6.2985   10.3880 H         1 UNL1        0.0000
     43 H          15.9840   -6.4668    9.2021 H         1 UNL1        0.0000
     44 H          18.2264   -7.9985   11.7560 H         1 UNL1        0.0000
     45 H          18.3718   -7.1653   10.2184 H         1 UNL1        0.0000
     46 H          17.8959   -9.8502   10.6018 H         1 UNL1        0.0000
     47 H          17.7390   -8.9259    9.0975 H         1 UNL1        0.0000
     48 H          14.4806   -6.3462   12.3809 H         1 UNL1        0.0000
     49 H          14.5410   -3.4989   12.5320 H         1 UNL1        0.0000
     50 H          16.0524   -3.4484   12.4935 H         1 UNL1        0.0000
     51 H          14.2678   -4.8103   14.6789 H         1 UNL1        0.0000
     52 H          15.7369   -4.9877   15.0125 H         1 UNL1        0.0000
     53 H          18.7520  -12.2760   13.0463 H         1 UNL1        0.0000
     54 H          19.1224  -14.1862   11.6233 H         1 UNL1        0.0000
     55 H          16.8806  -18.5044   11.4264 H         1 UNL1        0.0000
@<TRIPOS>BOND
     1    1   18 1
     2    1   21 1
     3    1   17 am
     4    2   19 1
     5    2   20 1
     6    2   22 am
     7    3    4 1
     8    3   12 2
     9    4    5 am
    10    4   55 1
    11    5   29 2
    12    5    6 1
    13    6    7 ar
    14    6   11 ar
    15    7    8 ar
    16    7   33 1
    17    8   34 1
    18    8    9 ar
    19    9   10 ar
    20    9   35 1
    21   10   11 ar
    22   10   36 1
    23   11   12 1
    24   12   13 1
    25   13   37 1
    26   13   38 1
    27   13   14 1
    28   14   15 ar
    29   14   28 ar
    30   15   39 1
    31   15   16 ar
    32   16   26 ar
    33   16   17 1
    34   17   31 2
    35   18   19 1
    36   18   40 1
    37   18   41 1
    38   19   42 1
    39   19   43 1
    40   20   21 1
    41   20   45 1
    42   20   44 1
    43   21   46 1
    44   21   47 1
    45   22   30 2
    46   22   23 1
    47   23   25 1
    48   23   24 1
    49   23   48 1
    50   24   25 1
    51   24   49 1
    52   24   50 1
    53   25   51 1
    54   25   52 1
    55   26   27 ar
    56   26   32 1
    57   27   28 ar
    58   27   53 1
    59   28   54 1
@<TRIPOS>SUBSTRUCTURE
1 UNL1 1
@<TRIPOS>COMMENT
Olaparib
PLANTSproteinTorsions
70
3 351.7052
48 13.5040
123 346.3760
171 114.5456
348 89.4364
606 118.1908
632 267.0906
655 63.7744
678 67.1870
700 240.3048
773 14.9295
807 120.0204
891 196.8893
933 169.7757
999 212.0509
1020 69.7507
1361 152.1487
1371 11.1669
1544 58.6145
1649 156.6174
1689 120.3037
1736 200.8163
1771 103.7248
2012 217.8615
2070 90.2506
2082 53.2359
2147 9.1986
2300 54.0051
2527 275.0351
2551 134.1544
2605 23.9482
2653 135.8424
2739 104.0501
2807 263.4322
2841 302.1328
2875 196.5932
2885 158.0045
2915 107.9839
3074 185.8601
3130 33.0094
3421 75.9192
3586 324.8095
3784 242.0370
3818 103.6655
3881 62.5332
3933 169.4098
4033 174.8300
4046 94.9940
4094 106.5167
4145 261.4466
4208 185.8517
4235 102.2421
4332 230.5782
4568 260.8003
4685 193.7677
4749 17.8988
4805 136.8552
4858 77.0105
4871 123.7409
4945 216.8217
4999 253.9244
5010 165.1425
5106 129.7930
5130 247.0576
5249 253.3045
5258 225.1830
5318 228.4514
5369 287.3293
5589 91.2248
5645 211.9271
PLANTSmolcadARTstart hb
PLANTSmolcadARTstart HB
LINES
14.3034 -10.8819 10.3313 13.06 -9.621 11.732 0 255 0 5
PLANTSmolcadARTstart HBCH
LINES
PLANTSmolcadARTstart HB-CHO
LINES
PLANTSmolcadARTend
PLANTSmolcadARTstart HB_WATER
LINES
PLANTSmolcadARTend

PLANTSmolcadARTend

