@<TRIPOS>MOLECULE
Olaparib_entry_00001_conf_99
55 59 1
SMALL
NO_CHARGES


@<TRIPOS>ATOM
      1 N          16.1548   -4.2914   14.9092 N.am      1 UNL1        0.0000
      2 N          18.2643   -2.9040   15.5206 N.am      1 UNL1        0.0000
      3 N          15.6852  -10.4016   10.8061 N.2       1 UNL1        0.0000
      4 N          14.8251  -11.3419   10.4983 N.am      1 UNL1        0.0000
      5 C          14.7061  -12.4841   11.1897 C.2       1 UNL1        0.0000
      6 C          15.5259  -12.6880   12.2806 C.ar      1 UNL1        0.0000
      7 C          15.4574  -13.8674   13.0231 C.ar      1 UNL1        0.0000
      8 C          16.3011  -14.0585   14.0961 C.ar      1 UNL1        0.0000
      9 C          17.1906  -13.0440   14.3805 C.ar      1 UNL1        0.0000
     10 C          17.2698  -11.8688   13.6521 C.ar      1 UNL1        0.0000
     11 C          16.4286  -11.6886   12.5939 C.ar      1 UNL1        0.0000
     12 C          16.5320  -10.5287   11.8738 C.2       1 UNL1        0.0000
     13 C          17.3919   -9.3846   12.1467 C.3       1 UNL1        0.0000
     14 C          16.5996   -8.1238   12.1536 C.ar      1 UNL1        0.0000
     15 C          16.4977   -7.4794   13.3994 C.ar      1 UNL1        0.0000
     16 C          15.7779   -6.3138   13.5091 C.ar      1 UNL1        0.0000
     17 C          15.6492   -5.6139   14.8071 C.2       1 UNL1        0.0000
     18 C          16.0448   -3.5825   16.1430 C.3       1 UNL1        0.0000
     19 C          17.1193   -2.5296   16.3093 C.3       1 UNL1        0.0000
     20 C          18.0728   -2.9890   14.0687 C.3       1 UNL1        0.0000
     21 C          16.7765   -3.6866   13.7458 C.3       1 UNL1        0.0000
     22 C          19.5107   -3.1798   16.0903 C.2       1 UNL1        0.0000
     23 C          19.8542   -3.1522   17.5145 C.3       1 UNL1        0.0000
     24 C          19.2747   -2.0102   18.3183 C.3       1 UNL1        0.0000
     25 C          20.7171   -2.0789   18.0739 C.3       1 UNL1        0.0000
     26 C          15.1344   -5.7221   12.4481 C.ar      1 UNL1        0.0000
     27 C          15.2348   -6.3538   11.2292 C.ar      1 UNL1        0.0000
     28 C          15.9676   -7.5437   11.1139 C.ar      1 UNL1        0.0000
     29 O          13.8868  -13.3967   10.9110 O.2       1 UNL1        0.0000
     30 O          20.4699   -3.4934   15.2986 O.2       1 UNL1        0.0000
     31 O          15.1134   -6.1494   15.8046 O.2       1 UNL1        0.0000
     32 F          14.4309   -4.5636   12.6085 F         1 UNL1        0.0000
     33 H          14.7737  -14.5976   12.7692 H         1 UNL1        0.0000
     34 H          16.2689  -14.9211   14.6600 H         1 UNL1        0.0000
     35 H          17.8321  -13.1674   15.1788 H         1 UNL1        0.0000
     36 H          17.9546  -11.1395   13.9060 H         1 UNL1        0.0000
     37 H          18.1461   -9.3223   11.3902 H         1 UNL1        0.0000
     38 H          17.8422   -9.5128   13.1091 H         1 UNL1        0.0000
     39 H          16.9618   -7.8807   14.2289 H         1 UNL1        0.0000
     40 H          16.1234   -4.2829   16.9485 H         1 UNL1        0.0000
     41 H          15.0984   -3.0821   16.1450 H         1 UNL1        0.0000
     42 H          17.3989   -2.4612   17.3396 H         1 UNL1        0.0000
     43 H          16.7493   -1.5795   15.9841 H         1 UNL1        0.0000
     44 H          18.8838   -3.5376   13.6375 H         1 UNL1        0.0000
     45 H          18.0410   -1.9986   13.6649 H         1 UNL1        0.0000
     46 H          16.9716   -4.4545   13.0265 H         1 UNL1        0.0000
     47 H          16.1006   -2.9491   13.3684 H         1 UNL1        0.0000
     48 H          19.8815   -4.2206   17.5627 H         1 UNL1        0.0000
     49 H          18.8890   -2.1886   19.3005 H         1 UNL1        0.0000
     50 H          18.5118   -1.2784   18.1526 H         1 UNL1        0.0000
     51 H          21.3823   -2.2995   18.8826 H         1 UNL1        0.0000
     52 H          21.4364   -1.4059   17.6579 H         1 UNL1        0.0000
     53 H          14.7703   -5.9507   10.3997 H         1 UNL1        0.0000
     54 H          16.0267   -7.9973   10.1885 H         1 UNL1        0.0000
     55 H          14.2371  -11.2018    9.7209 H         1 UNL1        0.0000
@<TRIPOS>BOND
     1    1   18 1
     2    1   21 1
     3    1   17 am
     4    2   19 1
     5    2   20 1
     6    2   22 am
     7    3    4 1
     8    3   12 2
     9    4    5 am
    10    4   55 1
    11    5   29 2
    12    5    6 1
    13    6    7 ar
    14    6   11 ar
    15    7    8 ar
    16    7   33 1
    17    8   34 1
    18    8    9 ar
    19    9   10 ar
    20    9   35 1
    21   10   11 ar
    22   10   36 1
    23   11   12 1
    24   12   13 1
    25   13   37 1
    26   13   38 1
    27   13   14 1
    28   14   15 ar
    29   14   28 ar
    30   15   39 1
    31   15   16 ar
    32   16   26 ar
    33   16   17 1
    34   17   31 2
    35   18   19 1
    36   18   40 1
    37   18   41 1
    38   19   42 1
    39   19   43 1
    40   20   21 1
    41   20   45 1
    42   20   44 1
    43   21   46 1
    44   21   47 1
    45   22   30 2
    46   22   23 1
    47   23   25 1
    48   23   24 1
    49   23   48 1
    50   24   25 1
    51   24   49 1
    52   24   50 1
    53   25   51 1
    54   25   52 1
    55   26   27 ar
    56   26   32 1
    57   27   28 ar
    58   27   53 1
    59   28   54 1
@<TRIPOS>SUBSTRUCTURE
1 UNL1 1
@<TRIPOS>COMMENT
Olaparib
PLANTSproteinTorsions
70
3 317.7457
48 238.5133
123 277.9141
171 22.2047
348 233.8255
606 277.2004
632 271.2472
655 331.6861
678 153.3486
700 231.7407
773 27.7310
807 110.7204
891 197.0761
933 220.1680
999 64.1094
1020 210.8275
1361 230.4170
1371 92.5692
1544 155.3419
1649 351.6774
1689 81.0616
1736 89.6994
1771 107.2327
2012 67.2616
2070 16.6102
2082 137.1856
2147 23.2657
2300 39.6043
2527 77.2905
2551 76.3221
2605 67.8011
2653 31.7370
2739 332.6096
2807 90.5588
2841 257.6074
2875 240.6392
2885 233.1341
2915 251.8764
3074 178.4789
3130 148.6529
3421 3.2219
3586 106.6416
3784 196.3733
3818 69.4289
3881 299.0743
3933 95.6974
4033 107.9628
4046 141.0059
4094 81.3412
4145 187.3687
4208 252.1592
4235 231.4528
4332 20.2360
4568 91.1402
4685 271.6279
4749 237.6800
4805 115.0478
4858 95.3720
4871 266.8975
4945 226.6968
4999 207.8903
5010 219.8243
5106 129.2607
5130 111.3206
5249 111.8616
5258 325.4138
5318 119.9904
5369 109.2717
5589 81.0467
5645 193.1197
PLANTSmolcadARTstart hb
PLANTSmolcadARTstart HB
LINES
15.1134 -6.14938 15.8046 14.939 -7.462 16.94 0 255 0 5
PLANTSmolcadARTstart HBCH
LINES
PLANTSmolcadARTstart HB-CHO
LINES
PLANTSmolcadARTend
PLANTSmolcadARTstart HB_WATER
LINES
PLANTSmolcadARTend

PLANTSmolcadARTend

