@<TRIPOS>MOLECULE
Olaparib_entry_00001_conf_14
55 59 1
SMALL
NO_CHARGES


@<TRIPOS>ATOM
      1 N          11.2713   12.1125   -0.0888 N.am      1 UNL1        0.0000
      2 N          13.1960   11.4366   -1.6973 N.am      1 UNL1        0.0000
      3 N          10.9446   10.0224    7.3285 N.2       1 UNL1        0.0000
      4 N          10.4985    9.3298    8.3482 N.am      1 UNL1        0.0000
      5 C          10.9426    8.1025    8.6539 C.2       1 UNL1        0.0000
      6 C          11.9172    7.5328    7.8606 C.ar      1 UNL1        0.0000
      7 C          12.4005    6.2502    8.1221 C.ar      1 UNL1        0.0000
      8 C          13.3589    5.6927    7.3035 C.ar      1 UNL1        0.0000
      9 C          13.7959    6.4567    6.2421 C.ar      1 UNL1        0.0000
     10 C          13.3250    7.7304    5.9706 C.ar      1 UNL1        0.0000
     11 C          12.3785    8.2739    6.7883 C.ar      1 UNL1        0.0000
     12 C          11.9110    9.5270    6.4955 C.2       1 UNL1        0.0000
     13 C          12.3655   10.4232    5.4404 C.3       1 UNL1        0.0000
     14 C          11.3672   10.4820    4.3371 C.ar      1 UNL1        0.0000
     15 C          11.6223   11.4403    3.3400 C.ar      1 UNL1        0.0000
     16 C          10.7519   11.5776    2.2854 C.ar      1 UNL1        0.0000
     17 C          10.9910   12.5794    1.2221 C.2       1 UNL1        0.0000
     18 C          11.5026   13.0482   -1.1414 C.3       1 UNL1        0.0000
     19 C          12.3725   12.4836   -2.2439 C.3       1 UNL1        0.0000
     20 C          12.5052   10.2621   -1.1541 C.3       1 UNL1        0.0000
     21 C          11.3159   10.6821   -0.3292 C.3       1 UNL1        0.0000
     22 C          14.5916   11.5143   -1.6734 C.2       1 UNL1        0.0000
     23 C          15.4211   12.6195   -2.1608 C.3       1 UNL1        0.0000
     24 C          16.0752   12.4182   -3.5090 C.3       1 UNL1        0.0000
     25 C          16.8939   12.4703   -2.2957 C.3       1 UNL1        0.0000
     26 C           9.6171   10.8153    2.1398 C.ar      1 UNL1        0.0000
     27 C           9.3684    9.8776    3.1164 C.ar      1 UNL1        0.0000
     28 C          10.2539    9.7356    4.1945 C.ar      1 UNL1        0.0000
     29 O          10.5282    7.4234    9.6280 O.2       1 UNL1        0.0000
     30 O          15.2337   10.5223   -1.1747 O.2       1 UNL1        0.0000
     31 O          10.9530   13.8115    1.4444 O.2       1 UNL1        0.0000
     32 F           8.7832   10.9904    1.0737 F         1 UNL1        0.0000
     33 H          12.0404    5.7183    8.9299 H         1 UNL1        0.0000
     34 H          13.7317    4.7470    7.4767 H         1 UNL1        0.0000
     35 H          14.5122    6.0576    5.6162 H         1 UNL1        0.0000
     36 H          13.6847    8.2613    5.1618 H         1 UNL1        0.0000
     37 H          13.2976   10.0675    5.0533 H         1 UNL1        0.0000
     38 H          12.4846   11.4051    5.8489 H         1 UNL1        0.0000
     39 H          12.4604   12.0391    3.4003 H         1 UNL1        0.0000
     40 H          11.9850   13.9116   -0.7322 H         1 UNL1        0.0000
     41 H          10.5530   13.2922   -1.5713 H         1 UNL1        0.0000
     42 H          12.9929   13.2576   -2.6440 H         1 UNL1        0.0000
     43 H          11.7567   12.0904   -3.0260 H         1 UNL1        0.0000
     44 H          13.1822    9.7084   -0.5379 H         1 UNL1        0.0000
     45 H          12.1640    9.6545   -1.9661 H         1 UNL1        0.0000
     46 H          11.3601   10.1797    0.6147 H         1 UNL1        0.0000
     47 H          10.4363   10.4220   -0.8786 H         1 UNL1        0.0000
     48 H          14.7938   13.3439   -1.6854 H         1 UNL1        0.0000
     49 H          16.1093   13.2235   -4.2130 H         1 UNL1        0.0000
     50 H          15.9545   11.7220   -4.3126 H         1 UNL1        0.0000
     51 H          17.5312   13.3121   -2.1216 H         1 UNL1        0.0000
     52 H          17.6221   11.8209   -1.8584 H         1 UNL1        0.0000
     53 H           8.5296    9.2786    3.0546 H         1 UNL1        0.0000
     54 H          10.0437    9.0251    4.9132 H         1 UNL1        0.0000
     55 H           9.8031    9.7314    8.9182 H         1 UNL1        0.0000
@<TRIPOS>BOND
     1    1   18 1
     2    1   21 1
     3    1   17 am
     4    2   19 1
     5    2   20 1
     6    2   22 am
     7    3    4 1
     8    3   12 2
     9    4    5 am
    10    4   55 1
    11    5   29 2
    12    5    6 1
    13    6    7 ar
    14    6   11 ar
    15    7    8 ar
    16    7   33 1
    17    8   34 1
    18    8    9 ar
    19    9   10 ar
    20    9   35 1
    21   10   11 ar
    22   10   36 1
    23   11   12 1
    24   12   13 1
    25   13   37 1
    26   13   38 1
    27   13   14 1
    28   14   15 ar
    29   14   28 ar
    30   15   39 1
    31   15   16 ar
    32   16   26 ar
    33   16   17 1
    34   17   31 2
    35   18   19 1
    36   18   40 1
    37   18   41 1
    38   19   42 1
    39   19   43 1
    40   20   21 1
    41   20   45 1
    42   20   44 1
    43   21   46 1
    44   21   47 1
    45   22   30 2
    46   22   23 1
    47   23   25 1
    48   23   24 1
    49   23   48 1
    50   24   25 1
    51   24   49 1
    52   24   50 1
    53   25   51 1
    54   25   52 1
    55   26   27 ar
    56   26   32 1
    57   27   28 ar
    58   27   53 1
    59   28   54 1
@<TRIPOS>SUBSTRUCTURE
1 UNL1 1
@<TRIPOS>COMMENT
Olaparib
PLANTSproteinTorsions
70
3 215.7224
48 225.9823
123 88.3676
171 144.1376
348 303.5779
606 247.0382
632 342.3416
655 33.9812
678 160.0548
700 356.9481
773 258.3288
807 59.2040
891 24.4835
933 232.4005
999 153.4681
1020 106.5599
1361 8.6317
1371 183.4108
1544 336.7610
1649 306.3620
1689 186.3512
1736 31.1856
1771 225.5741
2012 264.1549
2070 322.3787
2082 245.3044
2147 206.0234
2300 38.1931
2527 48.5463
2551 56.2605
2605 84.2479
2653 61.8249
2739 86.5111
2807 214.2408
2841 85.5399
2875 110.3998
2885 186.0761
2915 242.0733
3074 85.7378
3130 96.8960
3421 282.3484
3586 217.1046
3784 211.4178
3818 70.4195
3881 36.6259
3933 225.3971
4033 234.3467
4046 79.7886
4094 57.1850
4145 66.8037
4208 164.3036
4235 128.5887
4332 127.7864
4568 351.2333
4685 149.0046
4749 15.5230
4805 38.8711
4858 269.2131
4871 203.0725
4945 195.4805
4999 155.0255
5010 328.1818
5106 105.3102
5130 106.8349
5249 19.7095
5258 92.0680
5318 65.3610
5369 86.3494
5589 212.6579
5645 116.3657
PLANTSmolcadARTstart hb
PLANTSmolcadARTstart HB
LINES
PLANTSmolcadARTstart HBCH
LINES
PLANTSmolcadARTstart HB-CHO
LINES
PLANTSmolcadARTend
PLANTSmolcadARTstart HB_WATER
LINES
PLANTSmolcadARTend

PLANTSmolcadARTend

