@<TRIPOS>MOLECULE
Olaparib_entry_00001_conf_56
55 59 1
SMALL
NO_CHARGES


@<TRIPOS>ATOM
      1 N          24.3361    6.6170    0.8035 N.am      1 UNL1        0.0000
      2 N          22.6162    7.1918    2.6637 N.am      1 UNL1        0.0000
      3 N          30.0331   10.4572    2.3211 N.2       1 UNL1        0.0000
      4 N          31.0878   10.8957    2.9646 N.am      1 UNL1        0.0000
      5 C          32.3398   10.5220    2.6648 C.2       1 UNL1        0.0000
      6 C          32.5365    9.6316    1.6293 C.ar      1 UNL1        0.0000
      7 C          33.8170    9.1942    1.2886 C.ar      1 UNL1        0.0000
      8 C          33.9879    8.2880    0.2643 C.ar      1 UNL1        0.0000
      9 C          32.8501    7.8527   -0.3817 C.ar      1 UNL1        0.0000
     10 C          31.5736    8.2780   -0.0540 C.ar      1 UNL1        0.0000
     11 C          31.4157    9.1768    0.9594 C.ar      1 UNL1        0.0000
     12 C          30.1457    9.5734    1.2822 C.2       1 UNL1        0.0000
     13 C          28.9032    9.2166    0.6098 C.3       1 UNL1        0.0000
     14 C          28.5341    7.8048    0.9061 C.ar      1 UNL1        0.0000
     15 C          27.2197    7.4383    0.5659 C.ar      1 UNL1        0.0000
     16 C          26.7820    6.1587    0.8105 C.ar      1 UNL1        0.0000
     17 C          25.4032    5.7435    0.4669 C.2       1 UNL1        0.0000
     18 C          22.9934    6.2534    0.4840 C.3       1 UNL1        0.0000
     19 C          21.9795    6.8945    1.4070 C.3       1 UNL1        0.0000
     20 C          23.7267    8.1500    2.6365 C.3       1 UNL1        0.0000
     21 C          24.6389    7.8699    1.4701 C.3       1 UNL1        0.0000
     22 C          22.2128    6.6056    3.8669 C.2       1 UNL1        0.0000
     23 C          21.1381    5.6272    4.0538 C.3       1 UNL1        0.0000
     24 C          21.1127    4.9105    5.3848 C.3       1 UNL1        0.0000
     25 C          21.4344    4.1745    4.1601 C.3       1 UNL1        0.0000
     26 C          27.5703    5.1882    1.3818 C.ar      1 UNL1        0.0000
     27 C          28.8567    5.5481    1.7145 C.ar      1 UNL1        0.0000
     28 C          29.3063    6.8531    1.4673 C.ar      1 UNL1        0.0000
     29 O          33.3635   10.9323    3.2692 O.2       1 UNL1        0.0000
     30 O          22.8384    6.9467    4.9335 O.2       1 UNL1        0.0000
     31 O          25.1557    4.6573   -0.1055 O.2       1 UNL1        0.0000
     32 F          27.0885    3.9309    1.6052 F         1 UNL1        0.0000
     33 H          34.6375    9.5500    1.8036 H         1 UNL1        0.0000
     34 H          34.9240    7.9505   -0.0061 H         1 UNL1        0.0000
     35 H          32.9557    7.1732   -1.1506 H         1 UNL1        0.0000
     36 H          30.7534    7.9207   -0.5688 H         1 UNL1        0.0000
     37 H          29.0281    9.3337   -0.4465 H         1 UNL1        0.0000
     38 H          28.1227    9.8575    0.9638 H         1 UNL1        0.0000
     39 H          26.5856    8.1283    0.1340 H         1 UNL1        0.0000
     40 H          22.8999    5.1898    0.5578 H         1 UNL1        0.0000
     41 H          22.7921    6.6003   -0.5086 H         1 UNL1        0.0000
     42 H          21.1636    6.2216    1.5673 H         1 UNL1        0.0000
     43 H          21.6072    7.7960    0.9663 H         1 UNL1        0.0000
     44 H          24.2844    8.0693    3.5459 H         1 UNL1        0.0000
     45 H          23.3292    9.1381    2.5335 H         1 UNL1        0.0000
     46 H          25.6472    7.8305    1.8265 H         1 UNL1        0.0000
     47 H          24.4982    8.6542    0.7571 H         1 UNL1        0.0000
     48 H          20.4661    6.2006    3.4503 H         1 UNL1        0.0000
     49 H          20.1811    4.7396    5.8831 H         1 UNL1        0.0000
     50 H          21.5915    5.0536    6.3310 H         1 UNL1        0.0000
     51 H          20.7382    3.4606    3.7719 H         1 UNL1        0.0000
     52 H          22.2500    3.5542    3.8547 H         1 UNL1        0.0000
     53 H          29.4904    4.8564    2.1461 H         1 UNL1        0.0000
     54 H          30.2752    7.0969    1.7267 H         1 UNL1        0.0000
     55 H          30.9535   11.5316    3.7044 H         1 UNL1        0.0000
@<TRIPOS>BOND
     1    1   18 1
     2    1   21 1
     3    1   17 am
     4    2   19 1
     5    2   20 1
     6    2   22 am
     7    3    4 1
     8    3   12 2
     9    4    5 am
    10    4   55 1
    11    5   29 2
    12    5    6 1
    13    6    7 ar
    14    6   11 ar
    15    7    8 ar
    16    7   33 1
    17    8   34 1
    18    8    9 ar
    19    9   10 ar
    20    9   35 1
    21   10   11 ar
    22   10   36 1
    23   11   12 1
    24   12   13 1
    25   13   37 1
    26   13   38 1
    27   13   14 1
    28   14   15 ar
    29   14   28 ar
    30   15   39 1
    31   15   16 ar
    32   16   26 ar
    33   16   17 1
    34   17   31 2
    35   18   19 1
    36   18   40 1
    37   18   41 1
    38   19   42 1
    39   19   43 1
    40   20   21 1
    41   20   45 1
    42   20   44 1
    43   21   46 1
    44   21   47 1
    45   22   30 2
    46   22   23 1
    47   23   25 1
    48   23   24 1
    49   23   48 1
    50   24   25 1
    51   24   49 1
    52   24   50 1
    53   25   51 1
    54   25   52 1
    55   26   27 ar
    56   26   32 1
    57   27   28 ar
    58   27   53 1
    59   28   54 1
@<TRIPOS>SUBSTRUCTURE
1 UNL1 1
@<TRIPOS>COMMENT
Olaparib
PLANTSproteinTorsions
70
3 212.9695
48 260.6024
123 107.4665
171 17.8986
348 272.1422
606 81.8599
632 31.8862
655 129.0267
678 7.1721
700 32.9409
773 145.0305
807 201.6585
891 106.2768
933 156.5394
999 321.2728
1020 142.3830
1361 84.6425
1371 196.2945
1544 41.5421
1649 173.0267
1689 215.6331
1736 315.7736
1771 148.2383
2012 70.6224
2070 25.1241
2082 203.4843
2147 230.8988
2300 10.2804
2527 257.6049
2551 20.0957
2605 124.7567
2653 262.7215
2739 188.4380
2807 181.1314
2841 17.6928
2875 118.7534
2885 219.9762
2915 30.1969
3074 233.3685
3130 169.9611
3421 17.3732
3586 1.4326
3784 140.4387
3818 236.2059
3881 156.0612
3933 60.0519
4033 121.6290
4046 274.8180
4094 94.8825
4145 32.0584
4208 166.8116
4235 131.4257
4332 50.5389
4568 84.7157
4685 276.4037
4749 259.2421
4805 54.7573
4858 161.7495
4871 91.2607
4945 318.9762
4999 245.7691
5010 207.4365
5106 215.8392
5130 216.8576
5249 122.7098
5258 98.2752
5318 208.6062
5369 166.2168
5589 206.4262
5645 65.8801
PLANTSmolcadARTstart hb
PLANTSmolcadARTstart HB
LINES
25.1557 4.65729 -0.105473 24.1313 3.46204 0.724485 0 255 0 5
PLANTSmolcadARTstart HBCH
LINES
PLANTSmolcadARTstart HB-CHO
LINES
PLANTSmolcadARTend
PLANTSmolcadARTstart HB_WATER
LINES
PLANTSmolcadARTend

PLANTSmolcadARTend

