@<TRIPOS>MOLECULE
Olaparib_entry_00001_conf_55
55 59 1
SMALL
NO_CHARGES


@<TRIPOS>ATOM
      1 N          26.9923    8.3234   21.3651 N.am      1 UNL1        0.0000
      2 N          24.5665    7.7873   20.6058 N.am      1 UNL1        0.0000
      3 N          31.2821    4.7782   17.0588 N.2       1 UNL1        0.0000
      4 N          32.3467    4.1704   16.5943 N.am      1 UNL1        0.0000
      5 C          32.8881    4.4463   15.3995 C.2       1 UNL1        0.0000
      6 C          32.3016    5.4166   14.6133 C.ar      1 UNL1        0.0000
      7 C          32.8125    5.7290   13.3529 C.ar      1 UNL1        0.0000
      8 C          32.1974    6.6869   12.5760 C.ar      1 UNL1        0.0000
      9 C          31.0796    7.2973   13.1043 C.ar      1 UNL1        0.0000
     10 C          30.5615    6.9970   14.3530 C.ar      1 UNL1        0.0000
     11 C          31.1792    6.0495   15.1149 C.ar      1 UNL1        0.0000
     12 C          30.6439    5.7522   16.3395 C.2       1 UNL1        0.0000
     13 C          29.5131    6.3942   16.9969 C.3       1 UNL1        0.0000
     14 C          29.9167    6.9341   18.3246 C.ar      1 UNL1        0.0000
     15 C          28.9270    7.6624   19.0085 C.ar      1 UNL1        0.0000
     16 C          29.2078    8.2094   20.2376 C.ar      1 UNL1        0.0000
     17 C          28.1884    8.9842   20.9806 C.2       1 UNL1        0.0000
     18 C          25.9882    9.0360   22.0869 C.3       1 UNL1        0.0000
     19 C          24.6018    8.4667   21.8748 C.3       1 UNL1        0.0000
     20 C          25.4534    6.6298   20.4460 C.3       1 UNL1        0.0000
     21 C          26.8181    6.9267   21.0122 C.3       1 UNL1        0.0000
     22 C          23.7344    8.1947   19.5590 C.2       1 UNL1        0.0000
     23 C          22.8096    9.3313   19.5596 C.3       1 UNL1        0.0000
     24 C          21.3891    9.0350   19.9845 C.3       1 UNL1        0.0000
     25 C          21.6796    9.4002   18.5962 C.3       1 UNL1        0.0000
     26 C          30.4286    8.0851   20.8574 C.ar      1 UNL1        0.0000
     27 C          31.3966    7.3721   20.1871 C.ar      1 UNL1        0.0000
     28 C          31.1138    6.8134   18.9324 C.ar      1 UNL1        0.0000
     29 O          33.9091    3.8753   14.9375 O.2       1 UNL1        0.0000
     30 O          23.7698    7.5143   18.4722 O.2       1 UNL1        0.0000
     31 O          28.3502   10.1906   21.2756 O.2       1 UNL1        0.0000
     32 F          30.6585    8.6480   22.0793 F         1 UNL1        0.0000
     33 H          33.6524    5.2427   13.0021 H         1 UNL1        0.0000
     34 H          32.5566    6.9352   11.6418 H         1 UNL1        0.0000
     35 H          30.6033    8.0164   12.5385 H         1 UNL1        0.0000
     36 H          29.7208    7.4830   14.7028 H         1 UNL1        0.0000
     37 H          28.7303    5.6772   17.1315 H         1 UNL1        0.0000
     38 H          29.1726    7.2040   16.3856 H         1 UNL1        0.0000
     39 H          27.9928    7.7861   18.5885 H         1 UNL1        0.0000
     40 H          25.9931   10.0562   21.7635 H         1 UNL1        0.0000
     41 H          26.2171    8.9502   23.1291 H         1 UNL1        0.0000
     42 H          23.8835    9.2593   21.8787 H         1 UNL1        0.0000
     43 H          24.3679    7.7795   22.6612 H         1 UNL1        0.0000
     44 H          25.5474    6.3983   19.4058 H         1 UNL1        0.0000
     45 H          25.0353    5.7977   20.9731 H         1 UNL1        0.0000
     46 H          27.5553    6.6659   20.2816 H         1 UNL1        0.0000
     47 H          26.9252    6.3540   21.9087 H         1 UNL1        0.0000
     48 H          23.5914   10.0099   19.8291 H         1 UNL1        0.0000
     49 H          20.8667    9.7194   20.6200 H         1 UNL1        0.0000
     50 H          20.8982    8.2149   20.4656 H         1 UNL1        0.0000
     51 H          21.3601   10.3494   18.2194 H         1 UNL1        0.0000
     52 H          21.4779    8.9490   17.6480 H         1 UNL1        0.0000
     53 H          32.3310    7.2485   20.6088 H         1 UNL1        0.0000
     54 H          31.8576    6.2838   18.4509 H         1 UNL1        0.0000
     55 H          32.7699    3.4771   17.1512 H         1 UNL1        0.0000
@<TRIPOS>BOND
     1    1   18 1
     2    1   21 1
     3    1   17 am
     4    2   19 1
     5    2   20 1
     6    2   22 am
     7    3    4 1
     8    3   12 2
     9    4    5 am
    10    4   55 1
    11    5   29 2
    12    5    6 1
    13    6    7 ar
    14    6   11 ar
    15    7    8 ar
    16    7   33 1
    17    8   34 1
    18    8    9 ar
    19    9   10 ar
    20    9   35 1
    21   10   11 ar
    22   10   36 1
    23   11   12 1
    24   12   13 1
    25   13   37 1
    26   13   38 1
    27   13   14 1
    28   14   15 ar
    29   14   28 ar
    30   15   39 1
    31   15   16 ar
    32   16   26 ar
    33   16   17 1
    34   17   31 2
    35   18   19 1
    36   18   40 1
    37   18   41 1
    38   19   42 1
    39   19   43 1
    40   20   21 1
    41   20   45 1
    42   20   44 1
    43   21   46 1
    44   21   47 1
    45   22   30 2
    46   22   23 1
    47   23   25 1
    48   23   24 1
    49   23   48 1
    50   24   25 1
    51   24   49 1
    52   24   50 1
    53   25   51 1
    54   25   52 1
    55   26   27 ar
    56   26   32 1
    57   27   28 ar
    58   27   53 1
    59   28   54 1
@<TRIPOS>SUBSTRUCTURE
1 UNL1 1
@<TRIPOS>COMMENT
Olaparib
PLANTSproteinTorsions
70
3 357.6171
48 78.0686
123 335.9174
171 215.0183
348 74.2591
606 57.1537
632 130.7908
655 28.7351
678 20.3969
700 153.2876
773 168.4367
807 31.8204
891 50.0619
933 178.5735
999 81.4415
1020 133.5704
1361 173.4133
1371 21.8253
1544 163.3681
1649 63.9552
1689 67.9052
1736 333.6846
1771 146.8852
2012 107.8935
2070 305.1263
2082 329.0339
2147 178.2487
2300 109.2713
2527 318.7759
2551 199.8672
2605 84.9788
2653 338.2378
2739 89.0898
2807 326.8904
2841 306.6446
2875 130.1947
2885 185.0724
2915 176.3880
3074 256.4530
3130 80.2055
3421 107.3580
3586 229.4334
3784 251.0283
3818 268.8507
3881 332.0267
3933 271.7864
4033 43.3304
4046 226.9706
4094 118.6434
4145 79.5681
4208 297.0059
4235 23.5679
4332 64.3400
4568 40.1128
4685 181.5972
4749 302.8359
4805 57.8574
4858 179.2843
4871 139.8342
4945 172.6366
4999 108.6580
5010 142.3261
5106 316.7658
5130 101.5109
5249 176.3764
5258 102.6807
5318 314.2382
5369 30.7815
5589 221.8752
5645 120.5960
PLANTSmolcadARTstart hb
PLANTSmolcadARTstart HB
LINES
23.7698 7.51432 18.4722 22.5622 6.45605 18.0162 0 255 0 5
PLANTSmolcadARTstart HBCH
LINES
PLANTSmolcadARTstart HB-CHO
LINES
PLANTSmolcadARTend
PLANTSmolcadARTstart HB_WATER
LINES
PLANTSmolcadARTend

PLANTSmolcadARTend

