@<TRIPOS>MOLECULE
Olaparib_entry_00001_conf_79
55 59 1
SMALL
NO_CHARGES


@<TRIPOS>ATOM
      1 N          15.6652   -5.2513   14.2669 N.am      1 UNL1        0.0000
      2 N          16.9111   -3.1528   15.1569 N.am      1 UNL1        0.0000
      3 N          17.0663  -11.4570   10.7113 N.2       1 UNL1        0.0000
      4 N          17.2973  -12.7332   10.9026 N.am      1 UNL1        0.0000
      5 C          16.3278  -13.6582   10.9402 C.2       1 UNL1        0.0000
      6 C          15.0192  -13.2552   10.7703 C.ar      1 UNL1        0.0000
      7 C          13.9700  -14.1737   10.8203 C.ar      1 UNL1        0.0000
      8 C          12.6688  -13.7453   10.6692 C.ar      1 UNL1        0.0000
      9 C          12.4740  -12.3944   10.4733 C.ar      1 UNL1        0.0000
     10 C          13.5055  -11.4718   10.4218 C.ar      1 UNL1        0.0000
     11 C          14.7896  -11.9065   10.5699 C.ar      1 UNL1        0.0000
     12 C          15.7962  -10.9791   10.5339 C.2       1 UNL1        0.0000
     13 C          15.6827   -9.5515   10.2650 C.3       1 UNL1        0.0000
     14 C          16.4916   -8.7690   11.2401 C.ar      1 UNL1        0.0000
     15 C          15.7604   -8.1220   12.2522 C.ar      1 UNL1        0.0000
     16 C          16.4175   -7.3667   13.1937 C.ar      1 UNL1        0.0000
     17 C          15.6757   -6.6708   14.2692 C.2       1 UNL1        0.0000
     18 C          14.9568   -4.5449   15.2848 C.3       1 UNL1        0.0000
     19 C          15.5231   -3.1646   15.5398 C.3       1 UNL1        0.0000
     20 C          17.2135   -3.4046   13.7437 C.3       1 UNL1        0.0000
     21 C          16.3811   -4.5464   13.2198 C.3       1 UNL1        0.0000
     22 C          17.9405   -2.9157   16.0725 C.2       1 UNL1        0.0000
     23 C          17.8012   -2.6639   17.5093 C.3       1 UNL1        0.0000
     24 C          18.9504   -1.9402   18.1740 C.3       1 UNL1        0.0000
     25 C          18.6820   -3.3437   18.4951 C.3       1 UNL1        0.0000
     26 C          17.7821   -7.2002   13.2087 C.ar      1 UNL1        0.0000
     27 C          18.4968   -7.8339   12.2174 C.ar      1 UNL1        0.0000
     28 C          17.8294   -8.6046   11.2546 C.ar      1 UNL1        0.0000
     29 O          16.5296  -14.8864   11.1211 O.2       1 UNL1        0.0000
     30 O          19.1435   -2.9150   15.6275 O.2       1 UNL1        0.0000
     31 O          15.0648   -7.2919   15.1692 O.2       1 UNL1        0.0000
     32 F          18.3880   -6.4387   14.1655 F         1 UNL1        0.0000
     33 H          14.1684  -15.1754   10.9700 H         1 UNL1        0.0000
     34 H          11.8770  -14.4051   10.7020 H         1 UNL1        0.0000
     35 H          11.5075  -12.0526   10.3592 H         1 UNL1        0.0000
     36 H          13.3063  -10.4700   10.2732 H         1 UNL1        0.0000
     37 H          14.6565   -9.2587   10.3435 H         1 UNL1        0.0000
     38 H          16.0494   -9.3557    9.2788 H         1 UNL1        0.0000
     39 H          14.7333   -8.2138   12.2877 H         1 UNL1        0.0000
     40 H          15.0081   -5.1097   16.1925 H         1 UNL1        0.0000
     41 H          13.9469   -4.4237   14.9510 H         1 UNL1        0.0000
     42 H          15.4344   -2.9262   16.5788 H         1 UNL1        0.0000
     43 H          14.9824   -2.4396   14.9677 H         1 UNL1        0.0000
     44 H          18.2499   -3.6503   13.6432 H         1 UNL1        0.0000
     45 H          16.9861   -2.5248   13.1787 H         1 UNL1        0.0000
     46 H          17.0268   -5.2402   12.7228 H         1 UNL1        0.0000
     47 H          15.6522   -4.1337   12.5553 H         1 UNL1        0.0000
     48 H          16.7409   -2.5534   17.4210 H         1 UNL1        0.0000
     49 H          18.7550   -1.1781   18.8995 H         1 UNL1        0.0000
     50 H          19.8010   -1.3911   17.8276 H         1 UNL1        0.0000
     51 H          18.2985   -3.6032   19.4598 H         1 UNL1        0.0000
     52 H          19.2684   -4.2377   18.4811 H         1 UNL1        0.0000
     53 H          19.5246   -7.7417   12.1835 H         1 UNL1        0.0000
     54 H          18.3891   -9.0689   10.5220 H         1 UNL1        0.0000
     55 H          18.2294  -13.0268   11.0242 H         1 UNL1        0.0000
@<TRIPOS>BOND
     1    1   18 1
     2    1   21 1
     3    1   17 am
     4    2   19 1
     5    2   20 1
     6    2   22 am
     7    3    4 1
     8    3   12 2
     9    4    5 am
    10    4   55 1
    11    5   29 2
    12    5    6 1
    13    6    7 ar
    14    6   11 ar
    15    7    8 ar
    16    7   33 1
    17    8   34 1
    18    8    9 ar
    19    9   10 ar
    20    9   35 1
    21   10   11 ar
    22   10   36 1
    23   11   12 1
    24   12   13 1
    25   13   37 1
    26   13   38 1
    27   13   14 1
    28   14   15 ar
    29   14   28 ar
    30   15   39 1
    31   15   16 ar
    32   16   26 ar
    33   16   17 1
    34   17   31 2
    35   18   19 1
    36   18   40 1
    37   18   41 1
    38   19   42 1
    39   19   43 1
    40   20   21 1
    41   20   45 1
    42   20   44 1
    43   21   46 1
    44   21   47 1
    45   22   30 2
    46   22   23 1
    47   23   25 1
    48   23   24 1
    49   23   48 1
    50   24   25 1
    51   24   49 1
    52   24   50 1
    53   25   51 1
    54   25   52 1
    55   26   27 ar
    56   26   32 1
    57   27   28 ar
    58   27   53 1
    59   28   54 1
@<TRIPOS>SUBSTRUCTURE
1 UNL1 1
@<TRIPOS>COMMENT
Olaparib
PLANTSproteinTorsions
70
3 345.5754
48 80.2582
123 67.8978
171 32.0115
348 34.3253
606 295.0481
632 25.2104
655 179.2984
678 48.0442
700 42.7998
773 268.6420
807 136.5320
891 245.6059
933 217.0044
999 65.2662
1020 135.0246
1361 173.8145
1371 25.9342
1544 87.6350
1649 191.1409
1689 95.2494
1736 74.5225
1771 217.1002
2012 346.4287
2070 106.2032
2082 225.6320
2147 196.7673
2300 106.0871
2527 350.3957
2551 70.4292
2605 116.0128
2653 107.7366
2739 247.4663
2807 180.6972
2841 51.1791
2875 5.8974
2885 139.9233
2915 227.9862
3074 217.0718
3130 12.0853
3421 68.8277
3586 19.0710
3784 267.9214
3818 92.6587
3881 88.4913
3933 88.1381
4033 121.6589
4046 166.5632
4094 0.2596
4145 3.5559
4208 53.5125
4235 33.2627
4332 203.7025
4568 61.3153
4685 124.6091
4749 329.7484
4805 219.9397
4858 58.2234
4871 107.4268
4945 103.2710
4999 263.0394
5010 176.6964
5106 242.9810
5130 213.4006
5249 285.2065
5258 284.0491
5318 220.2068
5369 67.3187
5589 101.5884
5645 311.7660
PLANTSmolcadARTstart hb
PLANTSmolcadARTstart HB
LINES
15.0648 -7.29188 15.1692 14.939 -7.462 16.94 0 255 0 5
PLANTSmolcadARTstart HBCH
LINES
PLANTSmolcadARTstart HB-CHO
LINES
PLANTSmolcadARTend
PLANTSmolcadARTstart HB_WATER
LINES
PLANTSmolcadARTend

PLANTSmolcadARTend

