@<TRIPOS>MOLECULE
Olaparib_entry_00001_conf_13
55 59 1
SMALL
NO_CHARGES


@<TRIPOS>ATOM
      1 N          15.0659   -4.9781   13.8151 N.am      1 UNL1        0.0000
      2 N          15.6089   -2.4473   13.5947 N.am      1 UNL1        0.0000
      3 N          16.8810  -11.3997   12.8390 N.2       1 UNL1        0.0000
      4 N          16.7897  -12.5128   13.5256 N.am      1 UNL1        0.0000
      5 C          15.8044  -13.4049   13.3519 C.2       1 UNL1        0.0000
      6 C          14.8341  -13.1461   12.4057 C.ar      1 UNL1        0.0000
      7 C          13.7755  -14.0313   12.1983 C.ar      1 UNL1        0.0000
      8 C          12.8059  -13.7417   11.2626 C.ar      1 UNL1        0.0000
      9 C          12.9417  -12.5591   10.5669 C.ar      1 UNL1        0.0000
     10 C          13.9865  -11.6714   10.7626 C.ar      1 UNL1        0.0000
     11 C          14.9421  -11.9686   11.6891 C.ar      1 UNL1        0.0000
     12 C          15.9585  -11.0719   11.8825 C.2       1 UNL1        0.0000
     13 C          16.2117   -9.8402   11.1465 C.3       1 UNL1        0.0000
     14 C          16.8398   -8.8208   12.0319 C.ar      1 UNL1        0.0000
     15 C          15.9448   -8.0258   12.7699 C.ar      1 UNL1        0.0000
     16 C          16.4288   -7.0497   13.6077 C.ar      1 UNL1        0.0000
     17 C          15.5123   -6.1944   14.3949 C.2       1 UNL1        0.0000
     18 C          14.1777   -4.1293   14.5416 C.3       1 UNL1        0.0000
     19 C          14.2930   -2.6766   14.1324 C.3       1 UNL1        0.0000
     20 C          15.9697   -3.1874   12.3806 C.3       1 UNL1        0.0000
     21 C          15.5271   -4.6242   12.4855 C.3       1 UNL1        0.0000
     22 C          16.5184   -1.5656   14.1860 C.2       1 UNL1        0.0000
     23 C          16.3129   -0.7703   15.3995 C.3       1 UNL1        0.0000
     24 C          16.5747    0.7137   15.2765 C.3       1 UNL1        0.0000
     25 C          17.4567   -0.1225   16.0938 C.3       1 UNL1        0.0000
     26 C          17.7696   -6.7957   13.7744 C.ar      1 UNL1        0.0000
     27 C          18.6447   -7.5746   13.0515 C.ar      1 UNL1        0.0000
     28 C          18.1542   -8.5706   12.1950 C.ar      1 UNL1        0.0000
     29 O          15.7006  -14.4781   13.9995 O.2       1 UNL1        0.0000
     30 O          17.6615   -1.4237   13.6218 O.2       1 UNL1        0.0000
     31 O          15.1249   -6.5105   15.5433 O.2       1 UNL1        0.0000
     32 F          18.2006   -5.8138   14.6187 F         1 UNL1        0.0000
     33 H          13.7187  -14.9043   12.7457 H         1 UNL1        0.0000
     34 H          12.0146  -14.3803   11.0912 H         1 UNL1        0.0000
     35 H          12.2259  -12.3226    9.8626 H         1 UNL1        0.0000
     36 H          14.0420  -10.7979   10.2156 H         1 UNL1        0.0000
     37 H          15.2858   -9.4577   10.7707 H         1 UNL1        0.0000
     38 H          16.8803  -10.0522   10.3382 H         1 UNL1        0.0000
     39 H          14.9276   -8.1745   12.6823 H         1 UNL1        0.0000
     40 H          14.4030   -4.2106   15.5847 H         1 UNL1        0.0000
     41 H          13.1784   -4.4476   14.3268 H         1 UNL1        0.0000
     42 H          14.1385   -2.0497   14.9852 H         1 UNL1        0.0000
     43 H          13.5538   -2.4486   13.3928 H         1 UNL1        0.0000
     44 H          17.0311   -3.1554   12.2504 H         1 UNL1        0.0000
     45 H          15.4810   -2.7367   11.5421 H         1 UNL1        0.0000
     46 H          16.3533   -5.2556   12.2328 H         1 UNL1        0.0000
     47 H          14.7045   -4.7563   11.8154 H         1 UNL1        0.0000
     48 H          15.5196   -1.4102   15.7245 H         1 UNL1        0.0000
     49 H          15.9153    1.4142   15.7454 H         1 UNL1        0.0000
     50 H          16.7150    1.3928   14.4615 H         1 UNL1        0.0000
     51 H          17.4442   -0.0235   17.1591 H         1 UNL1        0.0000
     52 H          18.5116   -0.2950   16.1160 H         1 UNL1        0.0000
     53 H          19.6625   -7.4250   13.1405 H         1 UNL1        0.0000
     54 H          18.8319   -9.1403   11.6641 H         1 UNL1        0.0000
     55 H          17.4796  -12.7030   14.2021 H         1 UNL1        0.0000
@<TRIPOS>BOND
     1    1   18 1
     2    1   21 1
     3    1   17 am
     4    2   19 1
     5    2   20 1
     6    2   22 am
     7    3    4 1
     8    3   12 2
     9    4    5 am
    10    4   55 1
    11    5   29 2
    12    5    6 1
    13    6    7 ar
    14    6   11 ar
    15    7    8 ar
    16    7   33 1
    17    8   34 1
    18    8    9 ar
    19    9   10 ar
    20    9   35 1
    21   10   11 ar
    22   10   36 1
    23   11   12 1
    24   12   13 1
    25   13   37 1
    26   13   38 1
    27   13   14 1
    28   14   15 ar
    29   14   28 ar
    30   15   39 1
    31   15   16 ar
    32   16   26 ar
    33   16   17 1
    34   17   31 2
    35   18   19 1
    36   18   40 1
    37   18   41 1
    38   19   42 1
    39   19   43 1
    40   20   21 1
    41   20   45 1
    42   20   44 1
    43   21   46 1
    44   21   47 1
    45   22   30 2
    46   22   23 1
    47   23   25 1
    48   23   24 1
    49   23   48 1
    50   24   25 1
    51   24   49 1
    52   24   50 1
    53   25   51 1
    54   25   52 1
    55   26   27 ar
    56   26   32 1
    57   27   28 ar
    58   27   53 1
    59   28   54 1
@<TRIPOS>SUBSTRUCTURE
1 UNL1 1
@<TRIPOS>COMMENT
Olaparib
PLANTSproteinTorsions
70
3 103.8849
48 260.4370
123 61.6441
171 62.9846
348 97.5991
606 15.8190
632 321.1421
655 124.8804
678 152.0120
700 336.0396
773 279.0867
807 222.1116
891 301.7938
933 217.4605
999 55.4200
1020 322.2138
1361 33.7408
1371 25.0755
1544 24.5809
1649 332.2006
1689 219.3765
1736 103.5099
1771 202.8025
2012 34.7103
2070 66.7994
2082 154.2981
2147 145.2702
2300 231.4800
2527 183.9361
2551 54.6130
2605 122.8442
2653 148.8346
2739 253.8232
2807 211.4135
2841 161.1969
2875 292.1539
2885 26.2049
2915 248.0951
3074 227.5092
3130 59.2038
3421 14.8675
3586 169.2505
3784 268.9365
3818 163.9361
3881 124.8739
3933 342.1918
4033 125.4638
4046 3.7159
4094 228.6511
4145 58.1109
4208 106.8434
4235 129.5731
4332 130.0025
4568 293.9965
4685 178.7435
4749 245.8246
4805 260.8179
4858 75.9269
4871 115.5449
4945 291.8934
4999 76.7471
5010 290.9067
5106 271.6123
5130 37.1443
5249 291.0229
5258 305.8662
5318 142.2391
5369 39.0917
5589 233.5642
5645 167.7762
PLANTSmolcadARTstart hb
PLANTSmolcadARTstart HB
LINES
15.1249 -6.51052 15.5433 14.939 -7.462 16.94 0 255 0 5
PLANTSmolcadARTstart HBCH
LINES
PLANTSmolcadARTstart HB-CHO
LINES
PLANTSmolcadARTend
PLANTSmolcadARTstart HB_WATER
LINES
PLANTSmolcadARTend

PLANTSmolcadARTend

