@<TRIPOS>MOLECULE
Olaparib_entry_00001_conf_25
55 59 1
SMALL
NO_CHARGES


@<TRIPOS>ATOM
      1 N          16.6883   -5.6918   15.2113 N.am      1 UNL1        0.0000
      2 N          15.2147   -3.5902   15.6115 N.am      1 UNL1        0.0000
      3 N          15.1537  -10.9306   11.3927 N.2       1 UNL1        0.0000
      4 N          14.1629  -11.5903   10.8434 N.am      1 UNL1        0.0000
      5 C          14.3295  -12.7291   10.1562 C.2       1 UNL1        0.0000
      6 C          15.6040  -13.2386   10.0151 C.ar      1 UNL1        0.0000
      7 C          15.8360  -14.4098    9.2928 C.ar      1 UNL1        0.0000
      8 C          17.1201  -14.8887    9.1469 C.ar      1 UNL1        0.0000
      9 C          18.1301  -14.1604    9.7392 C.ar      1 UNL1        0.0000
     10 C          17.9145  -12.9967   10.4583 C.ar      1 UNL1        0.0000
     11 C          16.6398  -12.5328   10.5989 C.ar      1 UNL1        0.0000
     12 C          16.4459  -11.3716   11.2978 C.2       1 UNL1        0.0000
     13 C          17.4438  -10.5825   12.0083 C.3       1 UNL1        0.0000
     14 C          17.0716   -9.1407   12.0038 C.ar      1 UNL1        0.0000
     15 C          17.5201   -8.3960   13.1092 C.ar      1 UNL1        0.0000
     16 C          17.2177   -7.0585   13.2003 C.ar      1 UNL1        0.0000
     17 C          17.6723   -6.2486   14.3530 C.2       1 UNL1        0.0000
     18 C          17.0881   -4.9091   16.3359 C.3       1 UNL1        0.0000
     19 C          16.0350   -3.9047   16.7522 C.3       1 UNL1        0.0000
     20 C          14.4426   -4.6904   15.0238 C.3       1 UNL1        0.0000
     21 C          15.2871   -5.9345   14.9223 C.3       1 UNL1        0.0000
     22 C          15.1423   -2.3032   15.0707 C.2       1 UNL1        0.0000
     23 C          15.8588   -1.1115   15.5331 C.3       1 UNL1        0.0000
     24 C          16.8646   -0.5225   14.5699 C.3       1 UNL1        0.0000
     25 C          17.3185   -1.1547   15.8107 C.3       1 UNL1        0.0000
     26 C          16.4849   -6.3846   12.2521 C.ar      1 UNL1        0.0000
     27 C          16.0465   -7.1146   11.1705 C.ar      1 UNL1        0.0000
     28 C          16.3524   -8.4797   11.0750 C.ar      1 UNL1        0.0000
     29 O          13.3921  -13.3766    9.6235 O.2       1 UNL1        0.0000
     30 O          14.3724   -2.1253   14.0604 O.2       1 UNL1        0.0000
     31 O          18.8853   -6.0441   14.5887 O.2       1 UNL1        0.0000
     32 F          16.2102   -5.0547   12.3886 F         1 UNL1        0.0000
     33 H          15.0452  -14.9186    8.8678 H         1 UNL1        0.0000
     34 H          17.3165  -15.7520    8.6183 H         1 UNL1        0.0000
     35 H          19.0989  -14.5008    9.6409 H         1 UNL1        0.0000
     36 H          18.7061  -12.4877   10.8821 H         1 UNL1        0.0000
     37 H          18.3935  -10.7026   11.5302 H         1 UNL1        0.0000
     38 H          17.4940  -10.9214   13.0222 H         1 UNL1        0.0000
     39 H          18.0743   -8.8527   13.8500 H         1 UNL1        0.0000
     40 H          17.9847   -4.3816   16.0846 H         1 UNL1        0.0000
     41 H          17.2399   -5.5782   17.1577 H         1 UNL1        0.0000
     42 H          16.5088   -3.0153   17.1109 H         1 UNL1        0.0000
     43 H          15.4294   -4.3168   17.5325 H         1 UNL1        0.0000
     44 H          14.1144   -4.4078   14.0455 H         1 UNL1        0.0000
     45 H          13.6002   -4.8961   15.6508 H         1 UNL1        0.0000
     46 H          15.2070   -6.3217   13.9279 H         1 UNL1        0.0000
     47 H          14.9252   -6.6283   15.6508 H         1 UNL1        0.0000
     48 H          15.0109   -0.7788   16.0941 H         1 UNL1        0.0000
     49 H          16.9355    0.5389   14.4528 H         1 UNL1        0.0000
     50 H          17.0822   -0.6509   13.5302 H         1 UNL1        0.0000
     51 H          17.7282   -0.5519   16.5941 H         1 UNL1        0.0000
     52 H          18.0124   -1.9352   16.0400 H         1 UNL1        0.0000
     53 H          15.4924   -6.6563   10.4295 H         1 UNL1        0.0000
     54 H          16.0111   -9.0039   10.2538 H         1 UNL1        0.0000
     55 H          13.2510  -11.2316   10.9410 H         1 UNL1        0.0000
@<TRIPOS>BOND
     1    1   18 1
     2    1   21 1
     3    1   17 am
     4    2   19 1
     5    2   20 1
     6    2   22 am
     7    3    4 1
     8    3   12 2
     9    4    5 am
    10    4   55 1
    11    5   29 2
    12    5    6 1
    13    6    7 ar
    14    6   11 ar
    15    7    8 ar
    16    7   33 1
    17    8   34 1
    18    8    9 ar
    19    9   10 ar
    20    9   35 1
    21   10   11 ar
    22   10   36 1
    23   11   12 1
    24   12   13 1
    25   13   37 1
    26   13   38 1
    27   13   14 1
    28   14   15 ar
    29   14   28 ar
    30   15   39 1
    31   15   16 ar
    32   16   26 ar
    33   16   17 1
    34   17   31 2
    35   18   19 1
    36   18   40 1
    37   18   41 1
    38   19   42 1
    39   19   43 1
    40   20   21 1
    41   20   45 1
    42   20   44 1
    43   21   46 1
    44   21   47 1
    45   22   30 2
    46   22   23 1
    47   23   25 1
    48   23   24 1
    49   23   48 1
    50   24   25 1
    51   24   49 1
    52   24   50 1
    53   25   51 1
    54   25   52 1
    55   26   27 ar
    56   26   32 1
    57   27   28 ar
    58   27   53 1
    59   28   54 1
@<TRIPOS>SUBSTRUCTURE
1 UNL1 1
@<TRIPOS>COMMENT
Olaparib
PLANTSproteinTorsions
70
3 115.4873
48 179.8609
123 1.7001
171 40.8816
348 76.5682
606 222.6986
632 323.4133
655 168.7175
678 43.9938
700 23.1863
773 25.2753
807 2.0320
891 174.3787
933 157.8579
999 35.0263
1020 90.3812
1361 30.0393
1371 26.4150
1544 56.9785
1649 45.0007
1689 16.7789
1736 215.5706
1771 138.6980
2012 43.2133
2070 265.0920
2082 259.0771
2147 161.1538
2300 56.3496
2527 153.4927
2551 213.7769
2605 213.3022
2653 152.5086
2739 21.8789
2807 222.9065
2841 336.0959
2875 20.1008
2885 115.9456
2915 102.1328
3074 141.0598
3130 238.9956
3421 74.5585
3586 293.5247
3784 56.3812
3818 199.3966
3881 122.2511
3933 48.8031
4033 62.1999
4046 18.0380
4094 39.6750
4145 16.4346
4208 59.7276
4235 143.5332
4332 83.2819
4568 282.3246
4685 358.9226
4749 232.9843
4805 194.7215
4858 101.7898
4871 10.7999
4945 156.4286
4999 123.2755
5010 313.1469
5106 242.6302
5130 123.5200
5249 173.2545
5258 9.8582
5318 220.0255
5369 262.5040
5589 66.8634
5645 171.7553
PLANTSmolcadARTstart hb
PLANTSmolcadARTstart HB
LINES
14.3724 -2.12529 14.0604 14.0092 -0.260045 14.4749 0 255 0 5
PLANTSmolcadARTstart HBCH
LINES
PLANTSmolcadARTstart HB-CHO
LINES
PLANTSmolcadARTend
PLANTSmolcadARTstart HB_WATER
LINES
PLANTSmolcadARTend

PLANTSmolcadARTend

