@<TRIPOS>MOLECULE
Olaparib_entry_00001_conf_49
55 59 1
SMALL
NO_CHARGES


@<TRIPOS>ATOM
      1 N          15.4640  -10.5811   10.3169 N.am      1 UNL1        0.0000
      2 N          16.4844  -12.8972   10.9024 N.am      1 UNL1        0.0000
      3 N          15.9705   -2.8597   12.3054 N.2       1 UNL1        0.0000
      4 N          16.5570   -1.9228   13.0103 N.am      1 UNL1        0.0000
      5 C          16.6987   -1.9847   14.3419 C.2       1 UNL1        0.0000
      6 C          16.2050   -3.0856   15.0112 C.ar      1 UNL1        0.0000
      7 C          16.3079   -3.1913   16.3988 C.ar      1 UNL1        0.0000
      8 C          15.7885   -4.2903   17.0485 C.ar      1 UNL1        0.0000
      9 C          15.1783   -5.2483   16.2667 C.ar      1 UNL1        0.0000
     10 C          15.0688   -5.1562   14.8892 C.ar      1 UNL1        0.0000
     11 C          15.5884   -4.0660   14.2558 C.ar      1 UNL1        0.0000
     12 C          15.4560   -3.9822   12.8957 C.2       1 UNL1        0.0000
     13 C          14.8898   -4.9760   11.9930 C.3       1 UNL1        0.0000
     14 C          15.8168   -6.1309   11.8377 C.ar      1 UNL1        0.0000
     15 C          15.4002   -7.1246   10.9340 C.ar      1 UNL1        0.0000
     16 C          16.1838   -8.2351   10.7303 C.ar      1 UNL1        0.0000
     17 C          15.7709   -9.2999    9.7884 C.2       1 UNL1        0.0000
     18 C          15.0576  -11.6318    9.4406 C.3       1 UNL1        0.0000
     19 C          15.3763  -13.0059    9.9894 C.3       1 UNL1        0.0000
     20 C          16.2811  -12.0754   12.1004 C.3       1 UNL1        0.0000
     21 C          15.5714  -10.7933   11.7484 C.3       1 UNL1        0.0000
     22 C          17.7076  -13.5355   10.6778 C.2       1 UNL1        0.0000
     23 C          18.0672  -14.3725    9.5301 C.3       1 UNL1        0.0000
     24 C          17.9371  -15.8659    9.7270 C.3       1 UNL1        0.0000
     25 C          19.2605  -15.2580    9.5716 C.3       1 UNL1        0.0000
     26 C          17.3824   -8.4404   11.3716 C.ar      1 UNL1        0.0000
     27 C          17.7892   -7.4671   12.2560 C.ar      1 UNL1        0.0000
     28 C          16.9916   -6.3333   12.4670 C.ar      1 UNL1        0.0000
     29 O          17.2591   -1.0973   15.0349 O.2       1 UNL1        0.0000
     30 O          18.6277  -13.3842   11.5586 O.2       1 UNL1        0.0000
     31 O          15.6858   -9.1038    8.5542 O.2       1 UNL1        0.0000
     32 F          18.1244   -9.5613   11.1354 F         1 UNL1        0.0000
     33 H          16.7741   -2.4461   16.9394 H         1 UNL1        0.0000
     34 H          15.8528   -4.3910   18.0727 H         1 UNL1        0.0000
     35 H          14.7817   -6.0784   16.7333 H         1 UNL1        0.0000
     36 H          14.6013   -5.9014   14.3493 H         1 UNL1        0.0000
     37 H          14.7222   -4.5278   11.0359 H         1 UNL1        0.0000
     38 H          13.9666   -5.3291   12.4034 H         1 UNL1        0.0000
     39 H          14.5085   -7.0205   10.4256 H         1 UNL1        0.0000
     40 H          15.5618  -11.5110    8.5043 H         1 UNL1        0.0000
     41 H          13.9949  -11.5665    9.3289 H         1 UNL1        0.0000
     42 H          15.6354  -13.6625    9.1857 H         1 UNL1        0.0000
     43 H          14.5221  -13.3993   10.5002 H         1 UNL1        0.0000
     44 H          17.2310  -11.8434   12.5343 H         1 UNL1        0.0000
     45 H          15.6803  -12.6216   12.7973 H         1 UNL1        0.0000
     46 H          16.1136   -9.9747   12.1739 H         1 UNL1        0.0000
     47 H          14.5779  -10.8591   12.1380 H         1 UNL1        0.0000
     48 H          17.7222  -13.6319    8.8396 H         1 UNL1        0.0000
     49 H          17.5328  -16.4756    8.9458 H         1 UNL1        0.0000
     50 H          17.4733  -16.4957   10.4573 H         1 UNL1        0.0000
     51 H          19.8232  -15.4333    8.6784 H         1 UNL1        0.0000
     52 H          20.1605  -15.2721   10.1486 H         1 UNL1        0.0000
     53 H          18.6821   -7.5723   12.7637 H         1 UNL1        0.0000
     54 H          17.3197   -5.6187   13.1357 H         1 UNL1        0.0000
     55 H          16.9116   -1.1348   12.5380 H         1 UNL1        0.0000
@<TRIPOS>BOND
     1    1   18 1
     2    1   21 1
     3    1   17 am
     4    2   19 1
     5    2   20 1
     6    2   22 am
     7    3    4 1
     8    3   12 2
     9    4    5 am
    10    4   55 1
    11    5   29 2
    12    5    6 1
    13    6    7 ar
    14    6   11 ar
    15    7    8 ar
    16    7   33 1
    17    8   34 1
    18    8    9 ar
    19    9   10 ar
    20    9   35 1
    21   10   11 ar
    22   10   36 1
    23   11   12 1
    24   12   13 1
    25   13   37 1
    26   13   38 1
    27   13   14 1
    28   14   15 ar
    29   14   28 ar
    30   15   39 1
    31   15   16 ar
    32   16   26 ar
    33   16   17 1
    34   17   31 2
    35   18   19 1
    36   18   40 1
    37   18   41 1
    38   19   42 1
    39   19   43 1
    40   20   21 1
    41   20   45 1
    42   20   44 1
    43   21   46 1
    44   21   47 1
    45   22   30 2
    46   22   23 1
    47   23   25 1
    48   23   24 1
    49   23   48 1
    50   24   25 1
    51   24   49 1
    52   24   50 1
    53   25   51 1
    54   25   52 1
    55   26   27 ar
    56   26   32 1
    57   27   28 ar
    58   27   53 1
    59   28   54 1
@<TRIPOS>SUBSTRUCTURE
1 UNL1 1
@<TRIPOS>COMMENT
Olaparib
PLANTSproteinTorsions
70
3 46.3771
48 50.6264
123 3.1469
171 87.8445
348 11.2767
606 84.9102
632 268.8538
655 23.9896
678 68.6086
700 234.4124
773 161.7372
807 114.2288
891 173.2654
933 78.5174
999 158.2924
1020 44.8023
1361 189.8006
1371 343.6077
1544 115.9680
1649 39.4168
1689 11.2697
1736 168.6704
1771 121.4917
2012 328.3778
2070 31.8546
2082 350.1494
2147 6.1366
2300 153.7942
2527 117.0717
2551 170.6327
2605 183.2028
2653 90.2756
2739 94.0061
2807 98.7938
2841 247.8014
2875 9.5528
2885 164.7858
2915 222.1907
3074 1.0696
3130 19.6129
3421 53.9655
3586 248.7374
3784 133.8055
3818 83.9758
3881 47.5180
3933 169.6101
4033 183.6212
4046 267.3867
4094 154.4951
4145 180.2746
4208 163.4173
4235 68.9577
4332 110.7726
4568 203.0538
4685 7.6661
4749 239.6355
4805 247.7336
4858 258.3343
4871 19.1041
4945 261.1439
4999 94.4597
5010 169.0800
5106 288.6422
5130 31.9126
5249 109.3291
5258 81.2411
5318 74.6065
5369 238.2626
5589 258.3033
5645 244.0323
PLANTSmolcadARTstart hb
PLANTSmolcadARTstart HB
LINES
PLANTSmolcadARTstart HBCH
LINES
PLANTSmolcadARTstart HB-CHO
LINES
PLANTSmolcadARTend
PLANTSmolcadARTstart HB_WATER
LINES
PLANTSmolcadARTend

PLANTSmolcadARTend

