@<TRIPOS>MOLECULE
Olaparib_entry_00001_conf_22
55 59 1
SMALL
NO_CHARGES


@<TRIPOS>ATOM
      1 N          15.0223   -5.0345   13.8473 N.am      1 UNL1        0.0000
      2 N          15.6936   -2.5345   13.6287 N.am      1 UNL1        0.0000
      3 N          17.3822  -11.4948   10.0797 N.2       1 UNL1        0.0000
      4 N          18.1389  -12.5397    9.8470 N.am      1 UNL1        0.0000
      5 C          18.3769  -13.4927   10.7592 C.2       1 UNL1        0.0000
      6 C          17.8009  -13.3753   12.0074 C.ar      1 UNL1        0.0000
      7 C          18.0317  -14.3283   13.0002 C.ar      1 UNL1        0.0000
      8 C          17.4629  -14.1792   14.2467 C.ar      1 UNL1        0.0000
      9 C          16.6773  -13.0637   14.4462 C.ar      1 UNL1        0.0000
     10 C          16.4401  -12.1100   13.4705 C.ar      1 UNL1        0.0000
     11 C          17.0055  -12.2683   12.2396 C.ar      1 UNL1        0.0000
     12 C          16.7751  -11.3073   11.2920 C.2       1 UNL1        0.0000
     13 C          15.9083  -10.1410   11.3986 C.3       1 UNL1        0.0000
     14 C          16.5877   -9.0507   12.1515 C.ar      1 UNL1        0.0000
     15 C          15.7417   -8.2149   12.9022 C.ar      1 UNL1        0.0000
     16 C          16.2745   -7.1732   13.6231 C.ar      1 UNL1        0.0000
     17 C          15.4100   -6.2740   14.4202 C.2       1 UNL1        0.0000
     18 C          14.1853   -4.1430   14.5833 C.3       1 UNL1        0.0000
     19 C          14.3722   -2.6971   14.1768 C.3       1 UNL1        0.0000
     20 C          16.0056   -3.2886   12.4098 C.3       1 UNL1        0.0000
     21 C          15.4902   -4.7009   12.5148 C.3       1 UNL1        0.0000
     22 C          16.6523   -1.7027   14.2146 C.2       1 UNL1        0.0000
     23 C          16.4984   -0.9015   15.4318 C.3       1 UNL1        0.0000
     24 C          16.5756    0.5984   15.2571 C.3       1 UNL1        0.0000
     25 C          17.6335   -0.1127   15.9785 C.3       1 UNL1        0.0000
     26 C          17.6193   -6.8899   13.6577 C.ar      1 UNL1        0.0000
     27 C          18.4464   -7.7086   12.9225 C.ar      1 UNL1        0.0000
     28 C          17.9060   -8.7718   12.1850 C.ar      1 UNL1        0.0000
     29 O          19.0984  -14.5024   10.5544 O.2       1 UNL1        0.0000
     30 O          17.7965   -1.6184   13.6411 O.2       1 UNL1        0.0000
     31 O          15.0162   -6.5730   15.5710 O.2       1 UNL1        0.0000
     32 F          18.0997   -5.8425   14.3891 F         1 UNL1        0.0000
     33 H          18.6284  -15.1463   12.8008 H         1 UNL1        0.0000
     34 H          17.6184  -14.8703   14.9961 H         1 UNL1        0.0000
     35 H          16.2432  -12.9324   15.3727 H         1 UNL1        0.0000
     36 H          15.8440  -11.2916   13.6710 H         1 UNL1        0.0000
     37 H          15.0097  -10.4156   11.9107 H         1 UNL1        0.0000
     38 H          15.6807   -9.7888   10.4140 H         1 UNL1        0.0000
     39 H          14.7238   -8.3831   12.9115 H         1 UNL1        0.0000
     40 H          14.4147   -4.2390   15.6243 H         1 UNL1        0.0000
     41 H          13.1691   -4.4086   14.3761 H         1 UNL1        0.0000
     42 H          14.2573   -2.0656   15.0325 H         1 UNL1        0.0000
     43 H          13.6396   -2.4289   13.4441 H         1 UNL1        0.0000
     44 H          17.0662   -3.3112   12.2707 H         1 UNL1        0.0000
     45 H          15.5340   -2.8108   11.5766 H         1 UNL1        0.0000
     46 H          16.2805   -5.3734   12.2535 H         1 UNL1        0.0000
     47 H          14.6564   -4.7884   11.8512 H         1 UNL1        0.0000
     48 H          15.8243   -1.6155   15.8563 H         1 UNL1        0.0000
     49 H          15.8994    1.2347   15.7891 H         1 UNL1        0.0000
     50 H          16.5448    1.2658   14.4213 H         1 UNL1        0.0000
     51 H          17.7315    0.0139   17.0365 H         1 UNL1        0.0000
     52 H          18.6968   -0.1673   15.8804 H         1 UNL1        0.0000
     53 H          19.4650   -7.5395   12.9145 H         1 UNL1        0.0000
     54 H          18.5483   -9.3703   11.6420 H         1 UNL1        0.0000
     55 H          18.5525  -12.6291    8.9578 H         1 UNL1        0.0000
@<TRIPOS>BOND
     1    1   18 1
     2    1   21 1
     3    1   17 am
     4    2   19 1
     5    2   20 1
     6    2   22 am
     7    3    4 1
     8    3   12 2
     9    4    5 am
    10    4   55 1
    11    5   29 2
    12    5    6 1
    13    6    7 ar
    14    6   11 ar
    15    7    8 ar
    16    7   33 1
    17    8   34 1
    18    8    9 ar
    19    9   10 ar
    20    9   35 1
    21   10   11 ar
    22   10   36 1
    23   11   12 1
    24   12   13 1
    25   13   37 1
    26   13   38 1
    27   13   14 1
    28   14   15 ar
    29   14   28 ar
    30   15   39 1
    31   15   16 ar
    32   16   26 ar
    33   16   17 1
    34   17   31 2
    35   18   19 1
    36   18   40 1
    37   18   41 1
    38   19   42 1
    39   19   43 1
    40   20   21 1
    41   20   45 1
    42   20   44 1
    43   21   46 1
    44   21   47 1
    45   22   30 2
    46   22   23 1
    47   23   25 1
    48   23   24 1
    49   23   48 1
    50   24   25 1
    51   24   49 1
    52   24   50 1
    53   25   51 1
    54   25   52 1
    55   26   27 ar
    56   26   32 1
    57   27   28 ar
    58   27   53 1
    59   28   54 1
@<TRIPOS>SUBSTRUCTURE
1 UNL1 1
@<TRIPOS>COMMENT
Olaparib
PLANTSproteinTorsions
70
3 117.7429
48 186.3910
123 302.5562
171 105.8831
348 94.4770
606 35.9800
632 24.4904
655 185.0280
678 31.6801
700 212.0498
773 143.3045
807 1.2732
891 157.6680
933 135.3625
999 37.7654
1020 115.9615
1361 44.3839
1371 5.6039
1544 190.6605
1649 76.3817
1689 48.9347
1736 48.7213
1771 193.5641
2012 21.3669
2070 259.0266
2082 235.2464
2147 15.9277
2300 57.2734
2527 148.3414
2551 201.2503
2605 0.6310
2653 89.7127
2739 41.8972
2807 238.2000
2841 163.1811
2875 318.0215
2885 153.0381
2915 169.4764
3074 225.2330
3130 23.3331
3421 67.6187
3586 31.0805
3784 46.1288
3818 93.8231
3881 101.4692
3933 161.5835
4033 345.4558
4046 176.8964
4094 260.0662
4145 35.1020
4208 62.9517
4235 135.8702
4332 156.0075
4568 97.2780
4685 271.1066
4749 40.9376
4805 196.8721
4858 25.0907
4871 82.5135
4945 219.6951
4999 82.0964
5010 330.9350
5106 218.8791
5130 183.0892
5249 164.1602
5258 117.2018
5318 221.8064
5369 265.9576
5589 108.9605
5645 302.0134
PLANTSmolcadARTstart hb
PLANTSmolcadARTstart HB
LINES
15.0162 -6.573 15.571 14.939 -7.462 16.94 0 255 0 5
PLANTSmolcadARTstart HBCH
LINES
PLANTSmolcadARTstart HB-CHO
LINES
PLANTSmolcadARTend
PLANTSmolcadARTstart HB_WATER
LINES
PLANTSmolcadARTend

PLANTSmolcadARTend

