@<TRIPOS>MOLECULE
Olaparib_entry_00001_conf_98_protein
188 118 70
SMALL
NO_CHARGES


@<TRIPOS>ATOM
      1 H         -19.8783    9.4347   10.2877 H       223 ASP223      0.0000
      2 N         -20.6100    9.4850   10.9640 N.4     223 ASP223      1.0000
      3 H2        -21.1266    8.6325   10.9655 H       223 ASP223      0.0000
      4 H3        -21.2162   10.2460   10.7484 H       223 ASP223      0.0000
      5 HG1       -23.4512    4.7100   15.9114 H       226 THR226      0.0000
      6 OG1       -23.6480    5.6080   15.5080 O.3     226 THR226      0.0000
      7 HH        -28.1555    2.5684   18.3552 H       230 TYR230      0.0000
      8 OH        -27.8370    3.0600   17.5440 O.3     230 TYR230      0.0000
      9 HG        -16.7038   -2.9868   12.9889 H       233 SER233      0.0000
     10 OG        -15.9490   -2.4540   12.6070 O.3     233 SER233      0.0000
     11 HZ1        -8.2271    5.3337    9.0800 H       243 LYS243      0.0000
     12 NZ         -8.7810    4.7010    8.5470 N.4     243 LYS243      1.0000
     13 HZ2        -9.1504    5.1595    7.7444 H       243 LYS243      0.0000
     14 HZ3        -9.5210    4.3368    9.1059 H       243 LYS243      0.0000
     15 HZ1        22.9380   10.2630   -0.1109 H       259 LYS259      0.0000
     16 NZ         22.3540    9.4710   -0.2580 N.4     259 LYS259      1.0000
     17 HZ2        21.8200    9.2779    0.5579 H       259 LYS259      0.0000
     18 HZ3        22.9006    8.6794   -0.5103 H       259 LYS259      0.0000
     19 HH         15.0166   -4.3003   -2.5892 H       260 TYR260      0.0000
     20 OH         15.3870   -3.7430   -3.3350 O.3     260 TYR260      0.0000
     21 HG1        12.5327    3.3431   -5.8027 H       262 THR262      0.0000
     22 OG1        11.6660    3.1790   -5.3180 O.3     262 THR262      0.0000
     23 HZ1         8.9644    5.3221   -7.8317 H       263 LYS263      0.0000
     24 NZ          9.6700    5.6550   -8.4530 N.4     263 LYS263      1.0000
     25 HZ2        10.5722    5.5119   -8.0517 H       263 LYS263      0.0000
     26 HZ3         9.5299    6.6242   -8.6382 H       263 LYS263      0.0000
     27 HZ1        21.0752   -1.3937  -10.0761 H       264 LYS264      0.0000
     28 NZ         21.2250   -1.7280  -11.0010 N.4     264 LYS264      1.0000
     29 HZ2        21.8375   -2.5117  -10.9897 H       264 LYS264      0.0000
     30 HZ3        21.6007   -1.0047  -11.5726 H       264 LYS264      0.0000
     31 HZ1         7.9950   -5.5763   -9.0557 H       269 LYS269      0.0000
     32 NZ          7.3110   -6.1790   -9.4530 N.4     269 LYS269      1.0000
     33 HZ2         6.8469   -5.7261  -10.2073 H       269 LYS269      0.0000
     34 HZ3         6.6537   -6.4592   -8.7614 H       269 LYS269      0.0000
     35 HG1        15.1161  -11.9417   -2.5793 H       271 THR271      0.0000
     36 OG1        14.9200  -12.8790   -2.2680 O.3     271 THR271      0.0000
     37 HZ1        22.1067  -18.5717    3.9256 H       276 LYS276      0.0000
     38 NZ         22.5510  -17.9540    4.5780 N.4     276 LYS276      1.0000
     39 HZ2        23.3585  -18.4063    4.9635 H       276 LYS276      0.0000
     40 HZ3        21.9093  -17.7391    5.3165 H       276 LYS276      0.0000
     41 HH         20.1158   -6.4502    8.6847 H       279 TYR279      0.0000
     42 OH         19.8080   -7.2760    8.2120 O.3     279 TYR279      0.0000
     43 HZ1        34.4393  -12.4437    8.4298 H       283 LYS283      0.0000
     44 NZ         33.9490  -11.9430    7.7200 N.4     283 LYS283      1.0000
     45 HZ2        33.7470  -12.5476    6.9541 H       283 LYS283      0.0000
     46 HZ3        34.4958  -11.1695    7.4090 H       283 LYS283      0.0000
     47 HZ1        30.9816  -11.1573   -2.3905 H       284 LYS284      0.0000
     48 NZ         31.2280  -12.1170   -2.2610 N.4     284 LYS284      1.0000
     49 HZ2        31.5527  -12.5007   -3.1240 H       284 LYS284      0.0000
     50 HZ3        30.4308  -12.6289   -1.9434 H       284 LYS284      0.0000
     51 HH         26.9910    2.9737   -1.2697 H       306 TYR306      0.0000
     52 OH         27.7740    2.7440   -1.8460 O.3     306 TYR306      0.0000
     53 HG1        26.9150   -5.5268   -9.7866 H       307 THR307      0.0000
     54 OG1        26.3120   -4.9350   -9.2430 O.3     307 THR307      0.0000
     55 HG1        32.5637    8.8003  -10.2347 H       317 THR317      0.0000
     56 OG1        31.8950    9.2350   -9.6220 O.3     317 THR317      0.0000
     57 HG1        32.2643    5.8246    6.6386 H       323 THR323      0.0000
     58 OG1        32.4070    5.6740    7.6230 O.3     323 THR323      0.0000
     59 HZ1        29.3061    7.9495    7.2729 H       325 LYS325      0.0000
     60 NZ         29.1610    8.9330    7.2460 N.4     325 LYS325      1.0000
     61 HZ2        28.5155    9.1678    6.5259 H       325 LYS325      0.0000
     62 HZ3        30.0246    9.4067    7.1049 H       325 LYS325      0.0000
     63 HG         25.3373    2.4648   12.4894 H       328 SER328      0.0000
     64 OG         25.1580    2.2890   11.5220 O.3     328 SER328      0.0000
     65 HZ1        23.2684    2.3112    0.7301 H       330 LYS330      0.0000
     66 NZ         23.5180    3.0260    1.3810 N.4     330 LYS330      1.0000
     67 HZ2        22.6920    3.4361    1.7642 H       330 LYS330      0.0000
     68 HZ3        24.0606    3.7267    0.9207 H       330 LYS330      0.0000
     69 HZ1         8.5078  -13.3277    1.8317 H       345 LYS345      0.0000
     70 NZ          8.3930  -14.1050    2.4430 N.4     345 LYS345      1.0000
     71 HZ2         8.8025  -13.9084    3.3295 H       345 LYS345      0.0000
     72 HZ3         8.8077  -14.9188    2.0458 H       345 LYS345      0.0000
     73 HZ1         2.0332  -13.6449   -0.9694 H       348 LYS348      0.0000
     74 NZ          2.7670  -12.9680   -0.9450 N.4     348 LYS348      1.0000
     75 HZ2         3.1745  -12.8809   -1.8520 H       348 LYS348      0.0000
     76 HZ3         3.4645  -13.2501   -0.2876 H       348 LYS348      0.0000
     77 HG1        -7.0019   -7.5015    0.8746 H       349 THR349      0.0000
     78 OG1        -6.3420   -8.2570    0.9570 O.3     349 THR349      0.0000
     79 HG        -11.7190  -11.7236    5.9823 H       353 SER353      0.0000
     80 OG        -11.8450  -12.6320    5.5800 O.3     353 SER353      0.0000
     81 HH         -4.8324   -5.1943   19.9228 H       362 TYR362      0.0000
     82 OH         -4.7470   -6.1480   19.6250 O.3     362 TYR362      0.0000
     83 HG         -2.7018    5.6647   32.2601 H       376 SER376      0.0000
     84 OG         -3.5570    5.9650   31.8460 O.3     376 SER376      0.0000
     85 HH          3.4197    5.7446   40.3863 H       377 TYR377      0.0000
     86 OH          3.4610    6.1200   39.4630 O.3     377 TYR377      0.0000
     87 HZ1         2.6915   10.4350   39.1292 H       380 LYS380      0.0000
     88 NZ          2.3270   11.2610   38.6950 N.4     380 LYS380      1.0000
     89 HZ2         3.0020   11.9978   38.7695 H       380 LYS380      0.0000
     90 HZ3         1.4862   11.5364   39.1643 H       380 LYS380      0.0000
     91 HG          1.2864   11.9835   29.1598 H       383 SER383      0.0000
     92 OG          2.1950   11.6230   28.9400 O.3     383 SER383      0.0000
     93 HG         11.0594   11.9901   32.4185 H       388 SER388      0.0000
     94 OG         11.5430   12.3570   33.2060 O.3     388 SER388      0.0000
     95 HG1        23.3155   15.3593   24.6671 H       393 THR393      0.0000
     96 OG1        22.9410   15.5890   23.7600 O.3     393 THR393      0.0000
     97 HG         19.8309   21.7846   21.7467 H       395 SER395      0.0000
     98 OG         19.0240   21.7000   21.1650 O.3     395 SER395      0.0000
     99 HH         14.8894   13.0382   20.6828 H       397 TYR397      0.0000
    100 OH         14.8710   12.9690   19.6890 O.3     397 TYR397      0.0000
    101 HG1         7.7412   20.0085   21.6426 H       398 THR398      0.0000
    102 OG1         8.6220   20.0310   21.1580 O.3     398 THR398      0.0000
    103 HG1         3.2671   18.5353   21.7367 H       400 THR400      0.0000
    104 OG1         3.9170   17.8990   21.3100 O.3     400 THR400      0.0000
    105 HZ1         3.7245  -10.7248   17.7454 H       409 LYS409      0.0000
    106 NZ          4.4340  -11.4210   17.6290 N.4     409 LYS409      1.0000
    107 HZ2         4.8969  -11.2797   16.7529 H       409 LYS409      0.0000
    108 HZ3         4.0119  -12.3291   17.6384 H       409 LYS409      0.0000
    109 HZ1         2.2489  -10.9461   32.3830 H       413 LYS413      0.0000
    110 NZ          1.6780  -11.4650   33.0130 N.4     413 LYS413      1.0000
    111 HZ2         0.8029  -11.0060   33.1401 H       413 LYS413      0.0000
    112 HZ3         2.1404  -11.5690   33.8890 H       413 LYS413      0.0000
    113 HG         14.1643   -0.0938   14.4641 H       430 SER430      0.0000
    114 OG         13.4130    0.4260   14.0760 O.3     430 SER430      0.0000
    115 HG          5.9968   -9.4573   11.4510 H       440 SER440      0.0000
    116 OG          5.9710   -8.9830   12.3290 O.3     440 SER440      0.0000
    117 HG1        32.9045   -3.0195   10.2103 H       453 THR453      0.0000
    118 OG1        32.1320   -2.9810   10.8570 O.3     453 THR453      0.0000
    119 HH         22.4834   -4.9908   12.3575 H       455 TYR455      0.0000
    120 OH         23.2810   -5.5850   12.3310 O.3     455 TYR455      0.0000
    121 HZ1        27.4675  -10.2693   12.1664 H       459 LYS459      0.0000
    122 NZ         26.6110  -10.3810   12.6630 N.4     459 LYS459      1.0000
    123 HZ2        26.6089  -11.2493   13.1518 H       459 LYS459      0.0000
    124 HZ3        25.8417  -10.3421   12.0315 H       459 LYS459      0.0000
    125 HH         26.2358   -2.7766   20.7831 H       462 TYR462      0.0000
    126 OH         25.6260   -2.9400   20.0150 O.3     462 TYR462      0.0000
    127 HZ1        23.7980    6.7378   24.8282 H       469 LYS469      0.0000
    128 NZ         23.5700    5.9180   24.3040 N.4     469 LYS469      1.0000
    129 HZ2        23.3126    5.1807   24.9273 H       469 LYS469      0.0000
    130 HZ3        24.3595    5.6373   23.7597 H       469 LYS469      0.0000
    131 HG         16.5469    5.1228   23.4253 H       470 SER470      0.0000
    132 OG         15.8020    4.6360   22.9740 O.3     470 SER470      0.0000
    133 HH         22.8839    5.3792   17.0178 H       473 TYR473      0.0000
    134 OH         22.3100    5.5040   17.8300 O.3     473 TYR473      0.0000
    135 HG         10.5228   13.6532    8.4122 H       477 SER477      0.0000
    136 OG         11.1460   14.2360    7.8940 O.3     477 SER477      0.0000
    137 HZ1         4.3222   11.2134    4.9786 H       480 LYS480      0.0000
    138 NZ          5.0820   11.8220    4.7460 N.4     480 LYS480      1.0000
    139 HZ2         5.1515   12.5444    5.4348 H       480 LYS480      0.0000
    140 HZ3         4.9168   12.2324    3.8486 H       480 LYS480      0.0000
    141 HG1         2.0624   11.8767   13.8411 H       482 THR482      0.0000
    142 OG1         2.7330   12.0500   13.1080 O.3     482 THR482      0.0000
    143 HG         10.0228   -2.0079   24.7195 H       488 SER488      0.0000
    144 OG         10.3440   -2.9460   24.8140 O.3     488 SER488      0.0000
    145 HZ1        37.0259   -7.2481   17.0338 H       504 LYS504      0.0000
    146 NZ         37.6760   -7.8080   17.5340 N.4     504 LYS504      1.0000
    147 HZ2        37.8692   -7.4106   18.4233 H       504 LYS504      0.0000
    148 HZ3        38.5133   -7.9233   17.0130 H       504 LYS504      0.0000
    149 HZ1        29.9428   -6.1831   35.5676 H       512 LYS512      0.0000
    150 NZ         30.3650   -6.7700   36.2570 N.4     512 LYS512      1.0000
    151 HZ2        30.1004   -6.4609   37.1691 H       512 LYS512      0.0000
    152 HZ3        31.3594   -6.7355   36.1647 H       512 LYS512      0.0000
    153 HZ1        23.6158    3.4252   34.8777 H       516 LYS516      0.0000
    154 NZ         24.0380    2.5320   34.7210 N.4     516 LYS516      1.0000
    155 HZ2        23.4027    1.8104   34.9941 H       516 LYS516      0.0000
    156 HZ3        24.8770    2.4599   35.2611 H       516 LYS516      0.0000
    157 HZ1        30.0128   14.8338   26.2278 H       520 LYS520      0.0000
    158 NZ         30.6520   14.1570   26.5930 N.4     520 LYS520      1.0000
    159 HZ2        31.5887   14.4291   26.3737 H       520 LYS520      0.0000
    160 HZ3        30.4604   13.2629   26.1885 H       520 LYS520      0.0000
    161 HG         18.0700   11.2994   39.8210 H       524 SER524      0.0000
    162 OG         18.8770   11.4400   40.3940 O.3     524 SER524      0.0000
    163 HG         19.1291    7.2332   43.7396 H       525 SER525      0.0000
    164 OG         19.6990    6.6420   43.1690 O.3     525 SER525      0.0000
    165 HG1         7.9277   -0.2038   42.3744 H       530 THR530      0.0000
    166 OG1         7.6550    0.4270   41.6380 O.3     530 THR530      0.0000
    167 HG         10.5292   -4.0563   34.4029 H       534 SER534      0.0000
    168 OG          9.6090   -3.6750   34.4630 O.3     534 SER534      0.0000
    169 HG1        14.3865   -0.0103   39.6717 H       535 THR535      0.0000
    170 OG1        13.6020   -0.2690   39.0930 O.3     535 THR535      0.0000
    171 HG         21.3782   13.0432   37.6710 H       542 SER542      0.0000
    172 OG         22.1280   13.5570   38.0820 O.3     542 SER542      0.0000
    173 HG1        28.3688    8.8122   33.7836 H       544 THR544      0.0000
    174 OG1        28.0730    9.6670   34.2240 O.3     544 THR544      0.0000
    175 HH         38.5193   13.6119   18.4684 H       552 TYR552      0.0000
    176 OH         38.7990   13.4190   19.4090 O.3     552 TYR552      0.0000
    177 HG1        34.7410   10.5016   27.6802 H       553 THR553      0.0000
    178 OG1        34.2910    9.6820   28.0520 O.3     553 THR553      0.0000
    179 HH         23.2971   15.3884   26.1076 H       556 TYR556      0.0000
    180 OH         22.3900   15.0220   26.3220 O.3     556 TYR556      0.0000
    181 HH         21.6567    2.9412   33.1444 H       559 TYR559      0.0000
    182 OH         20.7160    2.6790   32.9500 O.3     559 TYR559      0.0000
    183 HH          3.0307    0.2102   32.4983 H       571 TYR571      0.0000
    184 OH          2.2400    0.1330   31.8950 O.3     571 TYR571      0.0000
    185 HZ1        -2.0911    7.8029   14.1577 H       574 LYS574      0.0000
    186 NZ         -2.0400    8.5440   14.8270 N.4     574 LYS574      1.0000
    187 HZ2        -2.5861    8.3071   15.6299 H       574 LYS574      0.0000
    188 HZ3        -2.3905    9.3872   14.4206 H       574 LYS574      0.0000
@<TRIPOS>BOND
     1    2    1 1
     2    2    4 1
     3    2    3 1
     4    6    5 1
     5    8    7 1
     6   10    9 1
     7   12   11 1
     8   12   13 1
     9   12   14 1
    10   16   15 1
    11   16   17 1
    12   16   18 1
    13   20   19 1
    14   22   21 1
    15   24   26 1
    16   24   23 1
    17   24   25 1
    18   28   27 1
    19   28   30 1
    20   28   29 1
    21   32   33 1
    22   32   34 1
    23   32   31 1
    24   36   35 1
    25   38   37 1
    26   38   39 1
    27   38   40 1
    28   42   41 1
    29   44   43 1
    30   44   45 1
    31   44   46 1
    32   48   47 1
    33   48   49 1
    34   48   50 1
    35   52   51 1
    36   54   53 1
    37   56   55 1
    38   58   57 1
    39   60   61 1
    40   60   59 1
    41   60   62 1
    42   64   63 1
    43   66   65 1
    44   66   68 1
    45   66   67 1
    46   70   69 1
    47   70   71 1
    48   70   72 1
    49   74   73 1
    50   74   75 1
    51   74   76 1
    52   78   77 1
    53   80   79 1
    54   82   81 1
    55   84   83 1
    56   86   85 1
    57   88   87 1
    58   88   89 1
    59   88   90 1
    60   92   91 1
    61   94   93 1
    62   96   95 1
    63   98   97 1
    64  100   99 1
    65  102  101 1
    66  104  103 1
    67  106  107 1
    68  106  108 1
    69  106  105 1
    70  110  109 1
    71  110  112 1
    72  110  111 1
    73  114  113 1
    74  116  115 1
    75  118  117 1
    76  120  119 1
    77  122  121 1
    78  122  123 1
    79  122  124 1
    80  126  125 1
    81  128  127 1
    82  128  129 1
    83  128  130 1
    84  132  131 1
    85  134  133 1
    86  136  135 1
    87  138  137 1
    88  138  140 1
    89  138  139 1
    90  142  141 1
    91  144  143 1
    92  146  147 1
    93  146  145 1
    94  146  148 1
    95  150  151 1
    96  150  149 1
    97  150  152 1
    98  154  153 1
    99  154  155 1
   100  154  156 1
   101  158  157 1
   102  158  159 1
   103  158  160 1
   104  162  161 1
   105  164  163 1
   106  166  165 1
   107  168  167 1
   108  170  169 1
   109  172  171 1
   110  174  173 1
   111  176  175 1
   112  178  177 1
   113  180  179 1
   114  182  181 1
   115  184  183 1
   116  186  185 1
   117  186  188 1
   118  186  187 1
@<TRIPOS>SUBSTRUCTURE
223 ASP223 1
226 THR226 5
230 TYR230 7
233 SER233 9
243 LYS243 11
259 LYS259 15
260 TYR260 19
262 THR262 21
263 LYS263 23
264 LYS264 27
269 LYS269 31
271 THR271 35
276 LYS276 37
279 TYR279 41
283 LYS283 43
284 LYS284 47
306 TYR306 51
307 THR307 53
317 THR317 55
323 THR323 57
325 LYS325 59
328 SER328 63
330 LYS330 65
345 LYS345 69
348 LYS348 73
349 THR349 77
353 SER353 79
362 TYR362 81
376 SER376 83
377 TYR377 85
380 LYS380 87
383 SER383 91
388 SER388 93
393 THR393 95
395 SER395 97
397 TYR397 99
398 THR398 101
400 THR400 103
409 LYS409 105
413 LYS413 109
430 SER430 113
440 SER440 115
453 THR453 117
455 TYR455 119
459 LYS459 121
462 TYR462 125
469 LYS469 127
470 SER470 131
473 TYR473 133
477 SER477 135
480 LYS480 137
482 THR482 141
488 SER488 143
504 LYS504 145
512 LYS512 149
516 LYS516 153
520 LYS520 157
524 SER524 161
525 SER525 163
530 THR530 165
534 SER534 167
535 THR535 169
542 SER542 171
544 THR544 173
552 TYR552 175
553 THR553 177
556 TYR556 179
559 TYR559 181
571 TYR571 183
574 LYS574 185
@<TRIPOS>COMMENT
