@<TRIPOS>MOLECULE
Olaparib_entry_00001_conf_82
55 59 1
SMALL
NO_CHARGES


@<TRIPOS>ATOM
      1 N          15.6029   -9.8578    9.9309 N.am      1 UNL1        0.0000
      2 N          16.5011   -7.5414   10.6898 N.am      1 UNL1        0.0000
      3 N          16.7991  -17.3882   11.5914 N.2       1 UNL1        0.0000
      4 N          17.4766  -18.2879   12.2622 N.am      1 UNL1        0.0000
      5 C          18.7554  -18.5919   11.9995 C.2       1 UNL1        0.0000
      6 C          19.3976  -17.9297   10.9735 C.ar      1 UNL1        0.0000
      7 C          20.7220  -18.2216   10.6449 C.ar      1 UNL1        0.0000
      8 C          21.3365  -17.5625    9.6020 C.ar      1 UNL1        0.0000
      9 C          20.5843  -16.6271    8.9236 C.ar      1 UNL1        0.0000
     10 C          19.2694  -16.3277    9.2385 C.ar      1 UNL1        0.0000
     11 C          18.6714  -16.9836   10.2738 C.ar      1 UNL1        0.0000
     12 C          17.3656  -16.6884   10.5606 C.2       1 UNL1        0.0000
     13 C          16.5257  -15.6715    9.9413 C.3       1 UNL1        0.0000
     14 C          16.5610  -14.4103   10.7321 C.ar      1 UNL1        0.0000
     15 C          15.7728  -13.3590   10.2309 C.ar      1 UNL1        0.0000
     16 C          15.7480  -12.1511   10.8860 C.ar      1 UNL1        0.0000
     17 C          14.9312  -11.0243   10.3814 C.2       1 UNL1        0.0000
     18 C          14.8496   -8.7525    9.4330 C.3       1 UNL1        0.0000
     19 C          15.5731   -7.4328    9.5944 C.3       1 UNL1        0.0000
     20 C          17.5819   -8.5235   10.5512 C.3       1 UNL1        0.0000
     21 C          17.0523   -9.8171    9.9877 C.3       1 UNL1        0.0000
     22 C          16.3963   -6.7582   11.8431 C.2       1 UNL1        0.0000
     23 C          15.3724   -5.7514   12.1345 C.3       1 UNL1        0.0000
     24 C          15.8753   -4.4061   12.6070 C.3       1 UNL1        0.0000
     25 C          15.1372   -5.2778   13.5238 C.3       1 UNL1        0.0000
     26 C          16.4643  -11.8998   12.0321 C.ar      1 UNL1        0.0000
     27 C          17.2355  -12.9296   12.5218 C.ar      1 UNL1        0.0000
     28 C          17.2639  -14.1630   11.8553 C.ar      1 UNL1        0.0000
     29 O          19.4220  -19.4504   12.6323 O.2       1 UNL1        0.0000
     30 O          17.2812   -6.9241   12.7567 O.2       1 UNL1        0.0000
     31 O          13.6802  -11.0715   10.3414 O.2       1 UNL1        0.0000
     32 F          16.4068  -10.6821   12.6457 F         1 UNL1        0.0000
     33 H          21.2424  -18.9313   11.1837 H         1 UNL1        0.0000
     34 H          22.3142  -17.7606    9.3408 H         1 UNL1        0.0000
     35 H          21.0250  -16.1232    8.1386 H         1 UNL1        0.0000
     36 H          18.7491  -15.6185    8.6983 H         1 UNL1        0.0000
     37 H          15.5181  -16.0286    9.8927 H         1 UNL1        0.0000
     38 H          16.8953  -15.4707    8.9573 H         1 UNL1        0.0000
     39 H          15.2150  -13.4939    9.3735 H         1 UNL1        0.0000
     40 H          13.9224   -8.7025    9.9652 H         1 UNL1        0.0000
     41 H          14.6964   -8.9115    8.3855 H         1 UNL1        0.0000
     42 H          14.8649   -6.6574    9.7982 H         1 UNL1        0.0000
     43 H          16.1005   -7.1960    8.6937 H         1 UNL1        0.0000
     44 H          18.0146   -8.7099   11.5117 H         1 UNL1        0.0000
     45 H          18.3208   -8.1334    9.8827 H         1 UNL1        0.0000
     46 H          17.3913  -10.6229   10.6048 H         1 UNL1        0.0000
     47 H          17.4147   -9.9027    8.9854 H         1 UNL1        0.0000
     48 H          14.7320   -6.1323   11.3669 H         1 UNL1        0.0000
     49 H          15.4232   -3.5074   12.2421 H         1 UNL1        0.0000
     50 H          16.8274   -3.9181   12.6267 H         1 UNL1        0.0000
     51 H          14.1489   -5.0074   13.8326 H         1 UNL1        0.0000
     52 H          15.3368   -5.6802   14.4940 H         1 UNL1        0.0000
     53 H          17.7928  -12.7934   13.3803 H         1 UNL1        0.0000
     54 H          17.8508  -14.9184   12.2435 H         1 UNL1        0.0000
     55 H          17.0235  -18.7636   12.9959 H         1 UNL1        0.0000
@<TRIPOS>BOND
     1    1   18 1
     2    1   21 1
     3    1   17 am
     4    2   19 1
     5    2   20 1
     6    2   22 am
     7    3    4 1
     8    3   12 2
     9    4    5 am
    10    4   55 1
    11    5   29 2
    12    5    6 1
    13    6    7 ar
    14    6   11 ar
    15    7    8 ar
    16    7   33 1
    17    8   34 1
    18    8    9 ar
    19    9   10 ar
    20    9   35 1
    21   10   11 ar
    22   10   36 1
    23   11   12 1
    24   12   13 1
    25   13   37 1
    26   13   38 1
    27   13   14 1
    28   14   15 ar
    29   14   28 ar
    30   15   39 1
    31   15   16 ar
    32   16   26 ar
    33   16   17 1
    34   17   31 2
    35   18   19 1
    36   18   40 1
    37   18   41 1
    38   19   42 1
    39   19   43 1
    40   20   21 1
    41   20   45 1
    42   20   44 1
    43   21   46 1
    44   21   47 1
    45   22   30 2
    46   22   23 1
    47   23   25 1
    48   23   24 1
    49   23   48 1
    50   24   25 1
    51   24   49 1
    52   24   50 1
    53   25   51 1
    54   25   52 1
    55   26   27 ar
    56   26   32 1
    57   27   28 ar
    58   27   53 1
    59   28   54 1
@<TRIPOS>SUBSTRUCTURE
1 UNL1 1
@<TRIPOS>COMMENT
Olaparib
PLANTSproteinTorsions
70
3 91.8809
48 229.5681
123 258.1345
171 355.6538
348 82.4959
606 10.7118
632 232.1092
655 9.3267
678 61.6959
700 337.0947
773 156.7737
807 75.0444
891 159.3186
933 171.3190
999 315.8114
1020 99.0347
1361 133.7101
1371 164.2906
1544 156.9837
1649 44.9334
1689 15.1767
1736 192.1057
1771 79.3277
2012 12.9130
2070 63.1429
2082 163.6044
2147 225.8378
2300 132.9596
2527 145.5717
2551 85.9140
2605 203.1025
2653 23.7836
2739 98.5724
2807 152.5546
2841 256.6621
2875 19.9245
2885 190.0848
2915 92.9499
3074 142.0412
3130 253.2998
3421 83.7959
3586 305.8206
3784 259.4375
3818 91.3533
3881 110.0890
3933 204.5593
4033 70.6335
4046 219.8459
4094 201.1583
4145 256.5826
4208 141.9844
4235 88.5724
4332 122.9901
4568 241.0178
4685 252.4633
4749 28.6406
4805 89.8786
4858 229.8000
4871 16.2182
4945 240.2533
4999 245.2102
5010 157.6841
5106 258.0423
5130 277.9835
5249 216.5724
5258 208.3731
5318 116.6728
5369 77.4909
5589 313.8417
5645 192.1189
PLANTSmolcadARTstart hb
PLANTSmolcadARTstart HB
LINES
13.6802 -11.0715 10.3414 13.06 -9.621 11.732 0 255 0 5
PLANTSmolcadARTstart HBCH
LINES
PLANTSmolcadARTstart HB-CHO
LINES
PLANTSmolcadARTend
PLANTSmolcadARTstart HB_WATER
LINES
PLANTSmolcadARTend

PLANTSmolcadARTend

