@<TRIPOS>MOLECULE
Olaparib_entry_00001_conf_06
55 59 1
SMALL
NO_CHARGES


@<TRIPOS>ATOM
      1 N          16.4574   -7.3705   11.4898 N.am      1 UNL1        0.0000
      2 N          16.3134   -5.9375   13.6518 N.am      1 UNL1        0.0000
      3 N          16.9518  -12.8806   14.2573 N.2       1 UNL1        0.0000
      4 N          17.4368  -13.0648   15.4612 N.am      1 UNL1        0.0000
      5 C          16.7285  -13.6012   16.4649 C.2       1 UNL1        0.0000
      6 C          15.4233  -13.9806   16.2273 C.ar      1 UNL1        0.0000
      7 C          14.6352  -14.5255   17.2417 C.ar      1 UNL1        0.0000
      8 C          13.3272  -14.8774   16.9869 C.ar      1 UNL1        0.0000
      9 C          12.8598  -14.6629   15.7075 C.ar      1 UNL1        0.0000
     10 C          13.6305  -14.1229   14.6915 C.ar      1 UNL1        0.0000
     11 C          14.9243  -13.7804   14.9534 C.ar      1 UNL1        0.0000
     12 C          15.6669  -13.2315   13.9426 C.2       1 UNL1        0.0000
     13 C          15.2733  -13.0354   12.5535 C.3       1 UNL1        0.0000
     14 C          16.1814  -12.0636   11.8840 C.ar      1 UNL1        0.0000
     15 C          15.6440  -10.7821   11.6681 C.ar      1 UNL1        0.0000
     16 C          16.4024   -9.8187   11.0473 C.ar      1 UNL1        0.0000
     17 C          15.8638   -8.4617   10.8027 C.2       1 UNL1        0.0000
     18 C          15.9686   -6.0467   11.2763 C.3       1 UNL1        0.0000
     19 C          16.2137   -5.1358   12.4600 C.3       1 UNL1        0.0000
     20 C          17.4157   -6.9034   13.7135 C.3       1 UNL1        0.0000
     21 C          17.5569   -7.6297   12.4006 C.3       1 UNL1        0.0000
     22 C          15.4120   -5.8193   14.7138 C.2       1 UNL1        0.0000
     23 C          14.2595   -4.9181   14.7952 C.3       1 UNL1        0.0000
     24 C          14.4771   -3.5099   14.2894 C.3       1 UNL1        0.0000
     25 C          14.2621   -3.7524   15.7178 C.3       1 UNL1        0.0000
     26 C          17.6887  -10.0351   10.6131 C.ar      1 UNL1        0.0000
     27 C          18.2137  -11.2899   10.8249 C.ar      1 UNL1        0.0000
     28 C          17.4423  -12.2756   11.4571 C.ar      1 UNL1        0.0000
     29 O          17.1763  -13.7870   17.6254 O.2       1 UNL1        0.0000
     30 O          15.5954   -6.5724   15.7358 O.2       1 UNL1        0.0000
     31 O          14.9117   -8.2526   10.0164 O.2       1 UNL1        0.0000
     32 F          18.4011   -9.0451   10.0007 F         1 UNL1        0.0000
     33 H          15.0321  -14.6658   18.1839 H         1 UNL1        0.0000
     34 H          12.7255  -15.2822   17.7200 H         1 UNL1        0.0000
     35 H          11.8830  -14.9182   15.4960 H         1 UNL1        0.0000
     36 H          13.2324  -13.9817   13.7497 H         1 UNL1        0.0000
     37 H          14.2713  -12.6611   12.5207 H         1 UNL1        0.0000
     38 H          15.3354  -13.9730   12.0413 H         1 UNL1        0.0000
     39 H          14.6829  -10.5659   11.9746 H         1 UNL1        0.0000
     40 H          14.9152   -6.0959   11.0939 H         1 UNL1        0.0000
     41 H          16.4964   -5.6384   10.4392 H         1 UNL1        0.0000
     42 H          15.4016   -4.4463   12.5570 H         1 UNL1        0.0000
     43 H          17.1214   -4.5878   12.3140 H         1 UNL1        0.0000
     44 H          17.2191   -7.6140   14.4887 H         1 UNL1        0.0000
     45 H          18.3256   -6.3781   13.9163 H         1 UNL1        0.0000
     46 H          17.5974   -8.6814   12.5945 H         1 UNL1        0.0000
     47 H          18.4508   -7.2759   11.9326 H         1 UNL1        0.0000
     48 H          13.5758   -5.7233   14.6263 H         1 UNL1        0.0000
     49 H          13.7192   -3.0268   13.7084 H         1 UNL1        0.0000
     50 H          15.2319   -3.0223   13.7086 H         1 UNL1        0.0000
     51 H          13.3489   -3.4371   16.1778 H         1 UNL1        0.0000
     52 H          14.8026   -3.5044   16.6064 H         1 UNL1        0.0000
     53 H          19.1760  -11.5048   10.5182 H         1 UNL1        0.0000
     54 H          17.8598  -13.2082   11.6033 H         1 UNL1        0.0000
     55 H          18.3679  -12.7962   15.6366 H         1 UNL1        0.0000
@<TRIPOS>BOND
     1    1   18 1
     2    1   21 1
     3    1   17 am
     4    2   19 1
     5    2   20 1
     6    2   22 am
     7    3    4 1
     8    3   12 2
     9    4    5 am
    10    4   55 1
    11    5   29 2
    12    5    6 1
    13    6    7 ar
    14    6   11 ar
    15    7    8 ar
    16    7   33 1
    17    8   34 1
    18    8    9 ar
    19    9   10 ar
    20    9   35 1
    21   10   11 ar
    22   10   36 1
    23   11   12 1
    24   12   13 1
    25   13   37 1
    26   13   38 1
    27   13   14 1
    28   14   15 ar
    29   14   28 ar
    30   15   39 1
    31   15   16 ar
    32   16   26 ar
    33   16   17 1
    34   17   31 2
    35   18   19 1
    36   18   40 1
    37   18   41 1
    38   19   42 1
    39   19   43 1
    40   20   21 1
    41   20   45 1
    42   20   44 1
    43   21   46 1
    44   21   47 1
    45   22   30 2
    46   22   23 1
    47   23   25 1
    48   23   24 1
    49   23   48 1
    50   24   25 1
    51   24   49 1
    52   24   50 1
    53   25   51 1
    54   25   52 1
    55   26   27 ar
    56   26   32 1
    57   27   28 ar
    58   27   53 1
    59   28   54 1
@<TRIPOS>SUBSTRUCTURE
1 UNL1 1
@<TRIPOS>COMMENT
Olaparib
PLANTSproteinTorsions
70
3 36.1395
48 249.8800
123 19.7431
171 323.0417
348 90.7849
606 213.6543
632 260.8403
655 68.1951
678 89.2964
700 41.7399
773 3.3857
807 142.6544
891 234.4926
933 196.7717
999 138.5411
1020 46.9237
1361 175.0851
1371 249.7934
1544 68.0001
1649 266.6516
1689 85.9414
1736 320.5652
1771 327.1256
2012 276.6257
2070 120.9002
2082 250.1567
2147 81.2698
2300 305.7526
2527 123.1027
2551 71.6743
2605 98.8956
2653 22.6105
2739 270.8992
2807 258.0675
2841 73.4866
2875 185.7179
2885 144.6340
2915 81.4041
3074 137.3819
3130 82.5124
3421 77.4557
3586 283.7864
3784 110.1116
3818 110.8530
3881 283.3719
3933 176.3575
4033 90.2980
4046 274.3979
4094 140.9210
4145 241.4210
4208 356.1300
4235 90.3956
4332 189.9658
4568 206.1105
4685 308.5438
4749 26.2285
4805 146.1055
4858 314.8263
4871 110.1970
4945 206.5098
4999 239.0519
5010 212.7395
5106 238.4711
5130 231.1409
5249 311.9299
5258 165.5697
5318 213.0511
5369 83.2462
5589 77.1422
5645 295.9576
PLANTSmolcadARTstart hb
PLANTSmolcadARTstart HB
LINES
18.3679 -12.7962 15.6366 19.176 -10.827 14.967 0 255 0 5
15.5954 -6.57235 15.7358 14.939 -7.462 16.94 0 255 0 5
PLANTSmolcadARTstart HBCH
LINES
PLANTSmolcadARTstart HB-CHO
LINES
PLANTSmolcadARTend
PLANTSmolcadARTstart HB_WATER
LINES
PLANTSmolcadARTend

PLANTSmolcadARTend

