@<TRIPOS>MOLECULE
Olaparib_entry_00001_conf_02
55 59 1
SMALL
NO_CHARGES


@<TRIPOS>ATOM
      1 N          15.1700   -4.6276   13.8257 N.am      1 UNL1        0.0000
      2 N          15.9564   -2.1621   14.0524 N.am      1 UNL1        0.0000
      3 N          17.1949   -8.5826    8.1589 N.2       1 UNL1        0.0000
      4 N          17.7721   -9.4356    7.3479 N.am      1 UNL1        0.0000
      5 C          17.1409  -10.4975    6.8274 C.2       1 UNL1        0.0000
      6 C          15.8181  -10.7104    7.1569 C.ar      1 UNL1        0.0000
      7 C          15.1197  -11.8111    6.6592 C.ar      1 UNL1        0.0000
      8 C          13.8050  -12.0155    7.0189 C.ar      1 UNL1        0.0000
      9 C          13.2408  -11.0944    7.8759 C.ar      1 UNL1        0.0000
     10 C          13.9220   -9.9981    8.3777 C.ar      1 UNL1        0.0000
     11 C          15.2217   -9.8035    8.0135 C.ar      1 UNL1        0.0000
     12 C          15.8858   -8.7246    8.5324 C.2       1 UNL1        0.0000
     13 C          15.3470   -7.6725    9.3844 C.3       1 UNL1        0.0000
     14 C          16.1611   -7.5338   10.6235 C.ar      1 UNL1        0.0000
     15 C          15.5327   -6.8651   11.6892 C.ar      1 UNL1        0.0000
     16 C          16.2074   -6.6786   12.8719 C.ar      1 UNL1        0.0000
     17 C          15.5745   -5.9757   14.0106 C.2       1 UNL1        0.0000
     18 C          14.5518   -3.9184   14.8989 C.3       1 UNL1        0.0000
     19 C          14.7559   -2.4216   14.8038 C.3       1 UNL1        0.0000
     20 C          15.9776   -2.6123   12.6563 C.3       1 UNL1        0.0000
     21 C          15.3965   -3.9978   12.5382 C.3       1 UNL1        0.0000
     22 C          17.0638   -1.5137   14.6068 C.2       1 UNL1        0.0000
     23 C          17.2002   -1.0209   15.9800 C.3       1 UNL1        0.0000
     24 C          17.1784    0.4808   16.1547 C.3       1 UNL1        0.0000
     25 C          18.4098   -0.2705   16.4081 C.3       1 UNL1        0.0000
     26 C          17.4929   -7.1174   13.0842 C.ar      1 UNL1        0.0000
     27 C          18.1070   -7.7718   12.0403 C.ar      1 UNL1        0.0000
     28 C          17.4218   -7.9629   10.8319 C.ar      1 UNL1        0.0000
     29 O          17.6769  -11.3256    6.0472 O.2       1 UNL1        0.0000
     30 O          18.0805   -1.3205   13.8490 O.2       1 UNL1        0.0000
     31 O          15.3882   -6.5305   15.1180 O.2       1 UNL1        0.0000
     32 F          18.1207   -6.9068   14.2776 F         1 UNL1        0.0000
     33 H          15.5876  -12.4727    6.0202 H         1 UNL1        0.0000
     34 H          13.2681  -12.8211    6.6638 H         1 UNL1        0.0000
     35 H          12.2580  -11.2296    8.1588 H         1 UNL1        0.0000
     36 H          13.4536   -9.3374    9.0176 H         1 UNL1        0.0000
     37 H          14.3396   -7.9160    9.6504 H         1 UNL1        0.0000
     38 H          15.3753   -6.7463    8.8491 H         1 UNL1        0.0000
     39 H          14.5679   -6.5152   11.5834 H         1 UNL1        0.0000
     40 H          14.9687   -4.2633   15.8224 H         1 UNL1        0.0000
     41 H          13.4991   -4.1053   14.8459 H         1 UNL1        0.0000
     42 H          14.8500   -2.0087   15.7861 H         1 UNL1        0.0000
     43 H          13.9170   -1.9717   14.3148 H         1 UNL1        0.0000
     44 H          16.9880   -2.6240   12.3048 H         1 UNL1        0.0000
     45 H          15.3893   -1.9405   12.0668 H         1 UNL1        0.0000
     46 H          16.0746   -4.6060   11.9765 H         1 UNL1        0.0000
     47 H          14.4474   -3.9075   12.0543 H         1 UNL1        0.0000
     48 H          16.6828   -1.8712   16.3719 H         1 UNL1        0.0000
     49 H          16.6399    0.9170   16.9703 H         1 UNL1        0.0000
     50 H          16.9110    1.3113   15.5352 H         1 UNL1        0.0000
     51 H          18.7719   -0.3734   17.4097 H         1 UNL1        0.0000
     52 H          19.4135   -0.2021   16.0458 H         1 UNL1        0.0000
     53 H          19.0724   -8.1220   12.1478 H         1 UNL1        0.0000
     54 H          17.9054   -8.4564   10.0650 H         1 UNL1        0.0000
     55 H          18.7160   -9.2885    7.1089 H         1 UNL1        0.0000
@<TRIPOS>BOND
     1    1   18 1
     2    1   21 1
     3    1   17 am
     4    2   19 1
     5    2   20 1
     6    2   22 am
     7    3    4 1
     8    3   12 2
     9    4    5 am
    10    4   55 1
    11    5   29 2
    12    5    6 1
    13    6    7 ar
    14    6   11 ar
    15    7    8 ar
    16    7   33 1
    17    8   34 1
    18    8    9 ar
    19    9   10 ar
    20    9   35 1
    21   10   11 ar
    22   10   36 1
    23   11   12 1
    24   12   13 1
    25   13   37 1
    26   13   38 1
    27   13   14 1
    28   14   15 ar
    29   14   28 ar
    30   15   39 1
    31   15   16 ar
    32   16   26 ar
    33   16   17 1
    34   17   31 2
    35   18   19 1
    36   18   40 1
    37   18   41 1
    38   19   42 1
    39   19   43 1
    40   20   21 1
    41   20   45 1
    42   20   44 1
    43   21   46 1
    44   21   47 1
    45   22   30 2
    46   22   23 1
    47   23   25 1
    48   23   24 1
    49   23   48 1
    50   24   25 1
    51   24   49 1
    52   24   50 1
    53   25   51 1
    54   25   52 1
    55   26   27 ar
    56   26   32 1
    57   27   28 ar
    58   27   53 1
    59   28   54 1
@<TRIPOS>SUBSTRUCTURE
1 UNL1 1
@<TRIPOS>COMMENT
Olaparib
PLANTSproteinTorsions
70
3 346.3204
48 95.6665
123 39.8812
171 74.1598
348 195.9876
606 22.2703
632 17.8567
655 129.6389
678 253.8150
700 78.9776
773 151.8236
807 97.3622
891 172.5673
933 113.2568
999 82.6022
1020 4.5863
1361 256.1092
1371 341.3699
1544 256.2583
1649 272.2289
1689 6.2105
1736 175.6191
1771 134.7696
2012 221.6814
2070 235.7176
2082 227.7385
2147 160.4775
2300 147.3428
2527 149.9156
2551 24.3474
2605 37.1121
2653 196.4857
2739 55.5278
2807 240.9586
2841 190.8752
2875 18.9994
2885 258.5508
2915 100.2223
3074 251.5262
3130 123.7354
3421 68.0605
3586 74.8327
3784 141.5949
3818 210.3155
3881 93.6728
3933 47.6043
4033 73.8042
4046 30.0146
4094 43.2339
4145 342.4822
4208 58.2780
4235 6.2253
4332 228.8887
4568 55.8132
4685 106.4303
4749 65.9558
4805 164.6896
4858 153.6282
4871 280.8589
4945 24.6606
4999 218.0636
5010 180.5140
5106 227.0074
5130 187.2305
5249 277.1814
5258 185.1961
5318 226.4832
5369 240.7327
5589 97.2698
5645 276.3917
PLANTSmolcadARTstart hb
PLANTSmolcadARTstart HB
LINES
15.3882 -6.53049 15.118 14.939 -7.462 16.94 0 255 0 5
PLANTSmolcadARTstart HBCH
LINES
PLANTSmolcadARTstart HB-CHO
LINES
PLANTSmolcadARTend
PLANTSmolcadARTstart HB_WATER
LINES
PLANTSmolcadARTend

PLANTSmolcadARTend

