@<TRIPOS>MOLECULE
Olaparib_entry_00001_conf_75
55 59 1
SMALL
NO_CHARGES


@<TRIPOS>ATOM
      1 N          22.3139    9.4367   14.8241 N.am      1 UNL1        0.0000
      2 N          23.8879    8.6757   12.9027 N.am      1 UNL1        0.0000
      3 N          16.4834   13.7829   12.9674 N.2       1 UNL1        0.0000
      4 N          16.0701   14.9393   12.5085 N.am      1 UNL1        0.0000
      5 C          15.9508   15.2113   11.2014 C.2       1 UNL1        0.0000
      6 C          16.2776   14.2310   10.2871 C.ar      1 UNL1        0.0000
      7 C          16.1908   14.4678    8.9147 C.ar      1 UNL1        0.0000
      8 C          16.5429   13.4807    8.0196 C.ar      1 UNL1        0.0000
      9 C          16.9744   12.2824    8.5479 C.ar      1 UNL1        0.0000
     10 C          17.0657   12.0338    9.9072 C.ar      1 UNL1        0.0000
     11 C          16.7125   13.0164   10.7845 C.ar      1 UNL1        0.0000
     12 C          16.8254   12.7602   12.1247 C.2       1 UNL1        0.0000
     13 C          17.2051   11.5065   12.7629 C.3       1 UNL1        0.0000
     14 C          18.3403   11.7200   13.7026 C.ar      1 UNL1        0.0000
     15 C          19.0895   10.5725   14.0179 C.ar      1 UNL1        0.0000
     16 C          20.1514   10.6665   14.8852 C.ar      1 UNL1        0.0000
     17 C          20.9570    9.4762   15.2394 C.2       1 UNL1        0.0000
     18 C          23.1238    8.3079   15.1510 C.3       1 UNL1        0.0000
     19 C          24.2563    8.0979   14.1690 C.3       1 UNL1        0.0000
     20 C          23.6580   10.1242   12.8743 C.3       1 UNL1        0.0000
     21 C          22.8496   10.5554   14.0709 C.3       1 UNL1        0.0000
     22 C          23.7485    7.9112   11.7407 C.2       1 UNL1        0.0000
     23 C          23.9288    6.4627   11.6119 C.3       1 UNL1        0.0000
     24 C          25.1959    5.8928   12.2084 C.3       1 UNL1        0.0000
     25 C          25.0051    5.8977   10.7563 C.3       1 UNL1        0.0000
     26 C          20.5378   11.8444   15.4795 C.ar      1 UNL1        0.0000
     27 C          19.8037   12.9671   15.1702 C.ar      1 UNL1        0.0000
     28 C          18.7190   12.8745   14.2864 C.ar      1 UNL1        0.0000
     29 O          15.5552   16.3133   10.7422 O.2       1 UNL1        0.0000
     30 O          23.4279    8.5243   10.6606 O.2       1 UNL1        0.0000
     31 O          20.4808    8.5158   15.8872 O.2       1 UNL1        0.0000
     32 F          21.6001   11.8860   16.3353 F         1 UNL1        0.0000
     33 H          15.8620   15.3829    8.5692 H         1 UNL1        0.0000
     34 H          16.4868   13.6319    7.0011 H         1 UNL1        0.0000
     35 H          17.2440   11.5305    7.8951 H         1 UNL1        0.0000
     36 H          17.3958   11.1186   10.2520 H         1 UNL1        0.0000
     37 H          17.4975   10.8031   12.0115 H         1 UNL1        0.0000
     38 H          16.3678   11.1326   13.3147 H         1 UNL1        0.0000
     39 H          18.8425    9.6623   13.5994 H         1 UNL1        0.0000
     40 H          22.5068    7.4334   15.1549 H         1 UNL1        0.0000
     41 H          23.5586    8.4896   16.1123 H         1 UNL1        0.0000
     42 H          24.4370    7.0506   14.0477 H         1 UNL1        0.0000
     43 H          25.1461    8.5655   14.5365 H         1 UNL1        0.0000
     44 H          23.1271   10.3796   11.9812 H         1 UNL1        0.0000
     45 H          24.6031   10.6255   12.8982 H         1 UNL1        0.0000
     46 H          22.0337   11.1595   13.7324 H         1 UNL1        0.0000
     47 H          23.5031   11.0962   14.7217 H         1 UNL1        0.0000
     48 H          22.8750    6.2919   11.6803 H         1 UNL1        0.0000
     49 H          25.1649    4.9699   12.7494 H         1 UNL1        0.0000
     50 H          25.9494    6.2572   12.8751 H         1 UNL1        0.0000
     51 H          24.8433    4.9749   10.2394 H         1 UNL1        0.0000
     52 H          25.5741    6.2677    9.9301 H         1 UNL1        0.0000
     53 H          20.0523   13.8774   15.5892 H         1 UNL1        0.0000
     54 H          18.1850   13.7314   14.0717 H         1 UNL1        0.0000
     55 H          15.8351   15.6427   13.1564 H         1 UNL1        0.0000
@<TRIPOS>BOND
     1    1   18 1
     2    1   21 1
     3    1   17 am
     4    2   19 1
     5    2   20 1
     6    2   22 am
     7    3    4 1
     8    3   12 2
     9    4    5 am
    10    4   55 1
    11    5   29 2
    12    5    6 1
    13    6    7 ar
    14    6   11 ar
    15    7    8 ar
    16    7   33 1
    17    8   34 1
    18    8    9 ar
    19    9   10 ar
    20    9   35 1
    21   10   11 ar
    22   10   36 1
    23   11   12 1
    24   12   13 1
    25   13   37 1
    26   13   38 1
    27   13   14 1
    28   14   15 ar
    29   14   28 ar
    30   15   39 1
    31   15   16 ar
    32   16   26 ar
    33   16   17 1
    34   17   31 2
    35   18   19 1
    36   18   40 1
    37   18   41 1
    38   19   42 1
    39   19   43 1
    40   20   21 1
    41   20   45 1
    42   20   44 1
    43   21   46 1
    44   21   47 1
    45   22   30 2
    46   22   23 1
    47   23   25 1
    48   23   24 1
    49   23   48 1
    50   24   25 1
    51   24   49 1
    52   24   50 1
    53   25   51 1
    54   25   52 1
    55   26   27 ar
    56   26   32 1
    57   27   28 ar
    58   27   53 1
    59   28   54 1
@<TRIPOS>SUBSTRUCTURE
1 UNL1 1
@<TRIPOS>COMMENT
Olaparib
PLANTSproteinTorsions
70
3 218.6509
48 212.5738
123 145.3231
171 188.3136
348 150.9764
606 196.6068
632 17.8426
655 158.7098
678 34.6251
700 45.1889
773 228.7745
807 133.2598
891 319.6679
933 274.9026
999 151.7200
1020 197.7971
1361 143.5311
1371 63.1871
1544 180.3493
1649 58.8911
1689 74.9398
1736 184.4791
1771 139.4182
2012 29.5242
2070 198.4923
2082 61.1644
2147 201.6602
2300 128.2664
2527 22.2319
2551 266.1179
2605 262.7240
2653 116.4844
2739 135.7593
2807 192.6694
2841 277.5665
2875 266.9204
2885 147.5411
2915 270.8221
3074 62.1532
3130 82.8064
3421 175.1793
3586 258.9784
3784 33.6909
3818 64.4331
3881 205.1944
3933 99.6718
4033 143.7271
4046 110.0902
4094 195.4129
4145 256.3233
4208 113.3738
4235 202.5754
4332 249.8372
4568 95.7845
4685 84.2654
4749 175.2665
4805 327.2164
4858 287.5448
4871 106.2255
4945 51.4475
4999 241.7681
5010 304.0598
5106 138.3644
5130 155.2256
5249 76.6944
5258 220.0162
5318 168.7836
5369 232.5455
5589 75.2699
5645 134.1616
PLANTSmolcadARTstart hb
PLANTSmolcadARTstart HB
LINES
PLANTSmolcadARTstart HBCH
LINES
PLANTSmolcadARTstart HB-CHO
LINES
PLANTSmolcadARTend
PLANTSmolcadARTstart HB_WATER
LINES
PLANTSmolcadARTend

PLANTSmolcadARTend

