@<TRIPOS>MOLECULE
Olaparib_entry_00001_conf_74
55 59 1
SMALL
NO_CHARGES


@<TRIPOS>ATOM
      1 N          15.6543   -6.7712   12.5458 N.am      1 UNL1        0.0000
      2 N          16.8072   -8.6290   11.1430 N.am      1 UNL1        0.0000
      3 N          20.1528   -3.1733   17.1551 N.2       1 UNL1        0.0000
      4 N          20.5049   -2.0681   17.7661 N.am      1 UNL1        0.0000
      5 C          21.2536   -1.1167   17.1908 C.2       1 UNL1        0.0000
      6 C          21.6792   -1.3022   15.8915 C.ar      1 UNL1        0.0000
      7 C          22.4772   -0.3529   15.2520 C.ar      1 UNL1        0.0000
      8 C          22.9084   -0.5693   13.9610 C.ar      1 UNL1        0.0000
      9 C          22.5158   -1.7464   13.3597 C.ar      1 UNL1        0.0000
     10 C          21.7247   -2.6974   13.9824 C.ar      1 UNL1        0.0000
     11 C          21.3012   -2.4722   15.2590 C.ar      1 UNL1        0.0000
     12 C          20.5344   -3.4304   15.8661 C.2       1 UNL1        0.0000
     13 C          20.0215   -4.6628   15.2819 C.3       1 UNL1        0.0000
     14 C          18.5363   -4.7097   15.3786 C.ar      1 UNL1        0.0000
     15 C          17.8615   -5.0252   14.1859 C.ar      1 UNL1        0.0000
     16 C          16.4884   -5.0825   14.1721 C.ar      1 UNL1        0.0000
     17 C          15.7492   -5.4085   12.9317 C.2       1 UNL1        0.0000
     18 C          14.9455   -7.1252   11.3586 C.3       1 UNL1        0.0000
     19 C          15.4384   -8.4196   10.7483 C.3       1 UNL1        0.0000
     20 C          17.0685   -8.7912   12.5773 C.3       1 UNL1        0.0000
     21 C          16.2856   -7.7806   13.3755 C.3       1 UNL1        0.0000
     22 C          17.8556   -8.6781   10.2197 C.2       1 UNL1        0.0000
     23 C          17.7580   -8.5205    8.7662 C.3       1 UNL1        0.0000
     24 C          16.4764   -9.0059    8.1274 C.3       1 UNL1        0.0000
     25 C          17.7374   -9.7039    7.8669 C.3       1 UNL1        0.0000
     26 C          15.7124   -4.8449   15.2818 C.ar      1 UNL1        0.0000
     27 C          16.3741   -4.5361   16.4487 C.ar      1 UNL1        0.0000
     28 C          17.7750   -4.4758   16.4661 C.ar      1 UNL1        0.0000
     29 O          21.6003   -0.0499   17.7598 O.2       1 UNL1        0.0000
     30 O          19.0381   -8.8811   10.6733 O.2       1 UNL1        0.0000
     31 O          15.2120   -4.5266   12.2228 O.2       1 UNL1        0.0000
     32 F          14.3509   -4.9133   15.2167 F         1 UNL1        0.0000
     33 H          22.7444    0.5130   15.7459 H         1 UNL1        0.0000
     34 H          23.4983    0.1176   13.4676 H         1 UNL1        0.0000
     35 H          22.8288   -1.9287   12.3939 H         1 UNL1        0.0000
     36 H          21.4587   -3.5636   13.4882 H         1 UNL1        0.0000
     37 H          20.4351   -5.4995   15.8053 H         1 UNL1        0.0000
     38 H          20.3000   -4.6974   14.2492 H         1 UNL1        0.0000
     39 H          18.3957   -5.2129   13.3233 H         1 UNL1        0.0000
     40 H          15.0657   -6.3402   10.6411 H         1 UNL1        0.0000
     41 H          13.9179   -7.2637   11.6249 H         1 UNL1        0.0000
     42 H          15.3763   -8.3607    9.6821 H         1 UNL1        0.0000
     43 H          14.8336   -9.2343   11.0888 H         1 UNL1        0.0000
     44 H          18.1129   -8.6528   12.7634 H         1 UNL1        0.0000
     45 H          16.7673   -9.7738   12.8754 H         1 UNL1        0.0000
     46 H          16.9514   -7.2932   14.0568 H         1 UNL1        0.0000
     47 H          15.5080   -8.3078   13.8861 H         1 UNL1        0.0000
     48 H          18.3399   -7.6232    8.7910 H         1 UNL1        0.0000
     49 H          16.0131   -8.4306    7.3530 H         1 UNL1        0.0000
     50 H          15.5116   -9.2936    8.4898 H         1 UNL1        0.0000
     51 H          18.1873   -9.6426    6.8980 H         1 UNL1        0.0000
     52 H          18.0617  -10.7185    7.9600 H         1 UNL1        0.0000
     53 H          15.8383   -4.3491   17.3114 H         1 UNL1        0.0000
     54 H          18.2462   -4.2418   17.3542 H         1 UNL1        0.0000
     55 H          20.2037   -1.9300   18.6935 H         1 UNL1        0.0000
@<TRIPOS>BOND
     1    1   18 1
     2    1   21 1
     3    1   17 am
     4    2   19 1
     5    2   20 1
     6    2   22 am
     7    3    4 1
     8    3   12 2
     9    4    5 am
    10    4   55 1
    11    5   29 2
    12    5    6 1
    13    6    7 ar
    14    6   11 ar
    15    7    8 ar
    16    7   33 1
    17    8   34 1
    18    8    9 ar
    19    9   10 ar
    20    9   35 1
    21   10   11 ar
    22   10   36 1
    23   11   12 1
    24   12   13 1
    25   13   37 1
    26   13   38 1
    27   13   14 1
    28   14   15 ar
    29   14   28 ar
    30   15   39 1
    31   15   16 ar
    32   16   26 ar
    33   16   17 1
    34   17   31 2
    35   18   19 1
    36   18   40 1
    37   18   41 1
    38   19   42 1
    39   19   43 1
    40   20   21 1
    41   20   45 1
    42   20   44 1
    43   21   46 1
    44   21   47 1
    45   22   30 2
    46   22   23 1
    47   23   25 1
    48   23   24 1
    49   23   48 1
    50   24   25 1
    51   24   49 1
    52   24   50 1
    53   25   51 1
    54   25   52 1
    55   26   27 ar
    56   26   32 1
    57   27   28 ar
    58   27   53 1
    59   28   54 1
@<TRIPOS>SUBSTRUCTURE
1 UNL1 1
@<TRIPOS>COMMENT
Olaparib
PLANTSproteinTorsions
70
3 124.6203
48 36.2339
123 3.4081
171 96.4076
348 102.0002
606 21.2288
632 322.5625
655 4.0543
678 44.6593
700 324.6917
773 181.7126
807 42.3040
891 203.6686
933 168.2058
999 29.1500
1020 45.3492
1361 42.0215
1371 340.7623
1544 42.3274
1649 34.9832
1689 355.8748
1736 50.1678
1771 197.7148
2012 39.4587
2070 56.5200
2082 239.7565
2147 61.6774
2300 117.1342
2527 281.9515
2551 36.2050
2605 179.7332
2653 153.1053
2739 202.7217
2807 167.0099
2841 310.3196
2875 103.3822
2885 295.0974
2915 47.5089
3074 114.8207
3130 162.1801
3421 353.9634
3586 141.6525
3784 186.8438
3818 204.5039
3881 341.4080
3933 246.3359
4033 130.8008
4046 223.8740
4094 209.4761
4145 180.9864
4208 288.0260
4235 195.3395
4332 207.1745
4568 149.4787
4685 246.3130
4749 254.9522
4805 115.5567
4858 157.7990
4871 43.6137
4945 89.7309
4999 72.9796
5010 144.4694
5106 302.0863
5130 316.0874
5249 256.8236
5258 174.1358
5318 210.5020
5369 38.8785
5589 216.3819
5645 263.8741
PLANTSmolcadARTstart hb
PLANTSmolcadARTstart HB
LINES
19.0381 -8.88108 10.6733 19.8187 -7.65374 9.13788 0 255 0 5
19.0381 -8.88108 10.6733 20.767 -9.275 11.654 0 255 0 5
PLANTSmolcadARTstart HBCH
LINES
PLANTSmolcadARTstart HB-CHO
LINES
PLANTSmolcadARTend
PLANTSmolcadARTstart HB_WATER
LINES
PLANTSmolcadARTend

PLANTSmolcadARTend

