@<TRIPOS>MOLECULE
Olaparib_entry_00001_conf_72
55 59 1
SMALL
NO_CHARGES


@<TRIPOS>ATOM
      1 N          15.6297   -9.4938    9.9067 N.am      1 UNL1        0.0000
      2 N          15.6381  -12.0605   10.3075 N.am      1 UNL1        0.0000
      3 N          16.0864   -3.5514   14.5614 N.2       1 UNL1        0.0000
      4 N          16.7027   -2.7507   15.3965 N.am      1 UNL1        0.0000
      5 C          17.2741   -1.5971   15.0227 C.2       1 UNL1        0.0000
      6 C          17.2153   -1.2273   13.6947 C.ar      1 UNL1        0.0000
      7 C          17.8107   -0.0469   13.2484 C.ar      1 UNL1        0.0000
      8 C          17.7579    0.2918   11.9135 C.ar      1 UNL1        0.0000
      9 C          17.1019   -0.5818   11.0722 C.ar      1 UNL1        0.0000
     10 C          16.5070   -1.7565   11.5012 C.ar      1 UNL1        0.0000
     11 C          16.5628   -2.0811   12.8246 C.ar      1 UNL1        0.0000
     12 C          15.9849   -3.2545   13.2292 C.2       1 UNL1        0.0000
     13 C          15.2182   -4.1944   12.4219 C.3       1 UNL1        0.0000
     14 C          15.8119   -5.5578   12.5002 C.ar      1 UNL1        0.0000
     15 C          15.8513   -6.2716   11.2892 C.ar      1 UNL1        0.0000
     16 C          16.3719   -7.5433   11.2621 C.ar      1 UNL1        0.0000
     17 C          16.4240   -8.3214   10.0039 C.2       1 UNL1        0.0000
     18 C          15.6498  -10.2676    8.7077 C.3       1 UNL1        0.0000
     19 C          15.3109  -11.7234    8.9464 C.3       1 UNL1        0.0000
     20 C          14.9086  -11.3489   11.3628 C.3       1 UNL1        0.0000
     21 C          14.8086   -9.8804   11.0391 C.3       1 UNL1        0.0000
     22 C          16.6036  -13.0176   10.6325 C.2       1 UNL1        0.0000
     23 C          17.4210  -13.7972    9.6991 C.3       1 UNL1        0.0000
     24 C          16.6673  -14.6014    8.6640 C.3       1 UNL1        0.0000
     25 C          17.4089  -15.2834    9.7270 C.3       1 UNL1        0.0000
     26 C          16.8707   -8.1780   12.3749 C.ar      1 UNL1        0.0000
     27 C          16.8316   -7.4783   13.5597 C.ar      1 UNL1        0.0000
     28 C          16.3002   -6.1810   13.5912 C.ar      1 UNL1        0.0000
     29 O          17.8683   -0.8156   15.8088 O.2       1 UNL1        0.0000
     30 O          16.8123  -13.2530   11.8760 O.2       1 UNL1        0.0000
     31 O          17.1401   -7.9780    9.0353 O.2       1 UNL1        0.0000
     32 F          17.3768   -9.4430   12.2964 F         1 UNL1        0.0000
     33 H          18.2907    0.5739   13.9186 H         1 UNL1        0.0000
     34 H          18.1898    1.1589   11.5600 H         1 UNL1        0.0000
     35 H          17.0520   -0.3477   10.0688 H         1 UNL1        0.0000
     36 H          16.0281   -2.3774   10.8301 H         1 UNL1        0.0000
     37 H          15.2205   -3.8674   11.4031 H         1 UNL1        0.0000
     38 H          14.2163   -4.2338   12.7961 H         1 UNL1        0.0000
     39 H          15.4901   -5.8420   10.4235 H         1 UNL1        0.0000
     40 H          16.6287  -10.2093    8.2789 H         1 UNL1        0.0000
     41 H          14.9058   -9.8657    8.0511 H         1 UNL1        0.0000
     42 H          15.8758  -12.3381    8.2777 H         1 UNL1        0.0000
     43 H          14.2674  -11.8858    8.7728 H         1 UNL1        0.0000
     44 H          15.4256  -11.4695   12.2917 H         1 UNL1        0.0000
     45 H          13.9208  -11.7540   11.4346 H         1 UNL1        0.0000
     46 H          15.1232   -9.3198   11.8946 H         1 UNL1        0.0000
     47 H          13.7911   -9.6772   10.7812 H         1 UNL1        0.0000
     48 H          18.2011  -13.0656    9.7191 H         1 UNL1        0.0000
     49 H          17.0210  -14.6401    7.6547 H         1 UNL1        0.0000
     50 H          15.6577  -14.6231    8.3101 H         1 UNL1        0.0000
     51 H          18.2995  -15.8263    9.4882 H         1 UNL1        0.0000
     52 H          17.1536  -16.0146   10.4642 H         1 UNL1        0.0000
     53 H          17.1940   -7.9091   14.4253 H         1 UNL1        0.0000
     54 H          16.2824   -5.6785   14.4927 H         1 UNL1        0.0000
     55 H          16.7475   -3.0093   16.3457 H         1 UNL1        0.0000
@<TRIPOS>BOND
     1    1   18 1
     2    1   21 1
     3    1   17 am
     4    2   19 1
     5    2   20 1
     6    2   22 am
     7    3    4 1
     8    3   12 2
     9    4    5 am
    10    4   55 1
    11    5   29 2
    12    5    6 1
    13    6    7 ar
    14    6   11 ar
    15    7    8 ar
    16    7   33 1
    17    8   34 1
    18    8    9 ar
    19    9   10 ar
    20    9   35 1
    21   10   11 ar
    22   10   36 1
    23   11   12 1
    24   12   13 1
    25   13   37 1
    26   13   38 1
    27   13   14 1
    28   14   15 ar
    29   14   28 ar
    30   15   39 1
    31   15   16 ar
    32   16   26 ar
    33   16   17 1
    34   17   31 2
    35   18   19 1
    36   18   40 1
    37   18   41 1
    38   19   42 1
    39   19   43 1
    40   20   21 1
    41   20   45 1
    42   20   44 1
    43   21   46 1
    44   21   47 1
    45   22   30 2
    46   22   23 1
    47   23   25 1
    48   23   24 1
    49   23   48 1
    50   24   25 1
    51   24   49 1
    52   24   50 1
    53   25   51 1
    54   25   52 1
    55   26   27 ar
    56   26   32 1
    57   27   28 ar
    58   27   53 1
    59   28   54 1
@<TRIPOS>SUBSTRUCTURE
1 UNL1 1
@<TRIPOS>COMMENT
Olaparib
PLANTSproteinTorsions
70
3 83.3677
48 197.4712
123 330.6799
171 120.4175
348 108.8455
606 31.6292
632 67.8918
655 15.1447
678 317.6309
700 9.6313
773 176.3513
807 64.9509
891 188.1525
933 134.4138
999 338.9788
1020 81.2173
1361 226.4734
1371 0.5073
1544 165.0973
1649 6.9740
1689 78.6624
1736 118.5882
1771 70.7669
2012 101.7778
2070 113.1441
2082 232.1435
2147 338.5992
2300 128.6521
2527 262.8900
2551 65.3369
2605 88.8567
2653 162.9709
2739 39.9028
2807 255.0414
2841 238.4480
2875 70.6919
2885 256.9817
2915 347.0545
3074 139.9670
3130 335.1486
3421 63.7088
3586 65.8788
3784 168.7384
3818 223.5454
3881 86.3415
3933 39.8781
4033 92.1187
4046 160.9357
4094 35.0743
4145 190.7104
4208 185.4323
4235 193.1116
4332 238.2223
4568 44.2503
4685 121.6180
4749 283.7361
4805 141.7520
4858 184.8610
4871 331.9444
4945 11.9294
4999 87.7078
5010 274.8042
5106 183.5356
5130 108.0072
5249 250.5196
5258 47.6889
5318 242.8498
5369 251.7564
5589 120.9144
5645 313.1043
PLANTSmolcadARTstart hb
PLANTSmolcadARTstart HB
LINES
PLANTSmolcadARTstart HBCH
LINES
PLANTSmolcadARTstart HB-CHO
LINES
PLANTSmolcadARTend
PLANTSmolcadARTstart HB_WATER
LINES
PLANTSmolcadARTend

PLANTSmolcadARTend

