@<TRIPOS>MOLECULE
Olaparib_entry_00001_conf_08
55 59 1
SMALL
NO_CHARGES


@<TRIPOS>ATOM
      1 N          15.8369   -9.0654    8.5864 N.am      1 UNL1        0.0000
      2 N          15.5666  -11.1914    7.1182 N.am      1 UNL1        0.0000
      3 N          15.3339  -12.2929   12.0063 N.2       1 UNL1        0.0000
      4 N          14.2055  -12.9524   11.9038 N.am      1 UNL1        0.0000
      5 C          13.7459  -13.7754   12.8568 C.2       1 UNL1        0.0000
      6 C          14.4917  -13.9425   14.0055 C.ar      1 UNL1        0.0000
      7 C          14.0696  -14.8025   15.0200 C.ar      1 UNL1        0.0000
      8 C          14.8415  -14.9702   16.1495 C.ar      1 UNL1        0.0000
      9 C          16.0210  -14.2587   16.2120 C.ar      1 UNL1        0.0000
     10 C          16.4523  -13.4023   15.2128 C.ar      1 UNL1        0.0000
     11 C          15.6798  -13.2415   14.1005 C.ar      1 UNL1        0.0000
     12 C          16.1293  -12.4047   13.1144 C.2       1 UNL1        0.0000
     13 C          17.3224  -11.5686   13.1312 C.3       1 UNL1        0.0000
     14 C          16.9904  -10.1741   12.7280 C.ar      1 UNL1        0.0000
     15 C          17.0104   -9.9227   11.3446 C.ar      1 UNL1        0.0000
     16 C          16.7275   -8.6625   10.8748 C.ar      1 UNL1        0.0000
     17 C          16.7438   -8.3656    9.4246 C.2       1 UNL1        0.0000
     18 C          15.8196   -8.8028    7.1836 C.3       1 UNL1        0.0000
     19 C          15.3243   -9.9824    6.3748 C.3       1 UNL1        0.0000
     20 C          14.8774  -11.3300    8.4058 C.3       1 UNL1        0.0000
     21 C          14.9407  -10.0394    9.1815 C.3       1 UNL1        0.0000
     22 C          16.4163  -12.2002    6.6550 C.2       1 UNL1        0.0000
     23 C          17.1815  -12.2029    5.4053 C.3       1 UNL1        0.0000
     24 C          18.3769  -13.1275    5.3574 C.3       1 UNL1        0.0000
     25 C          18.5706  -11.6758    5.3564 C.3       1 UNL1        0.0000
     26 C          16.4171   -7.6039   11.6951 C.ar      1 UNL1        0.0000
     27 C          16.3979   -7.8511   13.0491 C.ar      1 UNL1        0.0000
     28 C          16.6870   -9.1355   13.5319 C.ar      1 UNL1        0.0000
     29 O          12.6660  -14.4152   12.7773 O.2       1 UNL1        0.0000
     30 O          16.5555  -13.2434    7.3880 O.2       1 UNL1        0.0000
     31 O          17.5253   -7.5247    8.9237 O.2       1 UNL1        0.0000
     32 F          16.1442   -6.3700   11.1795 F         1 UNL1        0.0000
     33 H          13.1780  -15.3133   14.9252 H         1 UNL1        0.0000
     34 H          14.5504  -15.5996   16.9126 H         1 UNL1        0.0000
     35 H          16.6144  -14.3708   17.0483 H         1 UNL1        0.0000
     36 H          17.3448  -12.8926   15.3079 H         1 UNL1        0.0000
     37 H          18.0435  -11.9699   12.4500 H         1 UNL1        0.0000
     38 H          17.7198  -11.5538   14.1248 H         1 UNL1        0.0000
     39 H          17.2372  -10.6821   10.6840 H         1 UNL1        0.0000
     40 H          16.8139   -8.5637    6.8678 H         1 UNL1        0.0000
     41 H          15.1447   -7.9890    7.0154 H         1 UNL1        0.0000
     42 H          15.8462  -10.0229    5.4419 H         1 UNL1        0.0000
     43 H          14.2764   -9.8770    6.1843 H         1 UNL1        0.0000
     44 H          15.3459  -12.1053    8.9750 H         1 UNL1        0.0000
     45 H          13.8512  -11.5733    8.2250 H         1 UNL1        0.0000
     46 H          15.2809  -10.2532   10.1733 H         1 UNL1        0.0000
     47 H          13.9593   -9.6152    9.1792 H         1 UNL1        0.0000
     48 H          16.3012  -12.0163    4.8270 H         1 UNL1        0.0000
     49 H          18.5792  -13.6952    4.4731 H         1 UNL1        0.0000
     50 H          18.7309  -13.9391    5.9583 H         1 UNL1        0.0000
     51 H          18.9228  -11.1882    4.4714 H         1 UNL1        0.0000
     52 H          19.1339  -10.9977    5.9615 H         1 UNL1        0.0000
     53 H          16.1702   -7.0904   13.7091 H         1 UNL1        0.0000
     54 H          16.6660   -9.2939   14.5517 H         1 UNL1        0.0000
     55 H          13.6687  -12.8368   11.0863 H         1 UNL1        0.0000
@<TRIPOS>BOND
     1    1   18 1
     2    1   21 1
     3    1   17 am
     4    2   19 1
     5    2   20 1
     6    2   22 am
     7    3    4 1
     8    3   12 2
     9    4    5 am
    10    4   55 1
    11    5   29 2
    12    5    6 1
    13    6    7 ar
    14    6   11 ar
    15    7    8 ar
    16    7   33 1
    17    8   34 1
    18    8    9 ar
    19    9   10 ar
    20    9   35 1
    21   10   11 ar
    22   10   36 1
    23   11   12 1
    24   12   13 1
    25   13   37 1
    26   13   38 1
    27   13   14 1
    28   14   15 ar
    29   14   28 ar
    30   15   39 1
    31   15   16 ar
    32   16   26 ar
    33   16   17 1
    34   17   31 2
    35   18   19 1
    36   18   40 1
    37   18   41 1
    38   19   42 1
    39   19   43 1
    40   20   21 1
    41   20   45 1
    42   20   44 1
    43   21   46 1
    44   21   47 1
    45   22   30 2
    46   22   23 1
    47   23   25 1
    48   23   24 1
    49   23   48 1
    50   24   25 1
    51   24   49 1
    52   24   50 1
    53   25   51 1
    54   25   52 1
    55   26   27 ar
    56   26   32 1
    57   27   28 ar
    58   27   53 1
    59   28   54 1
@<TRIPOS>SUBSTRUCTURE
1 UNL1 1
@<TRIPOS>COMMENT
Olaparib
PLANTSproteinTorsions
70
3 12.8555
48 255.7696
123 2.7211
171 99.3071
348 55.6641
606 60.2282
632 326.0979
655 351.4312
678 92.7627
700 176.0798
773 209.4091
807 211.7706
891 212.0165
933 256.0098
999 271.5635
1020 84.7529
1361 304.2848
1371 121.9368
1544 242.6062
1649 95.0503
1689 64.0415
1736 218.2014
1771 93.3322
2012 214.1477
2070 90.6144
2082 47.9275
2147 119.6523
2300 125.4824
2527 109.0879
2551 307.6650
2605 28.2258
2653 292.7471
2739 343.7691
2807 99.6215
2841 158.6076
2875 158.6960
2885 320.2756
2915 256.6028
3074 222.6355
3130 129.0283
3421 94.8483
3586 93.9122
3784 140.7461
3818 91.7106
3881 108.4302
3933 35.7873
4033 70.5978
4046 118.7893
4094 96.6460
4145 32.5451
4208 117.1005
4235 351.5695
4332 234.5516
4568 190.5585
4685 63.8266
4749 248.2440
4805 148.8007
4858 209.4610
4871 88.4432
4945 214.8027
4999 193.2168
5010 146.7141
5106 177.1103
5130 180.2180
5249 239.9265
5258 23.1344
5318 257.3951
5369 151.5575
5589 181.1943
5645 279.1014
PLANTSmolcadARTstart hb
PLANTSmolcadARTstart HB
LINES
PLANTSmolcadARTstart HBCH
LINES
PLANTSmolcadARTstart HB-CHO
LINES
12.666 -14.4152 12.7773 10.471 -13.233 12.621 0 255 255 5
PLANTSmolcadARTend
PLANTSmolcadARTstart HB_WATER
LINES
PLANTSmolcadARTend

PLANTSmolcadARTend

