@<TRIPOS>MOLECULE
Olaparib_entry_00001_conf_43
55 59 1
SMALL
NO_CHARGES


@<TRIPOS>ATOM
      1 N          17.5831   -7.6692   13.2762 N.am      1 UNL1        0.0000
      2 N          16.3062   -5.5764   14.1353 N.am      1 UNL1        0.0000
      3 N          14.7954  -14.8258   12.1863 N.2       1 UNL1        0.0000
      4 N          14.8463  -16.0139   11.6345 N.am      1 UNL1        0.0000
      5 C          15.9335  -16.4887   11.0105 C.2       1 UNL1        0.0000
      6 C          17.0589  -15.6935   10.9409 C.ar      1 UNL1        0.0000
      7 C          18.2108  -16.1307   10.2859 C.ar      1 UNL1        0.0000
      8 C          19.3161  -15.3108   10.2102 C.ar      1 UNL1        0.0000
      9 C          19.2155  -14.0695   10.8022 C.ar      1 UNL1        0.0000
     10 C          18.0789  -13.6226   11.4550 C.ar      1 UNL1        0.0000
     11 C          16.9916  -14.4427   11.5264 C.ar      1 UNL1        0.0000
     12 C          15.8701  -13.9787   12.1601 C.2       1 UNL1        0.0000
     13 C          15.7048  -12.7152   12.8666 C.3       1 UNL1        0.0000
     14 C          15.9179  -11.5668   11.9429 C.ar      1 UNL1        0.0000
     15 C          16.7850  -10.5644   12.4129 C.ar      1 UNL1        0.0000
     16 C          17.0367   -9.4590   11.6360 C.ar      1 UNL1        0.0000
     17 C          17.9419   -8.3854   12.1043 C.2       1 UNL1        0.0000
     18 C          18.4330   -6.6303   13.7614 C.3       1 UNL1        0.0000
     19 C          17.6819   -5.5867   14.5599 C.3       1 UNL1        0.0000
     20 C          15.5357   -6.8067   14.3464 C.3       1 UNL1        0.0000
     21 C          16.3501   -8.0142   13.9591 C.3       1 UNL1        0.0000
     22 C          15.7108   -4.4575   13.5454 C.2       1 UNL1        0.0000
     23 C          16.3477   -3.1699   13.2567 C.3       1 UNL1        0.0000
     24 C          16.7702   -2.3512   14.4556 C.3       1 UNL1        0.0000
     25 C          15.6757   -1.8889   13.5991 C.3       1 UNL1        0.0000
     26 C          16.4792   -9.2672   10.3941 C.ar      1 UNL1        0.0000
     27 C          15.6305  -10.2491    9.9351 C.ar      1 UNL1        0.0000
     28 C          15.3707  -11.3777   10.7256 C.ar      1 UNL1        0.0000
     29 O          16.0019  -17.6254   10.4767 O.2       1 UNL1        0.0000
     30 O          14.4752   -4.5475   13.2131 O.2       1 UNL1        0.0000
     31 O          19.0017   -8.0956   11.5030 O.2       1 UNL1        0.0000
     32 F          16.7603   -8.1510    9.6608 F         1 UNL1        0.0000
     33 H          18.2357  -17.0695    9.8580 H         1 UNL1        0.0000
     34 H          20.1787  -15.6118    9.7321 H         1 UNL1        0.0000
     35 H          20.0311  -13.4396   10.7559 H         1 UNL1        0.0000
     36 H          18.0543  -12.6831   11.8817 H         1 UNL1        0.0000
     37 H          16.4158  -12.6620   13.6644 H         1 UNL1        0.0000
     38 H          14.7085  -12.6641   13.2543 H         1 UNL1        0.0000
     39 H          17.2308  -10.6584   13.3387 H         1 UNL1        0.0000
     40 H          18.9002   -6.1519   12.9257 H         1 UNL1        0.0000
     41 H          19.1533   -7.0799   14.4133 H         1 UNL1        0.0000
     42 H          18.1174   -4.6241   14.3925 H         1 UNL1        0.0000
     43 H          17.7382   -5.8187   15.6032 H         1 UNL1        0.0000
     44 H          14.6490   -6.7745   13.7486 H         1 UNL1        0.0000
     45 H          15.2798   -6.8817   15.3827 H         1 UNL1        0.0000
     46 H          15.7622   -8.6289   13.3098 H         1 UNL1        0.0000
     47 H          16.6150   -8.5251   14.8602 H         1 UNL1        0.0000
     48 H          16.7932   -3.5529   12.3627 H         1 UNL1        0.0000
     49 H          17.7089   -1.8373   14.4488 H         1 UNL1        0.0000
     50 H          16.8843   -2.5440   15.5019 H         1 UNL1        0.0000
     51 H          15.8167   -1.0316   12.9745 H         1 UNL1        0.0000
     52 H          14.6610   -1.6014   13.7750 H         1 UNL1        0.0000
     53 H          15.1855  -10.1541    9.0082 H         1 UNL1        0.0000
     54 H          14.7303  -12.0989   10.3579 H         1 UNL1        0.0000
     55 H          14.0461  -16.5861   11.6814 H         1 UNL1        0.0000
@<TRIPOS>BOND
     1    1   18 1
     2    1   21 1
     3    1   17 am
     4    2   19 1
     5    2   20 1
     6    2   22 am
     7    3    4 1
     8    3   12 2
     9    4    5 am
    10    4   55 1
    11    5   29 2
    12    5    6 1
    13    6    7 ar
    14    6   11 ar
    15    7    8 ar
    16    7   33 1
    17    8   34 1
    18    8    9 ar
    19    9   10 ar
    20    9   35 1
    21   10   11 ar
    22   10   36 1
    23   11   12 1
    24   12   13 1
    25   13   37 1
    26   13   38 1
    27   13   14 1
    28   14   15 ar
    29   14   28 ar
    30   15   39 1
    31   15   16 ar
    32   16   26 ar
    33   16   17 1
    34   17   31 2
    35   18   19 1
    36   18   40 1
    37   18   41 1
    38   19   42 1
    39   19   43 1
    40   20   21 1
    41   20   45 1
    42   20   44 1
    43   21   46 1
    44   21   47 1
    45   22   30 2
    46   22   23 1
    47   23   25 1
    48   23   24 1
    49   23   48 1
    50   24   25 1
    51   24   49 1
    52   24   50 1
    53   25   51 1
    54   25   52 1
    55   26   27 ar
    56   26   32 1
    57   27   28 ar
    58   27   53 1
    59   28   54 1
@<TRIPOS>SUBSTRUCTURE
1 UNL1 1
@<TRIPOS>COMMENT
Olaparib
PLANTSproteinTorsions
70
3 40.7368
48 238.7323
123 68.7455
171 110.3811
348 79.0546
606 139.8783
632 289.9071
655 111.0664
678 301.2848
700 329.2601
773 148.2426
807 87.9202
891 312.8535
933 123.1050
999 111.2460
1020 39.9582
1361 129.7826
1371 290.8516
1544 49.1141
1649 250.4345
1689 52.6734
1736 234.7434
1771 99.1410
2012 2.2137
2070 113.1124
2082 358.6867
2147 4.1823
2300 100.0553
2527 140.7180
2551 224.5016
2605 137.5908
2653 154.0555
2739 124.8886
2807 245.4057
2841 216.3726
2875 49.7397
2885 279.4127
2915 346.5758
3074 159.4643
3130 335.6220
3421 184.2801
3586 328.6226
3784 232.5620
3818 249.7089
3881 247.8830
3933 80.2044
4033 89.8949
4046 43.8761
4094 227.0095
4145 94.4688
4208 193.9530
4235 226.7265
4332 82.5634
4568 198.1824
4685 197.0216
4749 107.7911
4805 126.7450
4858 17.5193
4871 200.4702
4945 332.9005
4999 170.6428
5010 174.3495
5106 356.5897
5130 110.9951
5249 177.1939
5258 95.0147
5318 262.7560
5369 228.9596
5589 269.8726
5645 239.0672
PLANTSmolcadARTstart hb
PLANTSmolcadARTstart HB
LINES
19.0017 -8.09559 11.503 20.767 -9.275 11.654 0 255 0 5
PLANTSmolcadARTstart HBCH
LINES
PLANTSmolcadARTstart HB-CHO
LINES
PLANTSmolcadARTend
PLANTSmolcadARTstart HB_WATER
LINES
PLANTSmolcadARTend

PLANTSmolcadARTend

