@<TRIPOS>MOLECULE
Olaparib_entry_00001_conf_78
55 59 1
SMALL
NO_CHARGES


@<TRIPOS>ATOM
      1 N          30.3823  -14.8109   19.6095 N.am      1 UNL1        0.0000
      2 N          31.3282  -12.3920   19.6581 N.am      1 UNL1        0.0000
      3 N          27.3382  -14.7761   24.5564 N.2       1 UNL1        0.0000
      4 N          26.1242  -14.4505   24.9289 N.am      1 UNL1        0.0000
      5 C          25.7426  -14.3819   26.2121 C.2       1 UNL1        0.0000
      6 C          26.6674  -14.6668   27.1956 C.ar      1 UNL1        0.0000
      7 C          26.3179  -14.6299   28.5460 C.ar      1 UNL1        0.0000
      8 C          27.2526  -14.9392   29.5104 C.ar      1 UNL1        0.0000
      9 C          28.5150  -15.2785   29.0716 C.ar      1 UNL1        0.0000
     10 C          28.8756  -15.3195   27.7351 C.ar      1 UNL1        0.0000
     11 C          27.9438  -15.0092   26.7889 C.ar      1 UNL1        0.0000
     12 C          28.3119  -15.0718   25.4716 C.2       1 UNL1        0.0000
     13 C          29.6345  -15.3529   24.9288 C.3       1 UNL1        0.0000
     14 C          29.5330  -16.2312   23.7307 C.ar      1 UNL1        0.0000
     15 C          29.4666  -15.5640   22.4945 C.ar      1 UNL1        0.0000
     16 C          29.3607  -16.2886   21.3315 C.ar      1 UNL1        0.0000
     17 C          29.2853  -15.6153   20.0154 C.2       1 UNL1        0.0000
     18 C          30.3483  -14.1498   18.3451 C.3       1 UNL1        0.0000
     19 C          31.2014  -12.8998   18.3168 C.3       1 UNL1        0.0000
     20 C          31.9981  -13.2563   20.6360 C.3       1 UNL1        0.0000
     21 C          31.5221  -14.6795   20.4979 C.3       1 UNL1        0.0000
     22 C          30.8420  -11.1366   20.0348 C.2       1 UNL1        0.0000
     23 C          30.1427  -10.1707   19.1833 C.3       1 UNL1        0.0000
     24 C          28.8781   -9.5707   19.7550 C.3       1 UNL1        0.0000
     25 C          28.8068  -10.4811   18.6099 C.3       1 UNL1        0.0000
     26 C          29.3152  -17.6623   21.3003 C.ar      1 UNL1        0.0000
     27 C          29.3802  -18.3143   22.5109 C.ar      1 UNL1        0.0000
     28 C          29.4873  -17.5781   23.6994 C.ar      1 UNL1        0.0000
     29 O          24.5838  -14.0704   26.5890 O.2       1 UNL1        0.0000
     30 O          31.0159  -10.7726   21.2524 O.2       1 UNL1        0.0000
     31 O          28.2935  -15.7346   19.2598 O.2       1 UNL1        0.0000
     32 F          29.2089  -18.3366   20.1184 F         1 UNL1        0.0000
     33 H          25.3584  -14.3701   28.8232 H         1 UNL1        0.0000
     34 H          27.0182  -14.9185   30.5143 H         1 UNL1        0.0000
     35 H          29.2294  -15.5148   29.7772 H         1 UNL1        0.0000
     36 H          29.8351  -15.5806   27.4585 H         1 UNL1        0.0000
     37 H          30.2249  -15.8423   25.6751 H         1 UNL1        0.0000
     38 H          30.0928  -14.4298   24.6405 H         1 UNL1        0.0000
     39 H          29.4969  -14.5332   22.4608 H         1 UNL1        0.0000
     40 H          29.3360  -13.8790   18.1274 H         1 UNL1        0.0000
     41 H          30.7424  -14.8270   17.6156 H         1 UNL1        0.0000
     42 H          30.7382  -12.1627   17.6953 H         1 UNL1        0.0000
     43 H          32.1694  -13.1304   17.9227 H         1 UNL1        0.0000
     44 H          31.7796  -12.9071   21.6234 H         1 UNL1        0.0000
     45 H          33.0529  -13.2270   20.4590 H         1 UNL1        0.0000
     46 H          31.2430  -15.0419   21.4653 H         1 UNL1        0.0000
     47 H          32.3243  -15.2466   20.0758 H         1 UNL1        0.0000
     48 H          31.0634   -9.8247   18.7627 H         1 UNL1        0.0000
     49 H          28.6734   -8.5285   19.6239 H         1 UNL1        0.0000
     50 H          28.4279   -9.5362   20.7251 H         1 UNL1        0.0000
     51 H          28.5413  -10.1008   17.6456 H         1 UNL1        0.0000
     52 H          28.2726  -11.3849   18.4073 H         1 UNL1        0.0000
     53 H          29.3504  -19.3460   22.5432 H         1 UNL1        0.0000
     54 H          29.5339  -18.0917   24.5936 H         1 UNL1        0.0000
     55 H          25.4599  -14.2457   24.2313 H         1 UNL1        0.0000
@<TRIPOS>BOND
     1    1   18 1
     2    1   21 1
     3    1   17 am
     4    2   19 1
     5    2   20 1
     6    2   22 am
     7    3    4 1
     8    3   12 2
     9    4    5 am
    10    4   55 1
    11    5   29 2
    12    5    6 1
    13    6    7 ar
    14    6   11 ar
    15    7    8 ar
    16    7   33 1
    17    8   34 1
    18    8    9 ar
    19    9   10 ar
    20    9   35 1
    21   10   11 ar
    22   10   36 1
    23   11   12 1
    24   12   13 1
    25   13   37 1
    26   13   38 1
    27   13   14 1
    28   14   15 ar
    29   14   28 ar
    30   15   39 1
    31   15   16 ar
    32   16   26 ar
    33   16   17 1
    34   17   31 2
    35   18   19 1
    36   18   40 1
    37   18   41 1
    38   19   42 1
    39   19   43 1
    40   20   21 1
    41   20   45 1
    42   20   44 1
    43   21   46 1
    44   21   47 1
    45   22   30 2
    46   22   23 1
    47   23   25 1
    48   23   24 1
    49   23   48 1
    50   24   25 1
    51   24   49 1
    52   24   50 1
    53   25   51 1
    54   25   52 1
    55   26   27 ar
    56   26   32 1
    57   27   28 ar
    58   27   53 1
    59   28   54 1
@<TRIPOS>SUBSTRUCTURE
1 UNL1 1
@<TRIPOS>COMMENT
Olaparib
PLANTSproteinTorsions
70
3 305.4395
48 52.4910
123 317.3673
171 32.0842
348 151.2418
606 172.0697
632 182.3162
655 108.5674
678 147.9361
700 131.2225
773 90.7768
807 115.7925
891 118.6624
933 239.2499
999 277.6828
1020 222.0607
1361 274.7565
1371 107.0900
1544 63.1230
1649 109.7273
1689 69.8519
1736 321.8748
1771 131.4983
2012 172.0423
2070 241.1219
2082 126.7261
2147 127.5261
2300 308.8087
2527 335.9977
2551 306.3878
2605 176.0099
2653 137.2290
2739 234.4217
2807 199.9682
2841 109.8774
2875 156.4951
2885 20.9143
2915 136.6764
3074 104.0636
3130 56.3773
3421 49.7753
3586 145.5489
3784 119.7623
3818 72.9310
3881 154.7318
3933 117.5306
4033 250.0079
4046 82.7008
4094 6.9034
4145 293.3435
4208 166.6733
4235 20.7777
4332 160.6289
4568 244.7049
4685 33.3374
4749 281.4257
4805 30.7123
4858 18.6216
4871 71.4271
4945 106.3374
4999 238.1972
5010 107.9174
5106 145.5490
5130 112.9482
5249 315.9417
5258 17.4065
5318 169.3860
5369 302.8701
5589 51.2120
5645 308.8885
PLANTSmolcadARTstart hb
PLANTSmolcadARTstart HB
LINES
25.4599 -14.2457 24.2313 25.484 -13.109 22.55 0 255 0 5
31.0159 -10.7726 21.2524 31.474 -10.517 23.332 0 255 0 5
PLANTSmolcadARTstart HBCH
LINES
PLANTSmolcadARTstart HB-CHO
LINES
PLANTSmolcadARTend
PLANTSmolcadARTstart HB_WATER
LINES
PLANTSmolcadARTend

PLANTSmolcadARTend

