@<TRIPOS>MOLECULE
Olaparib_entry_00001_conf_16
55 59 1
SMALL
NO_CHARGES


@<TRIPOS>ATOM
      1 N          16.6660   -5.3512   15.1410 N.am      1 UNL1        0.0000
      2 N          15.8272   -2.9548   15.6903 N.am      1 UNL1        0.0000
      3 N          14.1720  -11.1162   10.7157 N.2       1 UNL1        0.0000
      4 N          13.4157  -11.6002    9.7606 N.am      1 UNL1        0.0000
      5 C          13.7351  -11.5257    8.4609 C.2       1 UNL1        0.0000
      6 C          14.9167  -10.9101    8.1022 C.ar      1 UNL1        0.0000
      7 C          15.2878  -10.7874    6.7627 C.ar      1 UNL1        0.0000
      8 C          16.4624  -10.1496    6.4266 C.ar      1 UNL1        0.0000
      9 C          17.2238   -9.6542    7.4640 C.ar      1 UNL1        0.0000
     10 C          16.8677   -9.7684    8.7974 C.ar      1 UNL1        0.0000
     11 C          15.7047  -10.4036    9.1193 C.ar      1 UNL1        0.0000
     12 C          15.3589  -10.4924   10.4411 C.2       1 UNL1        0.0000
     13 C          16.1347  -10.0589   11.5957 C.3       1 UNL1        0.0000
     14 C          16.1167   -8.5745   11.7115 C.ar      1 UNL1        0.0000
     15 C          16.7603   -8.0476   12.8454 C.ar      1 UNL1        0.0000
     16 C          16.7878   -6.6882   13.0458 C.ar      1 UNL1        0.0000
     17 C          17.4543   -6.1034   14.2312 C.2       1 UNL1        0.0000
     18 C          17.2721   -4.7759   16.2981 C.3       1 UNL1        0.0000
     19 C          16.5372   -3.5487   16.7930 C.3       1 UNL1        0.0000
     20 C          14.7794   -3.7652   15.0599 C.3       1 UNL1        0.0000
     21 C          15.2502   -5.1843   14.8705 C.3       1 UNL1        0.0000
     22 C          16.1068   -1.6671   15.2236 C.2       1 UNL1        0.0000
     23 C          17.1252   -0.7461   15.7351 C.3       1 UNL1        0.0000
     24 C          16.6138    0.5222   16.3801 C.3       1 UNL1        0.0000
     25 C          17.3384    0.5850   15.1088 C.3       1 UNL1        0.0000
     26 C          16.2104   -5.7869   12.1832 C.ar      1 UNL1        0.0000
     27 C          15.5806   -6.3038   11.0736 C.ar      1 UNL1        0.0000
     28 C          15.5498   -7.6903   10.8666 C.ar      1 UNL1        0.0000
     29 O          13.0237  -11.9848    7.5309 O.2       1 UNL1        0.0000
     30 O          15.4086   -1.2258   14.2422 O.2       1 UNL1        0.0000
     31 O          18.6784   -6.2525   14.4507 O.2       1 UNL1        0.0000
     32 F          16.2642   -4.4451   12.4270 F         1 UNL1        0.0000
     33 H          14.6823  -11.1753    6.0224 H         1 UNL1        0.0000
     34 H          16.7580  -10.0472    5.4441 H         1 UNL1        0.0000
     35 H          18.1063   -9.1720    7.2342 H         1 UNL1        0.0000
     36 H          17.4732   -9.3792    9.5372 H         1 UNL1        0.0000
     37 H          17.1459  -10.3913   11.4856 H         1 UNL1        0.0000
     38 H          15.7013  -10.4780   12.4800 H         1 UNL1        0.0000
     39 H          17.2104   -8.6799   13.5253 H         1 UNL1        0.0000
     40 H          18.2774   -4.4993   16.0563 H         1 UNL1        0.0000
     41 H          17.2401   -5.5087   17.0779 H         1 UNL1        0.0000
     42 H          17.2388   -2.8455   17.1899 H         1 UNL1        0.0000
     43 H          15.8469   -3.8255   17.5627 H         1 UNL1        0.0000
     44 H          14.5350   -3.3460   14.1064 H         1 UNL1        0.0000
     45 H          13.9170   -3.7699   15.6932 H         1 UNL1        0.0000
     46 H          15.0607   -5.4750   13.8582 H         1 UNL1        0.0000
     47 H          14.7167   -5.7950   15.5673 H         1 UNL1        0.0000
     48 H          17.7777   -1.5553   15.9877 H         1 UNL1        0.0000
     49 H          17.0708    0.8892   17.2755 H         1 UNL1        0.0000
     50 H          15.6612    0.8641   16.7273 H         1 UNL1        0.0000
     51 H          18.3215    1.0066   15.0788 H         1 UNL1        0.0000
     52 H          17.1241    1.0012   14.1475 H         1 UNL1        0.0000
     53 H          15.1311   -5.6699   10.3937 H         1 UNL1        0.0000
     54 H          15.0706   -8.0517   10.0267 H         1 UNL1        0.0000
     55 H          12.5713  -12.0410   10.0105 H         1 UNL1        0.0000
@<TRIPOS>BOND
     1    1   18 1
     2    1   21 1
     3    1   17 am
     4    2   19 1
     5    2   20 1
     6    2   22 am
     7    3    4 1
     8    3   12 2
     9    4    5 am
    10    4   55 1
    11    5   29 2
    12    5    6 1
    13    6    7 ar
    14    6   11 ar
    15    7    8 ar
    16    7   33 1
    17    8   34 1
    18    8    9 ar
    19    9   10 ar
    20    9   35 1
    21   10   11 ar
    22   10   36 1
    23   11   12 1
    24   12   13 1
    25   13   37 1
    26   13   38 1
    27   13   14 1
    28   14   15 ar
    29   14   28 ar
    30   15   39 1
    31   15   16 ar
    32   16   26 ar
    33   16   17 1
    34   17   31 2
    35   18   19 1
    36   18   40 1
    37   18   41 1
    38   19   42 1
    39   19   43 1
    40   20   21 1
    41   20   45 1
    42   20   44 1
    43   21   46 1
    44   21   47 1
    45   22   30 2
    46   22   23 1
    47   23   25 1
    48   23   24 1
    49   23   48 1
    50   24   25 1
    51   24   49 1
    52   24   50 1
    53   25   51 1
    54   25   52 1
    55   26   27 ar
    56   26   32 1
    57   27   28 ar
    58   27   53 1
    59   28   54 1
@<TRIPOS>SUBSTRUCTURE
1 UNL1 1
@<TRIPOS>COMMENT
Olaparib
PLANTSproteinTorsions
70
3 118.3897
48 254.0311
123 12.2244
171 23.7697
348 68.2781
606 52.0019
632 91.0767
655 116.1669
678 249.1885
700 100.9127
773 158.1288
807 223.2931
891 37.5063
933 107.7451
999 162.8505
1020 92.7852
1361 242.6702
1371 111.8788
1544 269.8321
1649 318.2074
1689 224.9436
1736 220.0866
1771 171.2755
2012 192.4231
2070 73.6004
2082 49.4301
2147 223.3883
2300 175.0077
2527 245.6327
2551 273.2364
2605 313.7408
2653 221.8545
2739 211.6431
2807 132.1048
2841 114.7761
2875 15.2495
2885 345.4498
2915 175.9278
3074 216.1500
3130 281.3647
3421 204.4208
3586 157.4854
3784 197.0050
3818 108.2853
3881 142.0337
3933 58.3613
4033 78.3558
4046 91.2709
4094 64.3872
4145 207.9801
4208 135.8937
4235 106.4336
4332 228.6151
4568 69.7099
4685 1.4023
4749 325.4520
4805 150.5312
4858 172.1912
4871 331.1725
4945 171.7801
4999 203.2605
5010 252.8014
5106 252.3957
5130 159.7945
5249 317.0860
5258 174.5592
5318 212.4371
5369 94.8398
5589 256.9006
5645 230.7750
PLANTSmolcadARTstart hb
PLANTSmolcadARTstart HB
LINES
14.172 -11.1162 10.7157 13.06 -9.621 11.732 0 255 0 5
PLANTSmolcadARTstart HBCH
LINES
PLANTSmolcadARTstart HB-CHO
LINES
PLANTSmolcadARTend
PLANTSmolcadARTstart HB_WATER
LINES
PLANTSmolcadARTend

PLANTSmolcadARTend

