@<TRIPOS>MOLECULE
Olaparib_entry_00001_conf_51
55 59 1
SMALL
NO_CHARGES


@<TRIPOS>ATOM
      1 N          18.5149   -4.5835   16.1700 N.am      1 UNL1        0.0000
      2 N          18.0492   -2.2125   17.1239 N.am      1 UNL1        0.0000
      3 N          16.6085   -8.5809   10.6833 N.2       1 UNL1        0.0000
      4 N          16.8814   -8.8586    9.4315 N.am      1 UNL1        0.0000
      5 C          17.3497  -10.0479    9.0276 C.2       1 UNL1        0.0000
      6 C          17.5579  -11.0339    9.9700 C.ar      1 UNL1        0.0000
      7 C          18.0627  -12.2830    9.6068 C.ar      1 UNL1        0.0000
      8 C          18.2828  -13.2456   10.5683 C.ar      1 UNL1        0.0000
      9 C          17.9840  -12.9077   11.8713 C.ar      1 UNL1        0.0000
     10 C          17.4830  -11.6722   12.2461 C.ar      1 UNL1        0.0000
     11 C          17.2664  -10.7276   11.2865 C.ar      1 UNL1        0.0000
     12 C          16.7874   -9.5057   11.6762 C.2       1 UNL1        0.0000
     13 C          16.3839   -9.0925   13.0140 C.3       1 UNL1        0.0000
     14 C          16.4860   -7.6140   13.1586 C.ar      1 UNL1        0.0000
     15 C          17.5536   -7.1552   13.9507 C.ar      1 UNL1        0.0000
     16 C          17.7250   -5.8066   14.1520 C.ar      1 UNL1        0.0000
     17 C          18.8369   -5.2929   14.9834 C.2       1 UNL1        0.0000
     18 C          19.5597   -4.0772   17.0001 C.3       1 UNL1        0.0000
     19 C          19.1307   -2.8717   17.8087 C.3       1 UNL1        0.0000
     20 C          16.8108   -2.9780   16.9443 C.3       1 UNL1        0.0000
     21 C          17.1186   -4.3891   16.5139 C.3       1 UNL1        0.0000
     22 C          18.1520   -0.9042   16.6425 C.2       1 UNL1        0.0000
     23 C          19.3184   -0.0217   16.7309 C.3       1 UNL1        0.0000
     24 C          19.2449    1.0792   17.7648 C.3       1 UNL1        0.0000
     25 C          19.2283    1.4091   16.3379 C.3       1 UNL1        0.0000
     26 C          16.8961   -4.8521   13.6119 C.ar      1 UNL1        0.0000
     27 C          15.8514   -5.3023   12.8367 C.ar      1 UNL1        0.0000
     28 C          15.6730   -6.6777   12.6302 C.ar      1 UNL1        0.0000
     29 O          17.6161  -10.3335    7.8321 O.2       1 UNL1        0.0000
     30 O          17.1265   -0.4041   16.0564 O.2       1 UNL1        0.0000
     31 O          20.0380   -5.4649   14.6728 O.2       1 UNL1        0.0000
     32 F          17.1081   -3.5236   13.8420 F         1 UNL1        0.0000
     33 H          18.2710  -12.4868    8.6168 H         1 UNL1        0.0000
     34 H          18.6546  -14.1759   10.3242 H         1 UNL1        0.0000
     35 H          18.1427  -13.6134   12.6068 H         1 UNL1        0.0000
     36 H          17.2760  -11.4686   13.2365 H         1 UNL1        0.0000
     37 H          17.0208   -9.5616   13.7346 H         1 UNL1        0.0000
     38 H          15.3666   -9.3840   13.1733 H         1 UNL1        0.0000
     39 H          18.2062   -7.8294   14.3800 H         1 UNL1        0.0000
     40 H          20.3852   -3.7973   16.3790 H         1 UNL1        0.0000
     41 H          19.8281   -4.8506   17.6899 H         1 UNL1        0.0000
     42 H          19.9546   -2.1975   17.9132 H         1 UNL1        0.0000
     43 H          18.8089   -3.1831   18.7808 H         1 UNL1        0.0000
     44 H          16.2096   -2.5057   16.1959 H         1 UNL1        0.0000
     45 H          16.2845   -3.0088   17.8755 H         1 UNL1        0.0000
     46 H          16.5215   -4.6229   15.6571 H         1 UNL1        0.0000
     47 H          16.8996   -5.0316   17.3399 H         1 UNL1        0.0000
     48 H          19.9825   -0.8181   16.4683 H         1 UNL1        0.0000
     49 H          20.1037    1.3140   18.3586 H         1 UNL1        0.0000
     50 H          18.6104    1.2927   18.5995 H         1 UNL1        0.0000
     51 H          20.0740    1.8926   15.8953 H         1 UNL1        0.0000
     52 H          18.5705    1.9710   15.7095 H         1 UNL1        0.0000
     53 H          15.1994   -4.6265   12.4072 H         1 UNL1        0.0000
     54 H          14.8815   -6.9885   12.0450 H         1 UNL1        0.0000
     55 H          16.7345   -8.1588    8.7543 H         1 UNL1        0.0000
@<TRIPOS>BOND
     1    1   18 1
     2    1   21 1
     3    1   17 am
     4    2   19 1
     5    2   20 1
     6    2   22 am
     7    3    4 1
     8    3   12 2
     9    4    5 am
    10    4   55 1
    11    5   29 2
    12    5    6 1
    13    6    7 ar
    14    6   11 ar
    15    7    8 ar
    16    7   33 1
    17    8   34 1
    18    8    9 ar
    19    9   10 ar
    20    9   35 1
    21   10   11 ar
    22   10   36 1
    23   11   12 1
    24   12   13 1
    25   13   37 1
    26   13   38 1
    27   13   14 1
    28   14   15 ar
    29   14   28 ar
    30   15   39 1
    31   15   16 ar
    32   16   26 ar
    33   16   17 1
    34   17   31 2
    35   18   19 1
    36   18   40 1
    37   18   41 1
    38   19   42 1
    39   19   43 1
    40   20   21 1
    41   20   45 1
    42   20   44 1
    43   21   46 1
    44   21   47 1
    45   22   30 2
    46   22   23 1
    47   23   25 1
    48   23   24 1
    49   23   48 1
    50   24   25 1
    51   24   49 1
    52   24   50 1
    53   25   51 1
    54   25   52 1
    55   26   27 ar
    56   26   32 1
    57   27   28 ar
    58   27   53 1
    59   28   54 1
@<TRIPOS>SUBSTRUCTURE
1 UNL1 1
@<TRIPOS>COMMENT
Olaparib
PLANTSproteinTorsions
70
3 136.3721
48 131.6609
123 189.8417
171 78.0128
348 275.7856
606 40.0550
632 236.0009
655 180.3896
678 140.4888
700 56.0321
773 155.8377
807 95.1560
891 140.5086
933 179.9227
999 249.1786
1020 75.5270
1361 109.8990
1371 16.4364
1544 184.1069
1649 347.7152
1689 357.7286
1736 101.1102
1771 137.1034
2012 243.8138
2070 226.2130
2082 226.0167
2147 335.3728
2300 114.6876
2527 139.0644
2551 260.6493
2605 210.8048
2653 228.6961
2739 356.1273
2807 76.1642
2841 107.4498
2875 12.3785
2885 348.2664
2915 250.5829
3074 90.7611
3130 238.9585
3421 195.7058
3586 60.9719
3784 141.7315
3818 215.8832
3881 88.9007
3933 9.4028
4033 64.5125
4046 56.7541
4094 57.4789
4145 23.1338
4208 79.8708
4235 52.0655
4332 138.1716
4568 267.8750
4685 36.2588
4749 12.7008
4805 162.6923
4858 139.9997
4871 241.2908
4945 209.0229
4999 191.1737
5010 218.9484
5106 230.9098
5130 267.3751
5249 130.3228
5258 24.1006
5318 215.8518
5369 76.6284
5589 73.4795
5645 164.0905
PLANTSmolcadARTstart hb
PLANTSmolcadARTstart HB
LINES
PLANTSmolcadARTstart HBCH
LINES
PLANTSmolcadARTstart HB-CHO
LINES
PLANTSmolcadARTend
PLANTSmolcadARTstart HB_WATER
LINES
PLANTSmolcadARTend

PLANTSmolcadARTend

