@<TRIPOS>MOLECULE
Olaparib_entry_00001_conf_32
55 59 1
SMALL
NO_CHARGES


@<TRIPOS>ATOM
      1 N          16.9560   -9.4058   11.4697 N.am      1 UNL1        0.0000
      2 N          17.3653   -9.8516    8.9434 N.am      1 UNL1        0.0000
      3 N          18.4100   -5.5257   16.9004 N.2       1 UNL1        0.0000
      4 N          18.1306   -4.8280   17.9744 N.am      1 UNL1        0.0000
      5 C          18.6841   -3.6368   18.2418 C.2       1 UNL1        0.0000
      6 C          19.5943   -3.1122   17.3473 C.ar      1 UNL1        0.0000
      7 C          20.2150   -1.8857   17.5866 C.ar      1 UNL1        0.0000
      8 C          21.1372   -1.3912   16.6896 C.ar      1 UNL1        0.0000
      9 C          21.4013   -2.1607   15.5763 C.ar      1 UNL1        0.0000
     10 C          20.7932   -3.3795   15.3263 C.ar      1 UNL1        0.0000
     11 C          19.8803   -3.8586   16.2190 C.ar      1 UNL1        0.0000
     12 C          19.3015   -5.0732   15.9656 C.2       1 UNL1        0.0000
     13 C          19.4726   -5.9129   14.7872 C.3       1 UNL1        0.0000
     14 C          18.2242   -5.9373   13.9758 C.ar      1 UNL1        0.0000
     15 C          17.7843   -7.2130   13.5797 C.ar      1 UNL1        0.0000
     16 C          16.6466   -7.3378   12.8189 C.ar      1 UNL1        0.0000
     17 C          16.1601   -8.6663   12.3834 C.2       1 UNL1        0.0000
     18 C          16.5223  -10.6927   11.0305 C.3       1 UNL1        0.0000
     19 C          17.0708  -11.0602    9.6684 C.3       1 UNL1        0.0000
     20 C          18.3893   -8.9679    9.5113 C.3       1 UNL1        0.0000
     21 C          18.2027   -8.8303   11.0004 C.3       1 UNL1        0.0000
     22 C          16.7172   -9.5142    7.7516 C.2       1 UNL1        0.0000
     23 C          15.6701  -10.2802    7.0705 C.3       1 UNL1        0.0000
     24 C          16.1162  -11.5453    6.3728 C.3       1 UNL1        0.0000
     25 C          15.6491  -10.3997    5.5890 C.3       1 UNL1        0.0000
     26 C          15.8908   -6.2645   12.4105 C.ar      1 UNL1        0.0000
     27 C          16.3223   -5.0164   12.7989 C.ar      1 UNL1        0.0000
     28 C          17.4833   -4.8853   13.5743 C.ar      1 UNL1        0.0000
     29 O          18.4279   -2.9523   19.2654 O.2       1 UNL1        0.0000
     30 O          17.0609   -8.4201    7.1772 O.2       1 UNL1        0.0000
     31 O          15.0799   -9.1496   12.7937 O.2       1 UNL1        0.0000
     32 F          14.7682   -6.4408   11.6546 F         1 UNL1        0.0000
     33 H          19.9830   -1.3475   18.4361 H         1 UNL1        0.0000
     34 H          21.6085   -0.4873   16.8444 H         1 UNL1        0.0000
     35 H          22.0895   -1.8095   14.8928 H         1 UNL1        0.0000
     36 H          21.0266   -3.9178   14.4771 H         1 UNL1        0.0000
     37 H          19.7114   -6.9091   15.0961 H         1 UNL1        0.0000
     38 H          20.2636   -5.5110   14.1888 H         1 UNL1        0.0000
     39 H          18.3145   -8.0529   13.8591 H         1 UNL1        0.0000
     40 H          15.4532  -10.6955   10.9817 H         1 UNL1        0.0000
     41 H          16.8882  -11.4138   11.7320 H         1 UNL1        0.0000
     42 H          16.3449  -11.6340    9.1317 H         1 UNL1        0.0000
     43 H          17.9619  -11.6422    9.7815 H         1 UNL1        0.0000
     44 H          18.3133   -8.0023    9.0570 H         1 UNL1        0.0000
     45 H          19.3543   -9.3899    9.3225 H         1 UNL1        0.0000
     46 H          18.2130   -7.7901   11.2514 H         1 UNL1        0.0000
     47 H          18.9997   -9.3628   11.4743 H         1 UNL1        0.0000
     48 H          14.9402   -9.9923    7.7976 H         1 UNL1        0.0000
     49 H          15.5182  -12.4305    6.4357 H         1 UNL1        0.0000
     50 H          17.0027  -12.1443    6.3852 H         1 UNL1        0.0000
     51 H          14.7128  -10.4557    5.0739 H         1 UNL1        0.0000
     52 H          16.0626   -9.8255    4.7874 H         1 UNL1        0.0000
     53 H          15.7905   -4.1767   12.5191 H         1 UNL1        0.0000
     54 H          17.7851   -3.9379   13.8517 H         1 UNL1        0.0000
     55 H          17.4813   -5.1972   18.6163 H         1 UNL1        0.0000
@<TRIPOS>BOND
     1    1   18 1
     2    1   21 1
     3    1   17 am
     4    2   19 1
     5    2   20 1
     6    2   22 am
     7    3    4 1
     8    3   12 2
     9    4    5 am
    10    4   55 1
    11    5   29 2
    12    5    6 1
    13    6    7 ar
    14    6   11 ar
    15    7    8 ar
    16    7   33 1
    17    8   34 1
    18    8    9 ar
    19    9   10 ar
    20    9   35 1
    21   10   11 ar
    22   10   36 1
    23   11   12 1
    24   12   13 1
    25   13   37 1
    26   13   38 1
    27   13   14 1
    28   14   15 ar
    29   14   28 ar
    30   15   39 1
    31   15   16 ar
    32   16   26 ar
    33   16   17 1
    34   17   31 2
    35   18   19 1
    36   18   40 1
    37   18   41 1
    38   19   42 1
    39   19   43 1
    40   20   21 1
    41   20   45 1
    42   20   44 1
    43   21   46 1
    44   21   47 1
    45   22   30 2
    46   22   23 1
    47   23   25 1
    48   23   24 1
    49   23   48 1
    50   24   25 1
    51   24   49 1
    52   24   50 1
    53   25   51 1
    54   25   52 1
    55   26   27 ar
    56   26   32 1
    57   27   28 ar
    58   27   53 1
    59   28   54 1
@<TRIPOS>SUBSTRUCTURE
1 UNL1 1
@<TRIPOS>COMMENT
Olaparib
PLANTSproteinTorsions
70
3 29.7783
48 229.9185
123 46.9991
171 314.6749
348 49.4554
606 244.1922
632 18.1620
655 190.2299
678 133.3203
700 39.3885
773 107.7497
807 113.1749
891 199.1241
933 168.4493
999 6.7601
1020 128.4978
1361 276.7405
1371 161.6512
1544 181.9908
1649 356.6398
1689 334.6739
1736 25.5497
1771 139.6453
2012 190.2372
2070 173.4410
2082 226.9227
2147 215.7193
2300 208.6868
2527 192.6683
2551 204.9188
2605 261.7485
2653 72.2199
2739 82.1459
2807 219.6302
2841 96.2872
2875 185.5515
2885 356.5986
2915 212.0430
3074 191.6797
3130 55.4772
3421 224.7328
3586 287.1125
3784 52.9900
3818 247.4856
3881 136.5447
3933 41.7925
4033 29.0408
4046 195.1218
4094 12.3181
4145 208.4004
4208 86.6420
4235 148.5427
4332 218.7388
4568 64.0650
4685 279.1963
4749 123.6758
4805 112.7264
4858 139.4188
4871 209.4417
4945 270.8687
4999 191.6107
5010 217.3678
5106 29.5318
5130 98.0475
5249 218.7523
5258 286.5609
5318 237.9113
5369 300.1966
5589 113.9725
5645 349.8490
PLANTSmolcadARTstart hb
PLANTSmolcadARTstart HB
LINES
18.4279 -2.95233 19.2654 18.799 -3.091 20.86 0 255 0 5
PLANTSmolcadARTstart HBCH
LINES
PLANTSmolcadARTstart HB-CHO
LINES
18.4279 -2.95233 19.2654 16.661 -1.26 18.856 0 255 255 5
PLANTSmolcadARTend
PLANTSmolcadARTstart HB_WATER
LINES
PLANTSmolcadARTend

PLANTSmolcadARTend

