@<TRIPOS>MOLECULE
Olaparib_entry_00001_conf_01
55 59 1
SMALL
NO_CHARGES


@<TRIPOS>ATOM
      1 N          17.5181   -9.6326   10.8537 N.am      1 UNL1        0.0000
      2 N          17.2197  -12.1133   11.5648 N.am      1 UNL1        0.0000
      3 N          18.6697   -5.2084   14.5851 N.2       1 UNL1        0.0000
      4 N          19.7769   -4.5109   14.6639 N.am      1 UNL1        0.0000
      5 C          20.1044   -3.7699   15.7319 C.2       1 UNL1        0.0000
      6 C          19.2384   -3.7341   16.8055 C.ar      1 UNL1        0.0000
      7 C          19.5209   -2.9633   17.9338 C.ar      1 UNL1        0.0000
      8 C          18.6309   -2.9257   18.9855 C.ar      1 UNL1        0.0000
      9 C          17.4791   -3.6726   18.8569 C.ar      1 UNL1        0.0000
     10 C          17.1857   -4.4416   17.7431 C.ar      1 UNL1        0.0000
     11 C          18.0742   -4.4738   16.7090 C.ar      1 UNL1        0.0000
     12 C          17.7607   -5.2250   15.6081 C.2       1 UNL1        0.0000
     13 C          16.6046   -6.0919   15.4212 C.3       1 UNL1        0.0000
     14 C          16.3486   -6.3183   13.9719 C.ar      1 UNL1        0.0000
     15 C          17.2406   -7.1951   13.3291 C.ar      1 UNL1        0.0000
     16 C          17.0923   -7.4594   11.9886 C.ar      1 UNL1        0.0000
     17 C          18.0170   -8.3749   11.2829 C.2       1 UNL1        0.0000
     18 C          18.3782  -10.5403   10.1658 C.3       1 UNL1        0.0000
     19 C          17.9590  -11.9847   10.3360 C.3       1 UNL1        0.0000
     20 C          15.9621  -11.3648   11.6659 C.3       1 UNL1        0.0000
     21 C          16.1329   -9.9679   11.1269 C.3       1 UNL1        0.0000
     22 C          17.6609  -12.9080   12.6269 C.2       1 UNL1        0.0000
     23 C          18.8933  -13.6987   12.6832 C.3       1 UNL1        0.0000
     24 C          18.9825  -14.8639   11.7237 C.3       1 UNL1        0.0000
     25 C          18.8800  -15.1050   13.1648 C.3       1 UNL1        0.0000
     26 C          16.0990   -6.9056   11.2161 C.ar      1 UNL1        0.0000
     27 C          15.2265   -6.0475   11.8463 C.ar      1 UNL1        0.0000
     28 C          15.3755   -5.7749   13.2137 C.ar      1 UNL1        0.0000
     29 O          21.1617   -3.0955   15.8267 O.2       1 UNL1        0.0000
     30 O          16.9225  -12.9641   13.6742 O.2       1 UNL1        0.0000
     31 O          19.2116   -8.0741   11.0568 O.2       1 UNL1        0.0000
     32 F          15.9941   -7.1994    9.8874 F         1 UNL1        0.0000
     33 H          20.3977   -2.4210   17.9814 H         1 UNL1        0.0000
     34 H          18.8179   -2.3641   19.8298 H         1 UNL1        0.0000
     35 H          16.7988   -3.6574   19.6323 H         1 UNL1        0.0000
     36 H          16.3080   -4.9827   17.6957 H         1 UNL1        0.0000
     37 H          15.7449   -5.6329   15.8632 H         1 UNL1        0.0000
     38 H          16.8014   -7.0352   15.8870 H         1 UNL1        0.0000
     39 H          18.0045   -7.6386   13.8623 H         1 UNL1        0.0000
     40 H          19.3721  -10.4247   10.5456 H         1 UNL1        0.0000
     41 H          18.3242  -10.3087    9.1220 H         1 UNL1        0.0000
     42 H          18.8269  -12.6090   10.3713 H         1 UNL1        0.0000
     43 H          17.3468  -12.2842    9.5108 H         1 UNL1        0.0000
     44 H          15.6649  -11.3114   12.6923 H         1 UNL1        0.0000
     45 H          15.2128  -11.8671   11.0903 H         1 UNL1        0.0000
     46 H          15.7507   -9.2746   11.8469 H         1 UNL1        0.0000
     47 H          15.6016   -9.9142   10.2005 H         1 UNL1        0.0000
     48 H          19.4737  -12.8372   12.9387 H         1 UNL1        0.0000
     49 H          19.8998  -15.0659   11.2110 H         1 UNL1        0.0000
     50 H          18.4323  -15.1785   10.8616 H         1 UNL1        0.0000
     51 H          19.7227  -15.4913   13.6992 H         1 UNL1        0.0000
     52 H          18.2194  -15.6775   13.7804 H         1 UNL1        0.0000
     53 H          14.4620   -5.6049   11.3117 H         1 UNL1        0.0000
     54 H          14.7079   -5.1275   13.6618 H         1 UNL1        0.0000
     55 H          20.3990   -4.5329   13.9009 H         1 UNL1        0.0000
@<TRIPOS>BOND
     1    1   18 1
     2    1   21 1
     3    1   17 am
     4    2   19 1
     5    2   20 1
     6    2   22 am
     7    3    4 1
     8    3   12 2
     9    4    5 am
    10    4   55 1
    11    5   29 2
    12    5    6 1
    13    6    7 ar
    14    6   11 ar
    15    7    8 ar
    16    7   33 1
    17    8   34 1
    18    8    9 ar
    19    9   10 ar
    20    9   35 1
    21   10   11 ar
    22   10   36 1
    23   11   12 1
    24   12   13 1
    25   13   37 1
    26   13   38 1
    27   13   14 1
    28   14   15 ar
    29   14   28 ar
    30   15   39 1
    31   15   16 ar
    32   16   26 ar
    33   16   17 1
    34   17   31 2
    35   18   19 1
    36   18   40 1
    37   18   41 1
    38   19   42 1
    39   19   43 1
    40   20   21 1
    41   20   45 1
    42   20   44 1
    43   21   46 1
    44   21   47 1
    45   22   30 2
    46   22   23 1
    47   23   25 1
    48   23   24 1
    49   23   48 1
    50   24   25 1
    51   24   49 1
    52   24   50 1
    53   25   51 1
    54   25   52 1
    55   26   27 ar
    56   26   32 1
    57   27   28 ar
    58   27   53 1
    59   28   54 1
@<TRIPOS>SUBSTRUCTURE
1 UNL1 1
@<TRIPOS>COMMENT
Olaparib
PLANTSproteinTorsions
70
3 35.9767
48 127.7402
123 87.4563
171 31.0394
348 337.9842
606 38.7535
632 32.8591
655 146.4481
678 246.5008
700 78.4312
773 157.7620
807 96.4015
891 199.5895
933 167.0310
999 243.4068
1020 83.5084
1361 247.7903
1371 303.2967
1544 189.2272
1649 298.6914
1689 46.1994
1736 148.2523
1771 10.1580
2012 255.2818
2070 217.2222
2082 108.4006
2147 225.5985
2300 265.7876
2527 120.8746
2551 260.8059
2605 328.7875
2653 157.7292
2739 20.3698
2807 185.0973
2841 269.1866
2875 147.2425
2885 253.2104
2915 182.5377
3074 137.4579
3130 73.1921
3421 192.1850
3586 210.1024
3784 148.2595
3818 229.0846
3881 51.0832
3933 63.7589
4033 299.6353
4046 51.5783
4094 76.8247
4145 200.3395
4208 147.7841
4235 18.0541
4332 240.9003
4568 167.4908
4685 119.9147
4749 336.6325
4805 246.7498
4858 155.2643
4871 302.7557
4945 192.2702
4999 202.5681
5010 217.9939
5106 252.7108
5130 97.2994
5249 213.8880
5258 168.0504
5318 221.7927
5369 109.6138
5589 120.0631
5645 326.1114
PLANTSmolcadARTstart hb
PLANTSmolcadARTstart HB
LINES
20.399 -4.53292 13.9009 20.438 -5.186 11.928 0 255 0 5
19.2116 -8.07414 11.0568 19.8073 -7.66818 9.13192 0 255 0 5
19.2116 -8.07414 11.0568 20.767 -9.275 11.654 0 255 0 5
PLANTSmolcadARTstart HBCH
LINES
PLANTSmolcadARTstart HB-CHO
LINES
PLANTSmolcadARTend
PLANTSmolcadARTstart HB_WATER
LINES
PLANTSmolcadARTend

PLANTSmolcadARTend

