@<TRIPOS>MOLECULE
Olaparib_entry_00001_conf_64
55 59 1
SMALL
NO_CHARGES


@<TRIPOS>ATOM
      1 N          11.1614  -15.1050   22.5414 N.am      1 UNL1        0.0000
      2 N          12.5131  -17.1920   23.2935 N.am      1 UNL1        0.0000
      3 N           4.6833  -17.3909   19.7593 N.2       1 UNL1        0.0000
      4 N           3.3860  -17.3747   19.9473 N.am      1 UNL1        0.0000
      5 C           2.8019  -17.7936   21.0788 C.2       1 UNL1        0.0000
      6 C           3.5986  -18.2672   22.1008 C.ar      1 UNL1        0.0000
      7 C           3.0412  -18.7341   23.2918 C.ar      1 UNL1        0.0000
      8 C           3.8553  -19.2226   24.2909 C.ar      1 UNL1        0.0000
      9 C           5.2125  -19.2228   24.0475 C.ar      1 UNL1        0.0000
     10 C           5.7792  -18.7630   22.8705 C.ar      1 UNL1        0.0000
     11 C           4.9650  -18.2793   21.8893 C.ar      1 UNL1        0.0000
     12 C           5.5401  -17.8450   20.7252 C.2       1 UNL1        0.0000
     13 C           6.9607  -17.7481   20.4157 C.3       1 UNL1        0.0000
     14 C           7.4178  -16.3329   20.4917 C.ar      1 UNL1        0.0000
     15 C           8.3941  -16.0635   21.4673 C.ar      1 UNL1        0.0000
     16 C           8.8718  -14.7840   21.6211 C.ar      1 UNL1        0.0000
     17 C           9.8968  -14.4681   22.6413 C.2       1 UNL1        0.0000
     18 C          12.1768  -14.8221   23.5036 C.3       1 UNL1        0.0000
     19 C          13.1601  -15.9612   23.6670 C.3       1 UNL1        0.0000
     20 C          12.0610  -17.3106   21.9030 C.3       1 UNL1        0.0000
     21 C          11.3934  -16.0366   21.4532 C.3       1 UNL1        0.0000
     22 C          12.3129  -18.2394   24.1975 C.2       1 UNL1        0.0000
     23 C          12.6921  -18.2666   25.6127 C.3       1 UNL1        0.0000
     24 C          13.8898  -19.1190   25.9659 C.3       1 UNL1        0.0000
     25 C          12.5524  -19.5072   26.4195 C.3       1 UNL1        0.0000
     26 C           8.4437  -13.7225   20.8596 C.ar      1 UNL1        0.0000
     27 C           7.4880  -13.9875   19.9049 C.ar      1 UNL1        0.0000
     28 C           6.9977  -15.2916   19.7460 C.ar      1 UNL1        0.0000
     29 O           1.5602  -17.7846   21.2782 O.2       1 UNL1        0.0000
     30 O          11.7364  -19.2990   23.7615 O.2       1 UNL1        0.0000
     31 O           9.6818  -13.6645   23.5777 O.2       1 UNL1        0.0000
     32 F           8.9488  -12.4692   21.0515 F         1 UNL1        0.0000
     33 H           2.0181  -18.7131   23.4252 H         1 UNL1        0.0000
     34 H           3.4668  -19.5726   25.1797 H         1 UNL1        0.0000
     35 H           5.8396  -19.5856   24.7819 H         1 UNL1        0.0000
     36 H           6.8025  -18.7854   22.7374 H         1 UNL1        0.0000
     37 H           7.1321  -18.1209   19.4274 H         1 UNL1        0.0000
     38 H           7.5099  -18.3255   21.1299 H         1 UNL1        0.0000
     39 H           8.7506  -16.8242   22.0663 H         1 UNL1        0.0000
     40 H          11.7104  -14.6337   24.4483 H         1 UNL1        0.0000
     41 H          12.7236  -13.9701   23.1555 H         1 UNL1        0.0000
     42 H          13.4789  -16.0172   24.6865 H         1 UNL1        0.0000
     43 H          14.0136  -15.7956   23.0428 H         1 UNL1        0.0000
     44 H          11.3638  -18.1185   21.8265 H         1 UNL1        0.0000
     45 H          12.9094  -17.4945   21.2774 H         1 UNL1        0.0000
     46 H          10.4513  -16.2827   21.0094 H         1 UNL1        0.0000
     47 H          12.0496  -15.5590   20.7570 H         1 UNL1        0.0000
     48 H          12.3707  -17.2559   25.7525 H         1 UNL1        0.0000
     49 H          14.6116  -18.7621   26.6708 H         1 UNL1        0.0000
     50 H          14.6699  -19.5961   25.4101 H         1 UNL1        0.0000
     51 H          12.3044  -19.4401   27.4583 H         1 UNL1        0.0000
     52 H          11.9622  -20.3942   26.3297 H         1 UNL1        0.0000
     53 H           7.1325  -13.2254   19.3057 H         1 UNL1        0.0000
     54 H           6.2811  -15.4629   19.0230 H         1 UNL1        0.0000
     55 H           2.8124  -17.0374   19.2214 H         1 UNL1        0.0000
@<TRIPOS>BOND
     1    1   18 1
     2    1   21 1
     3    1   17 am
     4    2   19 1
     5    2   20 1
     6    2   22 am
     7    3    4 1
     8    3   12 2
     9    4    5 am
    10    4   55 1
    11    5   29 2
    12    5    6 1
    13    6    7 ar
    14    6   11 ar
    15    7    8 ar
    16    7   33 1
    17    8   34 1
    18    8    9 ar
    19    9   10 ar
    20    9   35 1
    21   10   11 ar
    22   10   36 1
    23   11   12 1
    24   12   13 1
    25   13   37 1
    26   13   38 1
    27   13   14 1
    28   14   15 ar
    29   14   28 ar
    30   15   39 1
    31   15   16 ar
    32   16   26 ar
    33   16   17 1
    34   17   31 2
    35   18   19 1
    36   18   40 1
    37   18   41 1
    38   19   42 1
    39   19   43 1
    40   20   21 1
    41   20   45 1
    42   20   44 1
    43   21   46 1
    44   21   47 1
    45   22   30 2
    46   22   23 1
    47   23   25 1
    48   23   24 1
    49   23   48 1
    50   24   25 1
    51   24   49 1
    52   24   50 1
    53   25   51 1
    54   25   52 1
    55   26   27 ar
    56   26   32 1
    57   27   28 ar
    58   27   53 1
    59   28   54 1
@<TRIPOS>SUBSTRUCTURE
1 UNL1 1
@<TRIPOS>COMMENT
Olaparib
PLANTSproteinTorsions
70
3 145.4800
48 292.5452
123 348.4144
171 344.5630
348 335.6437
606 1.4150
632 213.2128
655 312.8480
678 25.0576
700 95.4514
773 89.9509
807 181.3501
891 161.5314
933 134.7711
999 352.3643
1020 257.3091
1361 198.0112
1371 71.4951
1544 288.9538
1649 41.3038
1689 142.6537
1736 238.4292
1771 39.2884
2012 320.7271
2070 161.1889
2082 167.1631
2147 218.3806
2300 50.5931
2527 120.8092
2551 287.9418
2605 337.9292
2653 266.3081
2739 347.2476
2807 28.4914
2841 203.3662
2875 117.3786
2885 231.5409
2915 286.9589
3074 332.4639
3130 204.0956
3421 199.0814
3586 29.3800
3784 332.0339
3818 247.7095
3881 156.1837
3933 296.5697
4033 137.0474
4046 204.0350
4094 57.7805
4145 267.5902
4208 105.5494
4235 164.5860
4332 296.6661
4568 182.9164
4685 317.0226
4749 245.4324
4805 267.7127
4858 222.2782
4871 247.8526
4945 319.8681
4999 214.6662
5010 257.7570
5106 106.0823
5130 304.7329
5249 191.2209
5258 107.4166
5318 277.9043
5369 129.8540
5589 287.8354
5645 111.0994
PLANTSmolcadARTstart hb
PLANTSmolcadARTstart HB
LINES
PLANTSmolcadARTstart HBCH
LINES
PLANTSmolcadARTstart HB-CHO
LINES
PLANTSmolcadARTend
PLANTSmolcadARTstart HB_WATER
LINES
PLANTSmolcadARTend

PLANTSmolcadARTend

