REMARK  4 active torsions:
REMARK  status: ('A' for Active; 'I' for Inactive)
REMARK    1  A    between atoms: C_2  and  C_4 
REMARK    2  A    between atoms: C_4  and  C_5 
REMARK    3  A    between atoms: C_8  and  C_11 
REMARK    4  A    between atoms: C_11  and  C_13 
ROOT
HETATM    1  C   UNL     1       0.821   0.601  -0.124  1.00  0.00    -0.058 A 
HETATM    2  C   UNL     1      -0.081   0.843   0.886  1.00  0.00     0.007 A 
HETATM    3  C   UNL     1      -1.392   0.487   0.747  1.00  0.00     0.008 A 
HETATM    4  C   UNL     1      -1.833  -0.119  -0.404  1.00  0.00    -0.044 A 
HETATM    5  C   UNL     1      -0.942  -0.365  -1.419  1.00  0.00     0.008 A 
HETATM    6  C   UNL     1       0.381  -0.005  -1.276  1.00  0.00     0.007 A 
ENDROOT
BRANCH   4   7
HETATM    7  C   UNL     1      -3.241  -0.513  -0.580  1.00  0.00     0.115 C 
HETATM    8  C   UNL     1      -3.650  -1.433   0.570  1.00  0.00     0.026 C 
BRANCH   7   9
HETATM    9  C   UNL     1      -4.056   0.737  -0.553  1.00  0.00     0.181 C 
HETATM   10  O   UNL     1      -4.938   0.903   0.302  1.00  0.00    -0.647 OA
HETATM   11  O   UNL     1      -3.812   1.699  -1.491  1.00  0.00    -0.647 OA
ENDBRANCH   7   9
ENDBRANCH   4   7
BRANCH   1  12
HETATM   12  C   UNL     1       2.234   1.006   0.075  1.00  0.00     0.042 C 
BRANCH  12  13
HETATM   13  C   UNL     1       3.034  -0.102   0.701  1.00  0.00    -0.019 C 
HETATM   14  C   UNL     1       2.999  -1.303  -0.197  1.00  0.00     0.010 C 
HETATM   15  C   UNL     1       4.442   0.339   0.945  1.00  0.00     0.010 C 
ENDBRANCH  12  13
ENDBRANCH   1  12
TORSDOF 4
