@<TRIPOS>MOLECULE
aspirin_entry_00001_conf_02_protein
18 10 8
SMALL
NO_CHARGES


@<TRIPOS>ATOM
      1 HH         10.4235   22.0898    4.9061 H        52 TYR52       0.2921
      2 OH         11.0460   21.3600    5.1880 O.3      52 TYR52      -0.5068
      3 HG         20.9017   32.1113   17.2572 H        59 SER59       0.2095
      4 OG         21.4070   31.5140   16.6380 O.3      59 SER59      -0.3927
      5 HH         16.8338   15.8098    5.5671 H        64 TYR64       0.2921
      6 OH         15.8460   15.9090    5.4550 O.3      64 TYR64      -0.5068
      7 HZ1        10.9821   28.8192   16.0249 H        66 LYS66      -0.0901
      8 NZ         10.1520   29.1670   15.6030 N.4      66 LYS66       0.3781
      9 HZ2        10.1033   30.1559   15.6907 H        66 LYS66      -0.0901
     10 HZ3         9.3510   28.7409   16.0065 H        66 LYS66      -0.0901
     11 HG1         5.5846   22.9266   15.6825 H        67 THR67       0.2099
     12 OG1         6.3160   23.3030   15.1040 O.3      67 THR67      -0.3897
     13 HG          0.1167   31.1146   12.1636 H        69 SER69       0.2095
     14 OG          0.5240   31.0060   11.2580 O.3      69 SER69      -0.3927
     15 HH         -0.8758   22.0749    7.0508 H        70 TYR70       0.2921
     16 OH          0.0580   22.2220    7.3660 O.3      70 TYR70      -0.5068
     17 HG         13.6550   32.9866    4.9657 H        89 SER89       0.2095
     18 OG         13.9740   32.5660    5.8140 O.3      89 SER89      -0.3927
@<TRIPOS>BOND
     1    1    2 1
     2    5    6 1
     3   18   17 1
     4   15   16 1
     5   14   13 1
     6   11   12 1
     7    8    7 1
     8    8    9 1
     9    8   10 1
    10    3    4 1
@<TRIPOS>SUBSTRUCTURE
52 TYR52 1
59 SER59 3
64 TYR64 5
66 LYS66 7
67 THR67 11
69 SER69 13
70 TYR70 15
89 SER89 17
@<TRIPOS>COMMENT
