@<TRIPOS>MOLECULE
aspirin_entry_00001_conf_09_protein
18 10 8
SMALL
NO_CHARGES


@<TRIPOS>ATOM
      1 HH         10.4903   21.4434    4.3611 H        52 TYR52       0.2921
      2 OH         11.0460   21.3600    5.1880 O.3      52 TYR52      -0.5068
      3 HG         22.3362   31.1894   16.8012 H        59 SER59       0.2095
      4 OG         21.4070   31.5140   16.6380 O.3      59 SER59      -0.3927
      5 HH         16.7776   15.6087    5.6551 H        64 TYR64       0.2921
      6 OH         15.8460   15.9090    5.4550 O.3      64 TYR64      -0.5068
      7 HZ1        10.4973   28.3884   16.1154 H        66 LYS66      -0.0901
      8 NZ         10.1520   29.1670   15.6030 N.4      66 LYS66       0.3781
      9 HZ2        10.7269   29.9645   15.7495 H        66 LYS66      -0.0901
     10 HZ3         9.2123   29.3626   15.8573 H        66 LYS66      -0.0901
     11 HG1         7.0047   23.3254   15.8364 H        67 THR67       0.2099
     12 OG1         6.3160   23.3030   15.1040 O.3      67 THR67      -0.3897
     13 HG          0.2195   30.7687   10.3367 H        69 SER69       0.2095
     14 OG          0.5240   31.0060   11.2580 O.3      69 SER69      -0.3927
     15 HH         -0.8991   22.0907    7.1218 H        70 TYR70       0.2921
     16 OH          0.0580   22.2220    7.3660 O.3      70 TYR70      -0.5068
     17 HG         13.3052   33.1668    6.2499 H        89 SER89       0.2095
     18 OG         13.9740   32.5660    5.8140 O.3      89 SER89      -0.3927
@<TRIPOS>BOND
     1    1    2 1
     2    5    6 1
     3   18   17 1
     4   15   16 1
     5   14   13 1
     6   11   12 1
     7    8    7 1
     8    8    9 1
     9    8   10 1
    10    3    4 1
@<TRIPOS>SUBSTRUCTURE
52 TYR52 1
59 SER59 3
64 TYR64 5
66 LYS66 7
67 THR67 11
69 SER69 13
70 TYR70 15
89 SER89 17
@<TRIPOS>COMMENT
