@<TRIPOS>MOLECULE
aspirin_entry_00001_conf_08_protein
18 10 8
SMALL
NO_CHARGES


@<TRIPOS>ATOM
      1 HH         10.5423   21.2408    4.3326 H        52 TYR52       0.2921
      2 OH         11.0460   21.3600    5.1880 O.3      52 TYR52      -0.5068
      3 HG         21.2097   32.2459   17.2867 H        59 SER59       0.2095
      4 OG         21.4070   31.5140   16.6380 O.3      59 SER59      -0.3927
      5 HH         15.1653   15.9030    4.7238 H        64 TYR64       0.2921
      6 OH         15.8460   15.9090    5.4550 O.3      64 TYR64      -0.5068
      7 HZ1        10.8410   28.6221   16.0681 H        66 LYS66      -0.0901
      8 NZ         10.1520   29.1670   15.6030 N.4      66 LYS66       0.3781
      9 HZ2        10.3486   30.1365   15.7007 H        66 LYS66      -0.0901
     10 HZ3         9.2469   28.9573   15.9533 H        66 LYS66      -0.0901
     11 HG1         5.6032   22.6574   14.8099 H        67 THR67       0.2099
     12 OG1         6.3160   23.3030   15.1040 O.3      67 THR67      -0.3897
     13 HG          0.1390   31.2145   12.1559 H        69 SER69       0.2095
     14 OG          0.5240   31.0060   11.2580 O.3      69 SER69      -0.3927
     15 HH         -0.8025   22.1720    7.8660 H        70 TYR70       0.2921
     16 OH          0.0580   22.2220    7.3660 O.3      70 TYR70      -0.5068
     17 HG         14.4634   32.7116    4.9552 H        89 SER89       0.2095
     18 OG         13.9740   32.5660    5.8140 O.3      89 SER89      -0.3927
@<TRIPOS>BOND
     1    1    2 1
     2    5    6 1
     3   18   17 1
     4   15   16 1
     5   14   13 1
     6   11   12 1
     7    8    7 1
     8    8    9 1
     9    8   10 1
    10    3    4 1
@<TRIPOS>SUBSTRUCTURE
52 TYR52 1
59 SER59 3
64 TYR64 5
66 LYS66 7
67 THR67 11
69 SER69 13
70 TYR70 15
89 SER89 17
@<TRIPOS>COMMENT
