@<TRIPOS>MOLECULE
aspirin_entry_00001_conf_03_protein
18 10 8
SMALL
NO_CHARGES


@<TRIPOS>ATOM
      1 HH         10.5383   21.2551    4.3331 H        52 TYR52       0.2921
      2 OH         11.0460   21.3600    5.1880 O.3      52 TYR52      -0.5068
      3 HG         20.4901   31.3416   16.9918 H        59 SER59       0.2095
      4 OG         21.4070   31.5140   16.6380 O.3      59 SER59      -0.3927
      5 HH         16.8436   15.9471    5.4935 H        64 TYR64       0.2921
      6 OH         15.8460   15.9090    5.4550 O.3      64 TYR64      -0.5068
      7 HZ1         9.2021   29.2325   15.8882 H        66 LYS66      -0.0901
      8 NZ         10.1520   29.1670   15.6030 N.4      66 LYS66       0.3781
      9 HZ2        10.6184   28.4462   16.1039 H        66 LYS66      -0.0901
     10 HZ3        10.6149   30.0362   15.7301 H        66 LYS66      -0.0901
     11 HG1         6.1361   23.1896   16.0869 H        67 THR67       0.2099
     12 OG1         6.3160   23.3030   15.1040 O.3      67 THR67      -0.3897
     13 HG          0.2130   31.5136   12.0602 H        69 SER69       0.2095
     14 OG          0.5240   31.0060   11.2580 O.3      69 SER69      -0.3927
     15 HH          0.2511   21.9742    8.3117 H        70 TYR70       0.2921
     16 OH          0.0580   22.2220    7.3660 O.3      70 TYR70      -0.5068
     17 HG         13.9855   32.8695    4.8621 H        89 SER89       0.2095
     18 OG         13.9740   32.5660    5.8140 O.3      89 SER89      -0.3927
@<TRIPOS>BOND
     1    1    2 1
     2    5    6 1
     3   18   17 1
     4   15   16 1
     5   14   13 1
     6   11   12 1
     7    8    7 1
     8    8    9 1
     9    8   10 1
    10    3    4 1
@<TRIPOS>SUBSTRUCTURE
52 TYR52 1
59 SER59 3
64 TYR64 5
66 LYS66 7
67 THR67 11
69 SER69 13
70 TYR70 15
89 SER89 17
@<TRIPOS>COMMENT
