MODEL 1
REMARK VINA RESULT:      -6.4      0.000      0.000
REMARK  4 active torsions:
REMARK  status: ('A' for Active; 'I' for Inactive)
REMARK    1  A    between atoms: C_2  and  C_4 
REMARK    2  A    between atoms: C_4  and  C_5 
REMARK    3  A    between atoms: C_8  and  C_11 
REMARK    4  A    between atoms: C_11  and  C_13 
ROOT
HETATM    1  C   UNL     1     -13.617 -62.665  -1.278  1.00  0.00    -0.058 A 
HETATM    2  C   UNL     1     -13.546 -62.837   0.085  1.00  0.00     0.007 A 
HETATM    3  C   UNL     1     -13.352 -61.768   0.912  1.00  0.00     0.008 A 
HETATM    4  C   UNL     1     -13.224 -60.501   0.397  1.00  0.00    -0.044 A 
HETATM    5  C   UNL     1     -13.292 -60.317  -0.962  1.00  0.00     0.008 A 
HETATM    6  C   UNL     1     -13.488 -61.398  -1.794  1.00  0.00     0.007 A 
ENDROOT
BRANCH   4   7
HETATM    7  C   UNL     1     -13.014 -59.331   1.266  1.00  0.00     0.115 C 
HETATM    8  C   UNL     1     -11.632 -58.741   0.984  1.00  0.00     0.026 C 
BRANCH   7   9
HETATM    9  C   UNL     1     -14.075 -58.336   0.932  1.00  0.00     0.181 C 
HETATM   10  O   UNL     1     -15.275 -58.615   1.073  1.00  0.00    -0.647 OA
HETATM   11  O   UNL     1     -13.700 -57.109   0.465  1.00  0.00    -0.647 OA
ENDBRANCH   7   9
ENDBRANCH   4   7
BRANCH   1  12
HETATM   12  C   UNL     1     -13.829 -63.857  -2.134  1.00  0.00     0.042 C 
BRANCH  12  13
HETATM   13  C   UNL     1     -13.906 -65.111  -1.309  1.00  0.00    -0.019 C 
HETATM   14  C   UNL     1     -15.242 -65.760  -1.523  1.00  0.00     0.010 C 
HETATM   15  C   UNL     1     -12.797 -66.047  -1.669  1.00  0.00     0.010 C 
ENDBRANCH  12  13
ENDBRANCH   1  12
TORSDOF 4
ENDMDL
MODEL 2
REMARK VINA RESULT:      -5.9     26.640     30.295
REMARK  4 active torsions:
REMARK  status: ('A' for Active; 'I' for Inactive)
REMARK    1  A    between atoms: C_2  and  C_4 
REMARK    2  A    between atoms: C_4  and  C_5 
REMARK    3  A    between atoms: C_8  and  C_11 
REMARK    4  A    between atoms: C_11  and  C_13 
ROOT
HETATM    1  C   UNL     1     -26.400 -33.064   2.757  1.00  0.00    -0.058 A 
HETATM    2  C   UNL     1     -26.769 -34.213   3.416  1.00  0.00     0.007 A 
HETATM    3  C   UNL     1     -26.365 -35.436   2.960  1.00  0.00     0.008 A 
HETATM    4  C   UNL     1     -25.584 -35.538   1.835  1.00  0.00    -0.044 A 
HETATM    5  C   UNL     1     -25.211 -34.398   1.169  1.00  0.00     0.008 A 
HETATM    6  C   UNL     1     -25.619 -33.165   1.632  1.00  0.00     0.007 A 
ENDROOT
BRANCH   4   7
HETATM    7  C   UNL     1     -25.136 -36.844   1.321  1.00  0.00     0.115 C 
HETATM    8  C   UNL     1     -24.235 -36.620   0.107  1.00  0.00     0.026 C 
BRANCH   7   9
HETATM    9  C   UNL     1     -24.368 -37.508   2.415  1.00  0.00     0.181 C 
HETATM   10  O   UNL     1     -23.310 -37.019   2.838  1.00  0.00    -0.647 OA
HETATM   11  O   UNL     1     -24.853 -38.670   2.945  1.00  0.00    -0.647 OA
ENDBRANCH   7   9
ENDBRANCH   4   7
BRANCH   1  12
HETATM   12  C   UNL     1     -26.863 -31.760   3.293  1.00  0.00     0.042 C 
BRANCH  12  13
HETATM   13  C   UNL     1     -25.743 -31.021   3.969  1.00  0.00    -0.019 C 
HETATM   14  C   UNL     1     -25.878 -29.554   3.687  1.00  0.00     0.010 C 
HETATM   15  C   UNL     1     -25.754 -31.283   5.442  1.00  0.00     0.010 C 
ENDBRANCH  12  13
ENDBRANCH   1  12
TORSDOF 4
ENDMDL
MODEL 3
REMARK VINA RESULT:      -5.8     26.190     27.692
REMARK  4 active torsions:
REMARK  status: ('A' for Active; 'I' for Inactive)
REMARK    1  A    between atoms: C_2  and  C_4 
REMARK    2  A    between atoms: C_4  and  C_5 
REMARK    3  A    between atoms: C_8  and  C_11 
REMARK    4  A    between atoms: C_11  and  C_13 
ROOT
HETATM    1  C   UNL     1     -40.867 -58.308   5.548  1.00  0.00    -0.058 A 
HETATM    2  C   UNL     1     -41.023 -59.532   6.157  1.00  0.00     0.007 A 
HETATM    3  C   UNL     1     -40.319 -60.618   5.725  1.00  0.00     0.008 A 
HETATM    4  C   UNL     1     -39.441 -60.509   4.673  1.00  0.00    -0.044 A 
HETATM    5  C   UNL     1     -39.278 -59.293   4.057  1.00  0.00     0.008 A 
HETATM    6  C   UNL     1     -39.990 -58.197   4.496  1.00  0.00     0.007 A 
ENDROOT
BRANCH   4   7
HETATM    7  C   UNL     1     -38.669 -61.664   4.187  1.00  0.00     0.115 C 
HETATM    8  C   UNL     1     -38.823 -62.820   5.175  1.00  0.00     0.026 C 
BRANCH   7   9
HETATM    9  C   UNL     1     -39.234 -62.045   2.859  1.00  0.00     0.181 C 
HETATM   10  O   UNL     1     -38.514 -62.092   1.851  1.00  0.00    -0.647 OA
HETATM   11  O   UNL     1     -40.564 -62.344   2.773  1.00  0.00    -0.647 OA
ENDBRANCH   7   9
ENDBRANCH   4   7
BRANCH   1  12
HETATM   12  C   UNL     1     -41.655 -57.158   6.055  1.00  0.00     0.042 C 
BRANCH  12  13
HETATM   13  C   UNL     1     -40.757 -56.069   6.571  1.00  0.00    -0.019 C 
HETATM   14  C   UNL     1     -41.337 -54.736   6.204  1.00  0.00     0.010 C 
HETATM   15  C   UNL     1     -40.587 -56.185   8.053  1.00  0.00     0.010 C 
ENDBRANCH  12  13
ENDBRANCH   1  12
TORSDOF 4
ENDMDL
MODEL 4
REMARK VINA RESULT:      -5.7     11.177     12.122
REMARK  4 active torsions:
REMARK  status: ('A' for Active; 'I' for Inactive)
REMARK    1  A    between atoms: C_2  and  C_4 
REMARK    2  A    between atoms: C_4  and  C_5 
REMARK    3  A    between atoms: C_8  and  C_11 
REMARK    4  A    between atoms: C_11  and  C_13 
ROOT
HETATM    1  C   UNL     1      -2.830 -63.861   5.527  1.00  0.00    -0.058 A 
HETATM    2  C   UNL     1      -2.664 -63.154   6.695  1.00  0.00     0.007 A 
HETATM    3  C   UNL     1      -3.170 -61.892   6.821  1.00  0.00     0.008 A 
HETATM    4  C   UNL     1      -3.854 -61.306   5.784  1.00  0.00    -0.044 A 
HETATM    5  C   UNL     1      -4.025 -62.002   4.613  1.00  0.00     0.008 A 
HETATM    6  C   UNL     1      -3.514 -63.276   4.488  1.00  0.00     0.007 A 
ENDROOT
BRANCH   4   7
HETATM    7  C   UNL     1      -4.409 -59.947   5.893  1.00  0.00     0.115 C 
HETATM    8  C   UNL     1      -4.865 -59.707   7.332  1.00  0.00     0.026 C 
BRANCH   7   9
HETATM    9  C   UNL     1      -3.318 -58.993   5.534  1.00  0.00     0.181 C 
HETATM   10  O   UNL     1      -3.122 -58.666   4.355  1.00  0.00    -0.647 OA
HETATM   11  O   UNL     1      -2.536 -58.486   6.532  1.00  0.00    -0.647 OA
ENDBRANCH   7   9
ENDBRANCH   4   7
BRANCH   1  12
HETATM   12  C   UNL     1      -2.262 -65.228   5.439  1.00  0.00     0.042 C 
BRANCH  12  13
HETATM   13  C   UNL     1      -2.334 -65.757   4.033  1.00  0.00    -0.019 C 
HETATM   14  C   UNL     1      -0.997 -65.589   3.375  1.00  0.00     0.010 C 
HETATM   15  C   UNL     1      -2.751 -67.194   4.033  1.00  0.00     0.010 C 
ENDBRANCH  12  13
ENDBRANCH   1  12
TORSDOF 4
ENDMDL
MODEL 5
REMARK VINA RESULT:      -5.5     15.035     16.100
REMARK  4 active torsions:
REMARK  status: ('A' for Active; 'I' for Inactive)
REMARK    1  A    between atoms: C_2  and  C_4 
REMARK    2  A    between atoms: C_4  and  C_5 
REMARK    3  A    between atoms: C_8  and  C_11 
REMARK    4  A    between atoms: C_11  and  C_13 
ROOT
HETATM    1  C   UNL     1     -21.452 -57.262 -14.467  1.00  0.00    -0.058 A 
HETATM    2  C   UNL     1     -21.388 -57.229 -13.093  1.00  0.00     0.007 A 
HETATM    3  C   UNL     1     -20.590 -56.322 -12.456  1.00  0.00     0.008 A 
HETATM    4  C   UNL     1     -19.837 -55.428 -13.176  1.00  0.00    -0.044 A 
HETATM    5  C   UNL     1     -19.892 -55.452 -14.548  1.00  0.00     0.008 A 
HETATM    6  C   UNL     1     -20.699 -56.368 -15.188  1.00  0.00     0.007 A 
ENDROOT
BRANCH   4   7
HETATM    7  C   UNL     1     -18.968 -54.440 -12.515  1.00  0.00     0.115 C 
HETATM    8  C   UNL     1     -19.782 -53.681 -11.467  1.00  0.00     0.026 C 
BRANCH   7   9
HETATM    9  C   UNL     1     -17.861 -55.195 -11.858  1.00  0.00     0.181 C 
HETATM   10  O   UNL     1     -17.677 -55.118 -10.635  1.00  0.00    -0.647 OA
HETATM   11  O   UNL     1     -17.051 -55.976 -12.632  1.00  0.00    -0.647 OA
ENDBRANCH   7   9
ENDBRANCH   4   7
BRANCH   1  12
HETATM   12  C   UNL     1     -22.334 -58.265 -15.112  1.00  0.00     0.042 C 
BRANCH  12  13
HETATM   13  C   UNL     1     -21.789 -58.690 -16.447  1.00  0.00    -0.019 C 
HETATM   14  C   UNL     1     -21.641 -60.183 -16.466  1.00  0.00     0.010 C 
HETATM   15  C   UNL     1     -22.685 -58.230 -17.552  1.00  0.00     0.010 C 
ENDBRANCH  12  13
ENDBRANCH   1  12
TORSDOF 4
ENDMDL
MODEL 6
REMARK VINA RESULT:      -5.3     28.527     31.759
REMARK  4 active torsions:
REMARK  status: ('A' for Active; 'I' for Inactive)
REMARK    1  A    between atoms: C_2  and  C_4 
REMARK    2  A    between atoms: C_4  and  C_5 
REMARK    3  A    between atoms: C_8  and  C_11 
REMARK    4  A    between atoms: C_11  and  C_13 
ROOT
HETATM    1  C   UNL     1     -26.700 -33.911   3.369  1.00  0.00    -0.058 A 
HETATM    2  C   UNL     1     -27.365 -32.869   2.765  1.00  0.00     0.007 A 
HETATM    3  C   UNL     1     -27.085 -31.576   3.105  1.00  0.00     0.008 A 
HETATM    4  C   UNL     1     -26.135 -31.294   4.055  1.00  0.00    -0.044 A 
HETATM    5  C   UNL     1     -25.465 -32.326   4.665  1.00  0.00     0.008 A 
HETATM    6  C   UNL     1     -25.749 -33.630   4.320  1.00  0.00     0.007 A 
ENDROOT
BRANCH   4   7
HETATM    7  C   UNL     1     -25.814 -29.909   4.440  1.00  0.00     0.115 C 
HETATM    8  C   UNL     1     -24.946 -29.929   5.699  1.00  0.00     0.026 C 
BRANCH   7   9
HETATM    9  C   UNL     1     -25.060 -29.299   3.306  1.00  0.00     0.181 C 
HETATM   10  O   UNL     1     -25.442 -28.242   2.783  1.00  0.00    -0.647 OA
HETATM   11  O   UNL     1     -23.936 -29.929   2.852  1.00  0.00    -0.647 OA
ENDBRANCH   7   9
ENDBRANCH   4   7
BRANCH   1  12
HETATM   12  C   UNL     1     -27.040 -35.298   2.966  1.00  0.00     0.042 C 
BRANCH  12  13
HETATM   13  C   UNL     1     -25.803 -36.087   2.638  1.00  0.00    -0.019 C 
HETATM   14  C   UNL     1     -26.155 -37.542   2.556  1.00  0.00     0.010 C 
HETATM   15  C   UNL     1     -25.201 -35.612   1.354  1.00  0.00     0.010 C 
ENDBRANCH  12  13
ENDBRANCH   1  12
TORSDOF 4
ENDMDL
MODEL 7
REMARK VINA RESULT:      -5.3     15.164     16.207
REMARK  4 active torsions:
REMARK  status: ('A' for Active; 'I' for Inactive)
REMARK    1  A    between atoms: C_2  and  C_4 
REMARK    2  A    between atoms: C_4  and  C_5 
REMARK    3  A    between atoms: C_8  and  C_11 
REMARK    4  A    between atoms: C_11  and  C_13 
ROOT
HETATM    1  C   UNL     1     -21.370 -57.386 -14.401  1.00  0.00    -0.058 A 
HETATM    2  C   UNL     1     -21.544 -57.206 -13.049  1.00  0.00     0.007 A 
HETATM    3  C   UNL     1     -20.680 -56.426 -12.335  1.00  0.00     0.008 A 
HETATM    4  C   UNL     1     -19.621 -55.808 -12.954  1.00  0.00    -0.044 A 
HETATM    5  C   UNL     1     -19.438 -55.980 -14.304  1.00  0.00     0.008 A 
HETATM    6  C   UNL     1     -20.311 -56.768 -15.023  1.00  0.00     0.007 A 
ENDROOT
BRANCH   4   7
HETATM    7  C   UNL     1     -18.675 -54.962 -12.208  1.00  0.00     0.115 C 
HETATM    8  C   UNL     1     -17.405 -54.779 -13.039  1.00  0.00     0.026 C 
BRANCH   7   9
HETATM    9  C   UNL     1     -19.339 -53.644 -11.988  1.00  0.00     0.181 C 
HETATM   10  O   UNL     1     -19.926 -53.396 -10.925  1.00  0.00    -0.647 OA
HETATM   11  O   UNL     1     -19.290 -52.710 -12.984  1.00  0.00    -0.647 OA
ENDBRANCH   7   9
ENDBRANCH   4   7
BRANCH   1  12
HETATM   12  C   UNL     1     -22.335 -58.242 -15.133  1.00  0.00     0.042 C 
BRANCH  12  13
HETATM   13  C   UNL     1     -21.786 -58.663 -16.467  1.00  0.00    -0.019 C 
HETATM   14  C   UNL     1     -21.676 -60.158 -16.505  1.00  0.00     0.010 C 
HETATM   15  C   UNL     1     -22.658 -58.166 -17.576  1.00  0.00     0.010 C 
ENDBRANCH  12  13
ENDBRANCH   1  12
TORSDOF 4
ENDMDL
MODEL 8
REMARK VINA RESULT:      -5.2     29.112     30.342
REMARK  4 active torsions:
REMARK  status: ('A' for Active; 'I' for Inactive)
REMARK    1  A    between atoms: C_2  and  C_4 
REMARK    2  A    between atoms: C_4  and  C_5 
REMARK    3  A    between atoms: C_8  and  C_11 
REMARK    4  A    between atoms: C_11  and  C_13 
ROOT
HETATM    1  C   UNL     1     -30.138 -44.909 -19.410  1.00  0.00    -0.058 A 
HETATM    2  C   UNL     1     -30.707 -43.706 -19.760  1.00  0.00     0.007 A 
HETATM    3  C   UNL     1     -30.084 -42.529 -19.457  1.00  0.00     0.008 A 
HETATM    4  C   UNL     1     -28.879 -42.525 -18.798  1.00  0.00    -0.044 A 
HETATM    5  C   UNL     1     -28.302 -43.720 -18.444  1.00  0.00     0.008 A 
HETATM    6  C   UNL     1     -28.932 -44.907 -18.751  1.00  0.00     0.007 A 
ENDROOT
BRANCH   4   7
HETATM    7  C   UNL     1     -28.186 -41.271 -18.460  1.00  0.00     0.115 C 
HETATM    8  C   UNL     1     -28.548 -40.205 -19.494  1.00  0.00     0.026 C 
BRANCH   7   9
HETATM    9  C   UNL     1     -28.660 -40.856 -17.107  1.00  0.00     0.181 C 
HETATM   10  O   UNL     1     -28.200 -41.381 -16.083  1.00  0.00    -0.647 OA
HETATM   11  O   UNL     1     -29.613 -39.882 -17.016  1.00  0.00    -0.647 OA
ENDBRANCH   7   9
ENDBRANCH   4   7
BRANCH   1  12
HETATM   12  C   UNL     1     -30.853 -46.160 -19.761  1.00  0.00     0.042 C 
BRANCH  12  13
HETATM   13  C   UNL     1     -31.626 -46.692 -18.587  1.00  0.00    -0.019 C 
HETATM   14  C   UNL     1     -33.079 -46.775 -18.950  1.00  0.00     0.010 C 
HETATM   15  C   UNL     1     -31.103 -48.031 -18.176  1.00  0.00     0.010 C 
ENDBRANCH  12  13
ENDBRANCH   1  12
TORSDOF 4
ENDMDL
MODEL 9
REMARK VINA RESULT:      -5.1     43.193     44.723
REMARK  4 active torsions:
REMARK  status: ('A' for Active; 'I' for Inactive)
REMARK    1  A    between atoms: C_2  and  C_4 
REMARK    2  A    between atoms: C_4  and  C_5 
REMARK    3  A    between atoms: C_8  and  C_11 
REMARK    4  A    between atoms: C_11  and  C_13 
ROOT
HETATM    1  C   UNL     1     -47.772 -48.786  25.821  1.00  0.00    -0.058 A 
HETATM    2  C   UNL     1     -47.906 -47.527  25.282  1.00  0.00     0.007 A 
HETATM    3  C   UNL     1     -48.395 -47.361  24.018  1.00  0.00     0.008 A 
HETATM    4  C   UNL     1     -48.762 -48.448  23.262  1.00  0.00    -0.044 A 
HETATM    5  C   UNL     1     -48.632 -49.709  23.789  1.00  0.00     0.008 A 
HETATM    6  C   UNL     1     -48.139 -49.874  25.066  1.00  0.00     0.007 A 
ENDROOT
BRANCH   4   7
HETATM    7  C   UNL     1     -49.292 -48.297  21.897  1.00  0.00     0.115 C 
HETATM    8  C   UNL     1     -48.637 -49.337  20.989  1.00  0.00     0.026 C 
BRANCH   7   9
HETATM    9  C   UNL     1     -50.765 -48.530  21.966  1.00  0.00     0.181 C 
HETATM   10  O   UNL     1     -51.533 -47.636  22.352  1.00  0.00    -0.647 OA
HETATM   11  O   UNL     1     -51.254 -49.750  21.596  1.00  0.00    -0.647 OA
ENDBRANCH   7   9
ENDBRANCH   4   7
BRANCH   1  12
HETATM   12  C   UNL     1     -47.237 -48.914  27.198  1.00  0.00     0.042 C 
BRANCH  12  13
HETATM   13  C   UNL     1     -45.758 -49.184  27.183  1.00  0.00    -0.019 C 
HETATM   14  C   UNL     1     -45.047 -48.075  27.900  1.00  0.00     0.010 C 
HETATM   15  C   UNL     1     -45.458 -50.505  27.817  1.00  0.00     0.010 C 
ENDBRANCH  12  13
ENDBRANCH   1  12
TORSDOF 4
ENDMDL
MODEL 10
REMARK VINA RESULT:      -5.1     30.265     31.622
REMARK  4 active torsions:
REMARK  status: ('A' for Active; 'I' for Inactive)
REMARK    1  A    between atoms: C_2  and  C_4 
REMARK    2  A    between atoms: C_4  and  C_5 
REMARK    3  A    between atoms: C_8  and  C_11 
REMARK    4  A    between atoms: C_11  and  C_13 
ROOT
HETATM    1  C   UNL     1     -31.037 -45.250 -19.972  1.00  0.00    -0.058 A 
HETATM    2  C   UNL     1     -31.240 -46.149 -18.950  1.00  0.00     0.007 A 
HETATM    3  C   UNL     1     -32.425 -46.818 -18.839  1.00  0.00     0.008 A 
HETATM    4  C   UNL     1     -33.435 -46.606 -19.745  1.00  0.00    -0.044 A 
HETATM    5  C   UNL     1     -33.244 -45.710 -20.768  1.00  0.00     0.008 A 
HETATM    6  C   UNL     1     -32.046 -45.037 -20.879  1.00  0.00     0.007 A 
ENDROOT
BRANCH   4   7
HETATM    7  C   UNL     1     -34.723 -47.313 -19.649  1.00  0.00     0.115 C 
HETATM    8  C   UNL     1     -35.630 -46.860 -20.792  1.00  0.00     0.026 C 
BRANCH   7   9
HETATM    9  C   UNL     1     -34.435 -48.773 -19.769  1.00  0.00     0.181 C 
HETATM   10  O   UNL     1     -33.959 -49.243 -20.813  1.00  0.00    -0.647 OA
HETATM   11  O   UNL     1     -34.706 -49.585 -18.705  1.00  0.00    -0.647 OA
ENDBRANCH   7   9
ENDBRANCH   4   7
BRANCH   1  12
HETATM   12  C   UNL     1     -29.732 -44.549 -20.050  1.00  0.00     0.042 C 
BRANCH  12  13
HETATM   13  C   UNL     1     -29.737 -43.297 -19.217  1.00  0.00    -0.019 C 
HETATM   14  C   UNL     1     -28.487 -43.250 -18.390  1.00  0.00     0.010 C 
HETATM   15  C   UNL     1     -29.844 -42.087 -20.089  1.00  0.00     0.010 C 
ENDBRANCH  12  13
ENDBRANCH   1  12
TORSDOF 4
ENDMDL
MODEL 11
REMARK VINA RESULT:      -5.1     38.972     39.997
REMARK  4 active torsions:
REMARK  status: ('A' for Active; 'I' for Inactive)
REMARK    1  A    between atoms: C_2  and  C_4 
REMARK    2  A    between atoms: C_4  and  C_5 
REMARK    3  A    between atoms: C_8  and  C_11 
REMARK    4  A    between atoms: C_11  and  C_13 
ROOT
HETATM    1  C   UNL     1     -42.693 -36.016   7.180  1.00  0.00    -0.058 A 
HETATM    2  C   UNL     1     -43.064 -34.824   6.600  1.00  0.00     0.007 A 
HETATM    3  C   UNL     1     -42.428 -33.662   6.931  1.00  0.00     0.008 A 
HETATM    4  C   UNL     1     -41.406 -33.663   7.849  1.00  0.00    -0.044 A 
HETATM    5  C   UNL     1     -41.027 -34.845   8.435  1.00  0.00     0.008 A 
HETATM    6  C   UNL     1     -41.671 -36.017   8.098  1.00  0.00     0.007 A 
ENDROOT
BRANCH   4   7
HETATM    7  C   UNL     1     -40.703 -32.424   8.224  1.00  0.00     0.115 C 
HETATM    8  C   UNL     1     -39.659 -32.746   9.293  1.00  0.00     0.026 C 
BRANCH   7   9
HETATM    9  C   UNL     1     -40.037 -31.905   6.994  1.00  0.00     0.181 C 
HETATM   10  O   UNL     1     -39.013 -32.444   6.549  1.00  0.00    -0.647 OA
HETATM   11  O   UNL     1     -40.576 -30.819   6.365  1.00  0.00    -0.647 OA
ENDBRANCH   7   9
ENDBRANCH   4   7
BRANCH   1  12
HETATM   12  C   UNL     1     -43.414 -37.251   6.787  1.00  0.00     0.042 C 
BRANCH  12  13
HETATM   13  C   UNL     1     -44.863 -37.183   7.182  1.00  0.00    -0.019 C 
HETATM   14  C   UNL     1     -45.667 -38.048   6.257  1.00  0.00     0.010 C 
HETATM   15  C   UNL     1     -45.041 -37.614   8.603  1.00  0.00     0.010 C 
ENDBRANCH  12  13
ENDBRANCH   1  12
TORSDOF 4
ENDMDL
MODEL 12
REMARK VINA RESULT:      -5.0     29.006     30.483
REMARK  4 active torsions:
REMARK  status: ('A' for Active; 'I' for Inactive)
REMARK    1  A    between atoms: C_2  and  C_4 
REMARK    2  A    between atoms: C_4  and  C_5 
REMARK    3  A    between atoms: C_8  and  C_11 
REMARK    4  A    between atoms: C_11  and  C_13 
ROOT
HETATM    1  C   UNL     1     -29.601 -44.432 -19.161  1.00  0.00    -0.058 A 
HETATM    2  C   UNL     1     -29.091 -45.434 -18.368  1.00  0.00     0.007 A 
HETATM    3  C   UNL     1     -29.831 -46.549 -18.094  1.00  0.00     0.008 A 
HETATM    4  C   UNL     1     -31.098 -46.688 -18.605  1.00  0.00    -0.044 A 
HETATM    5  C   UNL     1     -31.618 -45.695 -19.397  1.00  0.00     0.008 A 
HETATM    6  C   UNL     1     -30.868 -44.571 -19.672  1.00  0.00     0.007 A 
ENDROOT
BRANCH   4   7
HETATM    7  C   UNL     1     -31.918 -47.879 -18.325  1.00  0.00     0.115 C 
HETATM    8  C   UNL     1     -33.396 -47.508 -18.444  1.00  0.00     0.026 C 
BRANCH   7   9
HETATM    9  C   UNL     1     -31.563 -48.909 -19.345  1.00  0.00     0.181 C 
HETATM   10  O   UNL     1     -30.640 -49.712 -19.145  1.00  0.00    -0.647 OA
HETATM   11  O   UNL     1     -32.277 -48.952 -20.509  1.00  0.00    -0.647 OA
ENDBRANCH   7   9
ENDBRANCH   4   7
BRANCH   1  12
HETATM   12  C   UNL     1     -28.757 -43.242 -19.430  1.00  0.00     0.042 C 
BRANCH  12  13
HETATM   13  C   UNL     1     -29.556 -41.974 -19.315  1.00  0.00    -0.019 C 
HETATM   14  C   UNL     1     -28.937 -41.096 -18.267  1.00  0.00     0.010 C 
HETATM   15  C   UNL     1     -29.615 -41.269 -20.633  1.00  0.00     0.010 C 
ENDBRANCH  12  13
ENDBRANCH   1  12
TORSDOF 4
ENDMDL
MODEL 13
REMARK VINA RESULT:      -5.0     52.588     54.016
REMARK  4 active torsions:
REMARK  status: ('A' for Active; 'I' for Inactive)
REMARK    1  A    between atoms: C_2  and  C_4 
REMARK    2  A    between atoms: C_4  and  C_5 
REMARK    3  A    between atoms: C_8  and  C_11 
REMARK    4  A    between atoms: C_11  and  C_13 
ROOT
HETATM    1  C   UNL     1     -63.323 -43.158  -6.348  1.00  0.00    -0.058 A 
HETATM    2  C   UNL     1     -62.714 -44.166  -5.637  1.00  0.00     0.007 A 
HETATM    3  C   UNL     1     -63.301 -44.680  -4.517  1.00  0.00     0.008 A 
HETATM    4  C   UNL     1     -64.511 -44.200  -4.080  1.00  0.00    -0.044 A 
HETATM    5  C   UNL     1     -65.129 -43.194  -4.781  1.00  0.00     0.008 A 
HETATM    6  C   UNL     1     -64.534 -42.677  -5.912  1.00  0.00     0.007 A 
ENDROOT
BRANCH   4   7
HETATM    7  C   UNL     1     -65.167 -44.736  -2.875  1.00  0.00     0.115 C 
HETATM    8  C   UNL     1     -66.434 -43.929  -2.595  1.00  0.00     0.026 C 
BRANCH   7   9
HETATM    9  C   UNL     1     -65.515 -46.159  -3.158  1.00  0.00     0.181 C 
HETATM   10  O   UNL     1     -64.869 -47.086  -2.649  1.00  0.00    -0.647 OA
HETATM   11  O   UNL     1     -66.564 -46.423  -3.993  1.00  0.00    -0.647 OA
ENDBRANCH   7   9
ENDBRANCH   4   7
BRANCH   1  12
HETATM   12  C   UNL     1     -62.645 -42.633  -7.558  1.00  0.00     0.042 C 
BRANCH  12  13
HETATM   13  C   UNL     1     -63.445 -42.922  -8.798  1.00  0.00    -0.019 C 
HETATM   14  C   UNL     1     -62.992 -42.012  -9.900  1.00  0.00     0.010 C 
HETATM   15  C   UNL     1     -63.296 -44.356  -9.197  1.00  0.00     0.010 C 
ENDBRANCH  12  13
ENDBRANCH   1  12
TORSDOF 4
ENDMDL
MODEL 14
REMARK VINA RESULT:      -4.9     24.179     27.728
REMARK  4 active torsions:
REMARK  status: ('A' for Active; 'I' for Inactive)
REMARK    1  A    between atoms: C_2  and  C_4 
REMARK    2  A    between atoms: C_4  and  C_5 
REMARK    3  A    between atoms: C_8  and  C_11 
REMARK    4  A    between atoms: C_11  and  C_13 
ROOT
HETATM    1  C   UNL     1     -24.623 -35.232   1.867  1.00  0.00    -0.058 A 
HETATM    2  C   UNL     1     -23.623 -35.418   2.793  1.00  0.00     0.007 A 
HETATM    3  C   UNL     1     -23.034 -36.640   2.944  1.00  0.00     0.008 A 
HETATM    4  C   UNL     1     -23.430 -37.707   2.174  1.00  0.00    -0.044 A 
HETATM    5  C   UNL     1     -24.427 -37.533   1.247  1.00  0.00     0.008 A 
HETATM    6  C   UNL     1     -25.020 -36.298   1.096  1.00  0.00     0.007 A 
ENDROOT
BRANCH   4   7
HETATM    7  C   UNL     1     -22.812 -39.036   2.317  1.00  0.00     0.115 C 
HETATM    8  C   UNL     1     -21.292 -38.890   2.243  1.00  0.00     0.026 C 
BRANCH   7   9
HETATM    9  C   UNL     1     -23.213 -39.568   3.652  1.00  0.00     0.181 C 
HETATM   10  O   UNL     1     -24.409 -39.691   3.955  1.00  0.00    -0.647 OA
HETATM   11  O   UNL     1     -22.235 -39.919   4.539  1.00  0.00    -0.647 OA
ENDBRANCH   7   9
ENDBRANCH   4   7
BRANCH   1  12
HETATM   12  C   UNL     1     -25.231 -33.885   1.740  1.00  0.00     0.042 C 
BRANCH  12  13
HETATM   13  C   UNL     1     -26.411 -33.733   2.660  1.00  0.00    -0.019 C 
HETATM   14  C   UNL     1     -25.944 -33.170   3.970  1.00  0.00     0.010 C 
HETATM   15  C   UNL     1     -27.449 -32.852   2.042  1.00  0.00     0.010 C 
ENDBRANCH  12  13
ENDBRANCH   1  12
TORSDOF 4
ENDMDL
MODEL 15
REMARK VINA RESULT:      -4.8     42.759     44.712
REMARK  4 active torsions:
REMARK  status: ('A' for Active; 'I' for Inactive)
REMARK    1  A    between atoms: C_2  and  C_4 
REMARK    2  A    between atoms: C_4  and  C_5 
REMARK    3  A    between atoms: C_8  and  C_11 
REMARK    4  A    between atoms: C_11  and  C_13 
ROOT
HETATM    1  C   UNL     1     -48.098 -47.315  25.092  1.00  0.00    -0.058 A 
HETATM    2  C   UNL     1     -48.426 -46.780  23.868  1.00  0.00     0.007 A 
HETATM    3  C   UNL     1     -48.798 -47.589  22.832  1.00  0.00     0.008 A 
HETATM    4  C   UNL     1     -48.850 -48.951  22.995  1.00  0.00    -0.044 A 
HETATM    5  C   UNL     1     -48.524 -49.497  24.212  1.00  0.00     0.008 A 
HETATM    6  C   UNL     1     -48.150 -48.678  25.255  1.00  0.00     0.007 A 
ENDROOT
BRANCH   4   7
HETATM    7  C   UNL     1     -49.248 -49.847  21.895  1.00  0.00     0.115 C 
HETATM    8  C   UNL     1     -48.190 -50.938  21.732  1.00  0.00     0.026 C 
BRANCH   7   9
HETATM    9  C   UNL     1     -50.558 -50.454  22.271  1.00  0.00     0.181 C 
HETATM   10  O   UNL     1     -51.559 -49.745  22.453  1.00  0.00    -0.647 OA
HETATM   11  O   UNL     1     -50.636 -51.810  22.413  1.00  0.00    -0.647 OA
ENDBRANCH   7   9
ENDBRANCH   4   7
BRANCH   1  12
HETATM   12  C   UNL     1     -47.701 -46.394  26.185  1.00  0.00     0.042 C 
BRANCH  12  13
HETATM   13  C   UNL     1     -46.211 -46.198  26.216  1.00  0.00    -0.019 C 
HETATM   14  C   UNL     1     -45.551 -47.493  26.586  1.00  0.00     0.010 C 
HETATM   15  C   UNL     1     -45.718 -45.708  24.892  1.00  0.00     0.010 C 
ENDBRANCH  12  13
ENDBRANCH   1  12
TORSDOF 4
ENDMDL
MODEL 16
REMARK VINA RESULT:      -4.8     12.458     13.628
REMARK  4 active torsions:
REMARK  status: ('A' for Active; 'I' for Inactive)
REMARK    1  A    between atoms: C_2  and  C_4 
REMARK    2  A    between atoms: C_4  and  C_5 
REMARK    3  A    between atoms: C_8  and  C_11 
REMARK    4  A    between atoms: C_11  and  C_13 
ROOT
HETATM    1  C   UNL     1     -18.936 -53.685 -11.165  1.00  0.00    -0.058 A 
HETATM    2  C   UNL     1     -19.598 -52.597 -10.643  1.00  0.00     0.007 A 
HETATM    3  C   UNL     1     -19.252 -52.094  -9.422  1.00  0.00     0.008 A 
HETATM    4  C   UNL     1     -18.239 -52.665  -8.692  1.00  0.00    -0.044 A 
HETATM    5  C   UNL     1     -17.572 -53.752  -9.202  1.00  0.00     0.008 A 
HETATM    6  C   UNL     1     -17.922 -54.258 -10.436  1.00  0.00     0.007 A 
ENDROOT
BRANCH   4   7
HETATM    7  C   UNL     1     -17.846 -52.143  -7.372  1.00  0.00     0.115 C 
HETATM    8  C   UNL     1     -17.447 -50.674  -7.515  1.00  0.00     0.026 C 
BRANCH   7   9
HETATM    9  C   UNL     1     -19.033 -52.269  -6.477  1.00  0.00     0.181 C 
HETATM   10  O   UNL     1     -19.758 -51.291  -6.241  1.00  0.00    -0.647 OA
HETATM   11  O   UNL     1     -19.308 -53.485  -5.919  1.00  0.00    -0.647 OA
ENDBRANCH   7   9
ENDBRANCH   4   7
BRANCH   1  12
HETATM   12  C   UNL     1     -19.348 -54.194 -12.496  1.00  0.00     0.042 C 
BRANCH  12  13
HETATM   13  C   UNL     1     -19.296 -55.696 -12.543  1.00  0.00    -0.019 C 
HETATM   14  C   UNL     1     -20.693 -56.235 -12.632  1.00  0.00     0.010 C 
HETATM   15  C   UNL     1     -18.472 -56.157 -13.703  1.00  0.00     0.010 C 
ENDBRANCH  12  13
ENDBRANCH   1  12
TORSDOF 4
ENDMDL
MODEL 17
REMARK VINA RESULT:      -4.8     43.089     45.399
REMARK  4 active torsions:
REMARK  status: ('A' for Active; 'I' for Inactive)
REMARK    1  A    between atoms: C_2  and  C_4 
REMARK    2  A    between atoms: C_4  and  C_5 
REMARK    3  A    between atoms: C_8  and  C_11 
REMARK    4  A    between atoms: C_11  and  C_13 
ROOT
HETATM    1  C   UNL     1     -48.658 -46.676  24.225  1.00  0.00    -0.058 A 
HETATM    2  C   UNL     1     -49.001 -46.540  22.899  1.00  0.00     0.007 A 
HETATM    3  C   UNL     1     -49.189 -47.640  22.113  1.00  0.00     0.008 A 
HETATM    4  C   UNL     1     -49.039 -48.903  22.632  1.00  0.00    -0.044 A 
HETATM    5  C   UNL     1     -48.696 -49.051  23.953  1.00  0.00     0.008 A 
HETATM    6  C   UNL     1     -48.507 -47.939  24.745  1.00  0.00     0.007 A 
ENDROOT
BRANCH   4   7
HETATM    7  C   UNL     1     -49.235 -50.107  21.807  1.00  0.00     0.115 C 
HETATM    8  C   UNL     1     -48.091 -51.086  22.070  1.00  0.00     0.026 C 
BRANCH   7   9
HETATM    9  C   UNL     1     -50.536 -50.714  22.215  1.00  0.00     0.181 C 
HETATM   10  O   UNL     1     -50.614 -51.918  22.500  1.00  0.00    -0.647 OA
HETATM   11  O   UNL     1     -51.643 -49.917  22.270  1.00  0.00    -0.647 OA
ENDBRANCH   7   9
ENDBRANCH   4   7
BRANCH   1  12
HETATM   12  C   UNL     1     -48.465 -45.450  25.037  1.00  0.00     0.042 C 
BRANCH  12  13
HETATM   13  C   UNL     1     -49.359 -44.338  24.564  1.00  0.00    -0.019 C 
HETATM   14  C   UNL     1     -50.533 -44.221  25.491  1.00  0.00     0.010 C 
HETATM   15  C   UNL     1     -48.605 -43.049  24.496  1.00  0.00     0.010 C 
ENDBRANCH  12  13
ENDBRANCH   1  12
TORSDOF 4
ENDMDL
MODEL 18
REMARK VINA RESULT:      -4.8     32.427     33.902
REMARK  4 active torsions:
REMARK  status: ('A' for Active; 'I' for Inactive)
REMARK    1  A    between atoms: C_2  and  C_4 
REMARK    2  A    between atoms: C_4  and  C_5 
REMARK    3  A    between atoms: C_8  and  C_11 
REMARK    4  A    between atoms: C_11  and  C_13 
ROOT
HETATM    1  C   UNL     1     -22.689 -35.242  17.094  1.00  0.00    -0.058 A 
HETATM    2  C   UNL     1     -22.815 -34.341  18.125  1.00  0.00     0.007 A 
HETATM    3  C   UNL     1     -22.254 -33.099  18.035  1.00  0.00     0.008 A 
HETATM    4  C   UNL     1     -21.554 -32.728  16.913  1.00  0.00    -0.044 A 
HETATM    5  C   UNL     1     -21.421 -33.620  15.878  1.00  0.00     0.008 A 
HETATM    6  C   UNL     1     -21.989 -34.873  15.971  1.00  0.00     0.007 A 
ENDROOT
BRANCH   4   7
HETATM    7  C   UNL     1     -20.939 -31.396  16.790  1.00  0.00     0.115 C 
HETATM    8  C   UNL     1     -21.527 -30.474  17.858  1.00  0.00     0.026 C 
BRANCH   7   9
HETATM    9  C   UNL     1     -19.472 -31.565  17.006  1.00  0.00     0.181 C 
HETATM   10  O   UNL     1     -19.018 -31.794  18.137  1.00  0.00    -0.647 OA
HETATM   11  O   UNL     1     -18.635 -31.462  15.932  1.00  0.00    -0.647 OA
ENDBRANCH   7   9
ENDBRANCH   4   7
BRANCH   1  12
HETATM   12  C   UNL     1     -23.316 -36.579  17.240  1.00  0.00     0.042 C 
BRANCH  12  13
HETATM   13  C   UNL     1     -24.766 -36.460  17.619  1.00  0.00    -0.019 C 
HETATM   14  C   UNL     1     -25.616 -36.799  16.431  1.00  0.00     0.010 C 
HETATM   15  C   UNL     1     -25.082 -37.357  18.773  1.00  0.00     0.010 C 
ENDBRANCH  12  13
ENDBRANCH   1  12
TORSDOF 4
ENDMDL
MODEL 19
REMARK VINA RESULT:      -4.7     16.480     19.796
REMARK  4 active torsions:
REMARK  status: ('A' for Active; 'I' for Inactive)
REMARK    1  A    between atoms: C_2  and  C_4 
REMARK    2  A    between atoms: C_4  and  C_5 
REMARK    3  A    between atoms: C_8  and  C_11 
REMARK    4  A    between atoms: C_11  and  C_13 
ROOT
HETATM    1  C   UNL     1     -13.386 -44.878   7.199  1.00  0.00    -0.058 A 
HETATM    2  C   UNL     1     -14.560 -44.306   7.633  1.00  0.00     0.007 A 
HETATM    3  C   UNL     1     -14.638 -42.960   7.848  1.00  0.00     0.008 A 
HETATM    4  C   UNL     1     -13.547 -42.153   7.635  1.00  0.00    -0.044 A 
HETATM    5  C   UNL     1     -12.371 -42.713   7.203  1.00  0.00     0.008 A 
HETATM    6  C   UNL     1     -12.294 -44.072   6.986  1.00  0.00     0.007 A 
ENDROOT
BRANCH   4   7
HETATM    7  C   UNL     1     -13.605 -40.699   7.860  1.00  0.00     0.115 C 
HETATM    8  C   UNL     1     -15.047 -40.297   8.166  1.00  0.00     0.026 C 
BRANCH   7   9
HETATM    9  C   UNL     1     -12.728 -40.398   9.030  1.00  0.00     0.181 C 
HETATM   10  O   UNL     1     -12.989 -40.851  10.153  1.00  0.00    -0.647 OA
HETATM   11  O   UNL     1     -11.629 -39.611   8.839  1.00  0.00    -0.647 OA
ENDBRANCH   7   9
ENDBRANCH   4   7
BRANCH   1  12
HETATM   12  C   UNL     1     -13.351 -46.345   6.980  1.00  0.00     0.042 C 
BRANCH  12  13
HETATM   13  C   UNL     1     -12.860 -46.676   5.598  1.00  0.00    -0.019 C 
HETATM   14  C   UNL     1     -12.320 -48.075   5.589  1.00  0.00     0.010 C 
HETATM   15  C   UNL     1     -13.961 -46.524   4.598  1.00  0.00     0.010 C 
ENDBRANCH  12  13
ENDBRANCH   1  12
TORSDOF 4
ENDMDL
MODEL 20
REMARK VINA RESULT:      -4.7     17.505     19.136
REMARK  4 active torsions:
REMARK  status: ('A' for Active; 'I' for Inactive)
REMARK    1  A    between atoms: C_2  and  C_4 
REMARK    2  A    between atoms: C_4  and  C_5 
REMARK    3  A    between atoms: C_8  and  C_11 
REMARK    4  A    between atoms: C_11  and  C_13 
ROOT
HETATM    1  C   UNL     1     -21.596 -59.125 -17.285  1.00  0.00    -0.058 A 
HETATM    2  C   UNL     1     -20.626 -58.983 -18.250  1.00  0.00     0.007 A 
HETATM    3  C   UNL     1     -19.672 -59.944 -18.423  1.00  0.00     0.008 A 
HETATM    4  C   UNL     1     -19.664 -61.070 -17.637  1.00  0.00    -0.044 A 
HETATM    5  C   UNL     1     -20.627 -61.223 -16.670  1.00  0.00     0.008 A 
HETATM    6  C   UNL     1     -21.589 -60.251 -16.498  1.00  0.00     0.007 A 
ENDROOT
BRANCH   4   7
HETATM    7  C   UNL     1     -18.646 -62.122 -17.802  1.00  0.00     0.115 C 
HETATM    8  C   UNL     1     -18.026 -62.436 -16.441  1.00  0.00     0.026 C 
BRANCH   7   9
HETATM    9  C   UNL     1     -19.341 -63.328 -18.341  1.00  0.00     0.181 C 
HETATM   10  O   UNL     1     -19.855 -63.315 -19.469  1.00  0.00    -0.647 OA
HETATM   11  O   UNL     1     -19.402 -64.450 -17.566  1.00  0.00    -0.647 OA
ENDBRANCH   7   9
ENDBRANCH   4   7
BRANCH   1  12
HETATM   12  C   UNL     1     -22.611 -58.054 -17.136  1.00  0.00     0.042 C 
BRANCH  12  13
HETATM   13  C   UNL     1     -22.321 -57.193 -15.939  1.00  0.00    -0.019 C 
HETATM   14  C   UNL     1     -22.577 -57.983 -14.690  1.00  0.00     0.010 C 
HETATM   15  C   UNL     1     -20.910 -56.699 -15.976  1.00  0.00     0.010 C 
ENDBRANCH  12  13
ENDBRANCH   1  12
TORSDOF 4
ENDMDL
