REMARK  3 active torsions:
REMARK  status: ('A' for Active; 'I' for Inactive)
REMARK    1  A    between atoms: C_2  and  O_11 
REMARK    2  A    between atoms: C_3  and  O_11 
REMARK    3  A    between atoms: C_8  and  C_9 
ROOT
HETATM    1  C   UNL     1      -0.255   0.532   0.368  1.00  0.00     0.096 A 
HETATM    2  C   UNL     1      -0.632   1.858   0.345  1.00  0.00     0.038 A 
HETATM    3  C   UNL     1       0.238   2.892   0.061  1.00  0.00     0.003 A 
HETATM    4  C   UNL     1       1.548   2.581  -0.212  1.00  0.00     0.001 A 
HETATM    5  C   UNL     1       1.978   1.272  -0.203  1.00  0.00     0.021 A 
HETATM    6  C   UNL     1       1.069   0.254   0.089  1.00  0.00     0.074 A 
ENDROOT
BRANCH   1   7
HETATM    7  O   UNL     1      -1.082  -0.523   0.644  1.00  0.00    -0.278 OA
BRANCH   7   8
HETATM    8  C   UNL     1      -1.813  -1.232  -0.267  1.00  0.00     0.260 C 
HETATM    9  C   UNL     1      -2.690  -2.368   0.114  1.00  0.00     0.126 C 
HETATM   10  O   UNL     1      -1.684  -0.842  -1.467  1.00  0.00    -0.265 OA
ENDBRANCH   7   8
ENDBRANCH   1   7
BRANCH   6  11
HETATM   11  C   UNL     1       1.565  -1.117   0.088  1.00  0.00     0.212 C 
HETATM   12  O   UNL     1       0.800  -2.082   0.343  1.00  0.00    -0.644 OA
HETATM   13  O   UNL     1       2.890  -1.408  -0.190  1.00  0.00    -0.644 OA
ENDBRANCH   6  11
TORSDOF 3
