MODEL 1
REMARK VINA RESULT:      -5.5      0.000      0.000
REMARK  3 active torsions:
REMARK  status: ('A' for Active; 'I' for Inactive)
REMARK    1  A    between atoms: C_2  and  O_11 
REMARK    2  A    between atoms: C_3  and  O_11 
REMARK    3  A    between atoms: C_8  and  C_9 
ROOT
HETATM    1  C   UNL     1     -22.620 -45.178 -10.335  1.00  0.00     0.096 A 
HETATM    2  C   UNL     1     -21.871 -44.066 -10.013  1.00  0.00     0.038 A 
HETATM    3  C   UNL     1     -22.373 -42.984  -9.319  1.00  0.00     0.003 A 
HETATM    4  C   UNL     1     -23.691 -43.018  -8.930  1.00  0.00     0.001 A 
HETATM    5  C   UNL     1     -24.485 -44.105  -9.225  1.00  0.00     0.021 A 
HETATM    6  C   UNL     1     -23.941 -45.180  -9.929  1.00  0.00     0.074 A 
ENDROOT
BRANCH   1   7
HETATM    7  O   UNL     1     -22.164 -46.271 -11.020  1.00  0.00    -0.278 OA
BRANCH   7   8
HETATM    8  C   UNL     1     -21.249 -47.180 -10.568  1.00  0.00     0.260 C 
HETATM    9  C   UNL     1     -19.788 -47.027 -10.785  1.00  0.00     0.126 C 
HETATM   10  O   UNL     1     -21.747 -48.167  -9.946  1.00  0.00    -0.265 OA
ENDBRANCH   7   8
ENDBRANCH   1   7
BRANCH   6  11
HETATM   11  C   UNL     1     -24.815 -46.310 -10.220  1.00  0.00     0.212 C 
HETATM   12  O   UNL     1     -24.931 -47.264  -9.410  1.00  0.00    -0.644 OA
HETATM   13  O   UNL     1     -25.545 -46.377 -11.395  1.00  0.00    -0.644 OA
ENDBRANCH   6  11
TORSDOF 3
ENDMDL
MODEL 2
REMARK VINA RESULT:      -5.5     11.818     13.631
REMARK  3 active torsions:
REMARK  status: ('A' for Active; 'I' for Inactive)
REMARK    1  A    between atoms: C_2  and  O_11 
REMARK    2  A    between atoms: C_3  and  O_11 
REMARK    3  A    between atoms: C_8  and  C_9 
ROOT
HETATM    1  C   UNL     1     -30.433 -55.579 -13.683  1.00  0.00     0.096 A 
HETATM    2  C   UNL     1     -29.995 -54.826 -12.614  1.00  0.00     0.038 A 
HETATM    3  C   UNL     1     -28.929 -53.951 -12.685  1.00  0.00     0.003 A 
HETATM    4  C   UNL     1     -28.271 -53.827 -13.884  1.00  0.00     0.001 A 
HETATM    5  C   UNL     1     -28.666 -54.556 -14.984  1.00  0.00     0.021 A 
HETATM    6  C   UNL     1     -29.748 -55.430 -14.874  1.00  0.00     0.074 A 
ENDROOT
BRANCH   1   7
HETATM    7  O   UNL     1     -31.482 -56.457 -13.658  1.00  0.00    -0.278 OA
BRANCH   7   8
HETATM    8  C   UNL     1     -32.789 -56.141 -13.415  1.00  0.00     0.260 C 
HETATM    9  C   UNL     1     -33.438 -54.923 -13.964  1.00  0.00     0.126 C 
HETATM   10  O   UNL     1     -33.407 -56.973 -12.684  1.00  0.00    -0.265 OA
ENDBRANCH   7   8
ENDBRANCH   1   7
BRANCH   6  11
HETATM   11  C   UNL     1     -30.135 -56.183 -16.062  1.00  0.00     0.212 C 
HETATM   12  O   UNL     1     -30.578 -55.597 -17.083  1.00  0.00    -0.644 OA
HETATM   13  O   UNL     1     -30.031 -57.563 -16.111  1.00  0.00    -0.644 OA
ENDBRANCH   6  11
TORSDOF 3
ENDMDL
MODEL 3
REMARK VINA RESULT:      -5.2     14.665     16.564
REMARK  3 active torsions:
REMARK  status: ('A' for Active; 'I' for Inactive)
REMARK    1  A    between atoms: C_2  and  O_11 
REMARK    2  A    between atoms: C_3  and  O_11 
REMARK    3  A    between atoms: C_8  and  C_9 
ROOT
HETATM    1  C   UNL     1     -25.720 -35.688   2.274  1.00  0.00     0.096 A 
HETATM    2  C   UNL     1     -24.940 -35.281   1.212  1.00  0.00     0.038 A 
HETATM    3  C   UNL     1     -24.460 -36.142   0.245  1.00  0.00     0.003 A 
HETATM    4  C   UNL     1     -24.777 -37.475   0.349  1.00  0.00     0.001 A 
HETATM    5  C   UNL     1     -25.554 -37.935   1.390  1.00  0.00     0.021 A 
HETATM    6  C   UNL     1     -26.020 -37.034   2.348  1.00  0.00     0.074 A 
ENDROOT
BRANCH   1   7
HETATM    7  O   UNL     1     -26.216 -34.870   3.253  1.00  0.00    -0.278 OA
BRANCH   7   8
HETATM    8  C   UNL     1     -27.170 -33.906   3.089  1.00  0.00     0.260 C 
HETATM    9  C   UNL     1     -26.843 -32.463   2.969  1.00  0.00     0.126 C 
HETATM   10  O   UNL     1     -28.360 -34.342   3.047  1.00  0.00    -0.265 OA
ENDBRANCH   7   8
ENDBRANCH   1   7
BRANCH   6  11
HETATM   11  C   UNL     1     -26.838 -37.563   3.433  1.00  0.00     0.212 C 
HETATM   12  O   UNL     1     -28.089 -37.632   3.325  1.00  0.00    -0.644 OA
HETATM   13  O   UNL     1     -26.273 -38.005   4.617  1.00  0.00    -0.644 OA
ENDBRANCH   6  11
TORSDOF 3
ENDMDL
MODEL 4
REMARK VINA RESULT:      -5.1     12.224     13.788
REMARK  3 active torsions:
REMARK  status: ('A' for Active; 'I' for Inactive)
REMARK    1  A    between atoms: C_2  and  O_11 
REMARK    2  A    between atoms: C_3  and  O_11 
REMARK    3  A    between atoms: C_8  and  C_9 
ROOT
HETATM    1  C   UNL     1     -30.352 -55.274 -15.300  1.00  0.00     0.096 A 
HETATM    2  C   UNL     1     -29.108 -54.684 -15.371  1.00  0.00     0.038 A 
HETATM    3  C   UNL     1     -28.411 -54.242 -14.265  1.00  0.00     0.003 A 
HETATM    4  C   UNL     1     -28.989 -54.398 -13.028  1.00  0.00     0.001 A 
HETATM    5  C   UNL     1     -30.230 -54.982 -12.900  1.00  0.00     0.021 A 
HETATM    6  C   UNL     1     -30.905 -55.416 -14.042  1.00  0.00     0.074 A 
ENDROOT
BRANCH   1   7
HETATM    7  O   UNL     1     -31.078 -55.727 -16.368  1.00  0.00    -0.278 OA
BRANCH   7   8
HETATM    8  C   UNL     1     -30.696 -56.702 -17.245  1.00  0.00     0.260 C 
HETATM    9  C   UNL     1     -30.504 -58.118 -16.841  1.00  0.00     0.126 C 
HETATM   10  O   UNL     1     -30.519 -56.302 -18.436  1.00  0.00    -0.265 OA
ENDBRANCH   7   8
ENDBRANCH   1   7
BRANCH   6  11
HETATM   11  C   UNL     1     -32.216 -56.029 -13.862  1.00  0.00     0.212 C 
HETATM   12  O   UNL     1     -32.339 -57.276 -13.760  1.00  0.00    -0.644 OA
HETATM   13  O   UNL     1     -33.369 -55.265 -13.797  1.00  0.00    -0.644 OA
ENDBRANCH   6  11
TORSDOF 3
ENDMDL
MODEL 5
REMARK VINA RESULT:      -5.0     33.163     34.940
REMARK  3 active torsions:
REMARK  status: ('A' for Active; 'I' for Inactive)
REMARK    1  A    between atoms: C_2  and  O_11 
REMARK    2  A    between atoms: C_3  and  O_11 
REMARK    3  A    between atoms: C_8  and  C_9 
ROOT
HETATM    1  C   UNL     1     -47.342 -59.976  10.680  1.00  0.00     0.096 A 
HETATM    2  C   UNL     1     -48.597 -60.002  11.251  1.00  0.00     0.038 A 
HETATM    3  C   UNL     1     -48.905 -59.369  12.440  1.00  0.00     0.003 A 
HETATM    4  C   UNL     1     -47.907 -58.679  13.085  1.00  0.00     0.001 A 
HETATM    5  C   UNL     1     -46.636 -58.621  12.557  1.00  0.00     0.021 A 
HETATM    6  C   UNL     1     -46.363 -59.273  11.354  1.00  0.00     0.074 A 
ENDROOT
BRANCH   1   7
HETATM    7  O   UNL     1     -46.993 -60.587   9.506  1.00  0.00    -0.278 OA
BRANCH   7   8
HETATM    8  C   UNL     1     -47.665 -61.612   8.901  1.00  0.00     0.260 C 
HETATM    9  C   UNL     1     -48.618 -61.400   7.783  1.00  0.00     0.126 C 
HETATM   10  O   UNL     1     -47.410 -62.762   9.372  1.00  0.00    -0.265 OA
ENDBRANCH   7   8
ENDBRANCH   1   7
BRANCH   6  11
HETATM   11  C   UNL     1     -45.005 -59.187  10.830  1.00  0.00     0.212 C 
HETATM   12  O   UNL     1     -44.142 -60.053  11.124  1.00  0.00    -0.644 OA
HETATM   13  O   UNL     1     -44.615 -58.153   9.996  1.00  0.00    -0.644 OA
ENDBRANCH   6  11
TORSDOF 3
ENDMDL
MODEL 6
REMARK VINA RESULT:      -4.9     12.501     13.897
REMARK  3 active torsions:
REMARK  status: ('A' for Active; 'I' for Inactive)
REMARK    1  A    between atoms: C_2  and  O_11 
REMARK    2  A    between atoms: C_3  and  O_11 
REMARK    3  A    between atoms: C_8  and  C_9 
ROOT
HETATM    1  C   UNL     1     -13.809 -44.365  -1.471  1.00  0.00     0.096 A 
HETATM    2  C   UNL     1     -13.934 -44.906  -2.733  1.00  0.00     0.038 A 
HETATM    3  C   UNL     1     -13.974 -46.264  -2.979  1.00  0.00     0.003 A 
HETATM    4  C   UNL     1     -13.884 -47.120  -1.908  1.00  0.00     0.001 A 
HETATM    5  C   UNL     1     -13.759 -46.633  -0.625  1.00  0.00     0.021 A 
HETATM    6  C   UNL     1     -13.721 -45.253  -0.417  1.00  0.00     0.074 A 
ENDROOT
BRANCH   1   7
HETATM    7  O   UNL     1     -13.764 -43.028  -1.182  1.00  0.00    -0.278 OA
BRANCH   7   8
HETATM    8  C   UNL     1     -12.756 -42.167  -1.511  1.00  0.00     0.260 C 
HETATM    9  C   UNL     1     -11.594 -41.910  -0.623  1.00  0.00     0.126 C 
HETATM   10  O   UNL     1     -12.891 -41.602  -2.639  1.00  0.00    -0.265 OA
ENDBRANCH   7   8
ENDBRANCH   1   7
BRANCH   6  11
HETATM   11  C   UNL     1     -13.588 -44.780   0.956  1.00  0.00     0.212 C 
HETATM   12  O   UNL     1     -14.602 -44.569   1.669  1.00  0.00    -0.644 OA
HETATM   13  O   UNL     1     -12.347 -44.543   1.523  1.00  0.00    -0.644 OA
ENDBRANCH   6  11
TORSDOF 3
ENDMDL
MODEL 7
REMARK VINA RESULT:      -4.9     26.737     27.682
REMARK  3 active torsions:
REMARK  status: ('A' for Active; 'I' for Inactive)
REMARK    1  A    between atoms: C_2  and  O_11 
REMARK    2  A    between atoms: C_3  and  O_11 
REMARK    3  A    between atoms: C_8  and  C_9 
ROOT
HETATM    1  C   UNL     1     -23.036 -43.293  17.370  1.00  0.00     0.096 A 
HETATM    2  C   UNL     1     -23.037 -42.066  17.999  1.00  0.00     0.038 A 
HETATM    3  C   UNL     1     -23.870 -41.752  19.054  1.00  0.00     0.003 A 
HETATM    4  C   UNL     1     -24.743 -42.715  19.500  1.00  0.00     0.001 A 
HETATM    5  C   UNL     1     -24.783 -43.959  18.908  1.00  0.00     0.021 A 
HETATM    6  C   UNL     1     -23.925 -44.238  17.842  1.00  0.00     0.074 A 
ENDROOT
BRANCH   1   7
HETATM    7  O   UNL     1     -22.229 -43.646  16.322  1.00  0.00    -0.278 OA
BRANCH   7   8
HETATM    8  C   UNL     1     -20.882 -43.869  16.383  1.00  0.00     0.260 C 
HETATM    9  C   UNL     1     -20.276 -44.900  17.263  1.00  0.00     0.126 C 
HETATM   10  O   UNL     1     -20.189 -43.124  15.627  1.00  0.00    -0.265 OA
ENDBRANCH   7   8
ENDBRANCH   1   7
BRANCH   6  11
HETATM   11  C   UNL     1     -23.999 -45.566  17.244  1.00  0.00     0.212 C 
HETATM   12  O   UNL     1     -23.371 -46.535  17.741  1.00  0.00    -0.644 OA
HETATM   13  O   UNL     1     -24.758 -45.809  16.112  1.00  0.00    -0.644 OA
ENDBRANCH   6  11
TORSDOF 3
ENDMDL
MODEL 8
REMARK VINA RESULT:      -4.8     26.987     27.831
REMARK  3 active torsions:
REMARK  status: ('A' for Active; 'I' for Inactive)
REMARK    1  A    between atoms: C_2  and  O_11 
REMARK    2  A    between atoms: C_3  and  O_11 
REMARK    3  A    between atoms: C_8  and  C_9 
ROOT
HETATM    1  C   UNL     1     -21.182 -45.056  17.883  1.00  0.00     0.096 A 
HETATM    2  C   UNL     1     -20.300 -44.917  18.934  1.00  0.00     0.038 A 
HETATM    3  C   UNL     1     -20.697 -44.665  20.232  1.00  0.00     0.003 A 
HETATM    4  C   UNL     1     -22.042 -44.545  20.488  1.00  0.00     0.001 A 
HETATM    5  C   UNL     1     -22.966 -44.675  19.474  1.00  0.00     0.021 A 
HETATM    6  C   UNL     1     -22.526 -44.930  18.175  1.00  0.00     0.074 A 
ENDROOT
BRANCH   1   7
HETATM    7  O   UNL     1     -20.833 -45.306  16.583  1.00  0.00    -0.278 OA
BRANCH   7   8
HETATM    8  C   UNL     1     -19.913 -44.613  15.850  1.00  0.00     0.260 C 
HETATM    9  C   UNL     1     -18.641 -45.216  15.376  1.00  0.00     0.126 C 
HETATM   10  O   UNL     1     -20.231 -43.410  15.603  1.00  0.00    -0.265 OA
ENDBRANCH   7   8
ENDBRANCH   1   7
BRANCH   6  11
HETATM   11  C   UNL     1     -23.537 -45.061  17.132  1.00  0.00     0.212 C 
HETATM   12  O   UNL     1     -24.033 -46.181  16.848  1.00  0.00    -0.644 OA
HETATM   13  O   UNL     1     -23.985 -43.963  16.416  1.00  0.00    -0.644 OA
ENDBRANCH   6  11
TORSDOF 3
ENDMDL
MODEL 9
REMARK VINA RESULT:      -4.7     25.599     27.367
REMARK  3 active torsions:
REMARK  status: ('A' for Active; 'I' for Inactive)
REMARK    1  A    between atoms: C_2  and  O_11 
REMARK    2  A    between atoms: C_3  and  O_11 
REMARK    3  A    between atoms: C_8  and  C_9 
ROOT
HETATM    1  C   UNL     1     -46.686 -45.775 -22.119  1.00  0.00     0.096 A 
HETATM    2  C   UNL     1     -45.342 -45.715 -21.817  1.00  0.00     0.038 A 
HETATM    3  C   UNL     1     -44.416 -45.051 -22.597  1.00  0.00     0.003 A 
HETATM    4  C   UNL     1     -44.859 -44.418 -23.733  1.00  0.00     0.001 A 
HETATM    5  C   UNL     1     -46.192 -44.446 -24.081  1.00  0.00     0.021 A 
HETATM    6  C   UNL     1     -47.098 -45.128 -23.267  1.00  0.00     0.074 A 
ENDROOT
BRANCH   1   7
HETATM    7  O   UNL     1     -47.637 -46.420 -21.376  1.00  0.00    -0.278 OA
BRANCH   7   8
HETATM    8  C   UNL     1     -47.930 -47.754 -21.428  1.00  0.00     0.260 C 
HETATM    9  C   UNL     1     -46.931 -48.810 -21.128  1.00  0.00     0.126 C 
HETATM   10  O   UNL     1     -49.127 -48.019 -21.752  1.00  0.00    -0.265 OA
ENDBRANCH   7   8
ENDBRANCH   1   7
BRANCH   6  11
HETATM   11  C   UNL     1     -48.499 -45.133 -23.671  1.00  0.00     0.212 C 
HETATM   12  O   UNL     1     -48.924 -45.957 -24.521  1.00  0.00    -0.644 OA
HETATM   13  O   UNL     1     -49.410 -44.235 -23.140  1.00  0.00    -0.644 OA
ENDBRANCH   6  11
TORSDOF 3
ENDMDL
MODEL 10
REMARK VINA RESULT:      -4.7     18.008     20.137
REMARK  3 active torsions:
REMARK  status: ('A' for Active; 'I' for Inactive)
REMARK    1  A    between atoms: C_2  and  O_11 
REMARK    2  A    between atoms: C_3  and  O_11 
REMARK    3  A    between atoms: C_8  and  C_9 
ROOT
HETATM    1  C   UNL     1     -41.511 -51.192 -14.134  1.00  0.00     0.096 A 
HETATM    2  C   UNL     1     -41.129 -49.988 -14.688  1.00  0.00     0.038 A 
HETATM    3  C   UNL     1     -41.603 -49.523 -15.899  1.00  0.00     0.003 A 
HETATM    4  C   UNL     1     -42.501 -50.303 -16.587  1.00  0.00     0.001 A 
HETATM    5  C   UNL     1     -42.917 -51.514 -16.078  1.00  0.00     0.021 A 
HETATM    6  C   UNL     1     -42.415 -51.951 -14.851  1.00  0.00     0.074 A 
ENDROOT
BRANCH   1   7
HETATM    7  O   UNL     1     -41.068 -51.691 -12.939  1.00  0.00    -0.278 OA
BRANCH   7   8
HETATM    8  C   UNL     1     -39.806 -52.145 -12.675  1.00  0.00     0.260 C 
HETATM    9  C   UNL     1     -38.998 -52.897 -13.668  1.00  0.00     0.126 C 
HETATM   10  O   UNL     1     -39.378 -51.871 -11.513  1.00  0.00    -0.265 OA
ENDBRANCH   7   8
ENDBRANCH   1   7
BRANCH   6  11
HETATM   11  C   UNL     1     -42.881 -53.238 -14.350  1.00  0.00     0.212 C 
HETATM   12  O   UNL     1     -43.983 -53.340 -13.752  1.00  0.00    -0.644 OA
HETATM   13  O   UNL     1     -42.131 -54.392 -14.508  1.00  0.00    -0.644 OA
ENDBRANCH   6  11
TORSDOF 3
ENDMDL
MODEL 11
REMARK VINA RESULT:      -4.7     25.218     27.085
REMARK  3 active torsions:
REMARK  status: ('A' for Active; 'I' for Inactive)
REMARK    1  A    between atoms: C_2  and  O_11 
REMARK    2  A    between atoms: C_3  and  O_11 
REMARK    3  A    between atoms: C_8  and  C_9 
ROOT
HETATM    1  C   UNL     1     -39.405 -61.077   4.773  1.00  0.00     0.096 A 
HETATM    2  C   UNL     1     -40.253 -60.981   5.855  1.00  0.00     0.038 A 
HETATM    3  C   UNL     1     -40.944 -62.055   6.380  1.00  0.00     0.003 A 
HETATM    4  C   UNL     1     -40.776 -63.285   5.790  1.00  0.00     0.001 A 
HETATM    5  C   UNL     1     -39.939 -63.437   4.706  1.00  0.00     0.021 A 
HETATM    6  C   UNL     1     -39.259 -62.327   4.204  1.00  0.00     0.074 A 
ENDROOT
BRANCH   1   7
HETATM    7  O   UNL     1     -38.702 -60.041   4.221  1.00  0.00    -0.278 OA
BRANCH   7   8
HETATM    8  C   UNL     1     -38.973 -58.711   4.379  1.00  0.00     0.260 C 
HETATM    9  C   UNL     1     -38.048 -57.779   5.072  1.00  0.00     0.126 C 
HETATM   10  O   UNL     1     -40.079 -58.333   3.886  1.00  0.00    -0.265 OA
ENDBRANCH   7   8
ENDBRANCH   1   7
BRANCH   6  11
HETATM   11  C   UNL     1     -38.384 -62.533   3.055  1.00  0.00     0.212 C 
HETATM   12  O   UNL     1     -38.779 -62.283   1.888  1.00  0.00    -0.644 OA
HETATM   13  O   UNL     1     -37.092 -63.009   3.205  1.00  0.00    -0.644 OA
ENDBRANCH   6  11
TORSDOF 3
ENDMDL
MODEL 12
REMARK VINA RESULT:      -4.6     22.916     23.875
REMARK  3 active torsions:
REMARK  status: ('A' for Active; 'I' for Inactive)
REMARK    1  A    between atoms: C_2  and  O_11 
REMARK    2  A    between atoms: C_3  and  O_11 
REMARK    3  A    between atoms: C_8  and  C_9 
ROOT
HETATM    1  C   UNL     1     -16.291 -42.324  12.772  1.00  0.00     0.096 A 
HETATM    2  C   UNL     1     -15.427 -41.264  12.599  1.00  0.00     0.038 A 
HETATM    3  C   UNL     1     -14.824 -40.963  11.394  1.00  0.00     0.003 A 
HETATM    4  C   UNL     1     -15.101 -41.763  10.312  1.00  0.00     0.001 A 
HETATM    5  C   UNL     1     -15.959 -42.835  10.430  1.00  0.00     0.021 A 
HETATM    6  C   UNL     1     -16.549 -43.108  11.665  1.00  0.00     0.074 A 
ENDROOT
BRANCH   1   7
HETATM    7  O   UNL     1     -16.910 -42.659  13.947  1.00  0.00    -0.278 OA
BRANCH   7   8
HETATM    8  C   UNL     1     -17.927 -41.970  14.545  1.00  0.00     0.260 C 
HETATM    9  C   UNL     1     -17.692 -40.866  15.511  1.00  0.00     0.126 C 
HETATM   10  O   UNL     1     -19.090 -42.347  14.210  1.00  0.00    -0.265 OA
ENDBRANCH   7   8
ENDBRANCH   1   7
BRANCH   6  11
HETATM   11  C   UNL     1     -17.450 -44.251  11.746  1.00  0.00     0.212 C 
HETATM   12  O   UNL     1     -18.589 -44.216  11.215  1.00  0.00    -0.644 OA
HETATM   13  O   UNL     1     -17.089 -45.412  12.410  1.00  0.00    -0.644 OA
ENDBRANCH   6  11
TORSDOF 3
ENDMDL
MODEL 13
REMARK VINA RESULT:      -4.6     13.273     14.662
REMARK  3 active torsions:
REMARK  status: ('A' for Active; 'I' for Inactive)
REMARK    1  A    between atoms: C_2  and  O_11 
REMARK    2  A    between atoms: C_3  and  O_11 
REMARK    3  A    between atoms: C_8  and  C_9 
ROOT
HETATM    1  C   UNL     1     -13.687 -43.968  -0.493  1.00  0.00     0.096 A 
HETATM    2  C   UNL     1     -13.725 -44.080  -1.867  1.00  0.00     0.038 A 
HETATM    3  C   UNL     1     -13.575 -45.278  -2.537  1.00  0.00     0.003 A 
HETATM    4  C   UNL     1     -13.376 -46.417  -1.794  1.00  0.00     0.001 A 
HETATM    5  C   UNL     1     -13.330 -46.361  -0.418  1.00  0.00     0.021 A 
HETATM    6  C   UNL     1     -13.486 -45.131   0.224  1.00  0.00     0.074 A 
ENDROOT
BRANCH   1   7
HETATM    7  O   UNL     1     -13.831 -42.803   0.211  1.00  0.00    -0.278 OA
BRANCH   7   8
HETATM    8  C   UNL     1     -12.903 -41.807   0.317  1.00  0.00     0.260 C 
HETATM    9  C   UNL     1     -13.267 -40.392   0.582  1.00  0.00     0.126 C 
HETATM   10  O   UNL     1     -11.701 -42.186   0.171  1.00  0.00    -0.265 OA
ENDBRANCH   7   8
ENDBRANCH   1   7
BRANCH   6  11
HETATM   11  C   UNL     1     -13.430 -45.116   1.681  1.00  0.00     0.212 C 
HETATM   12  O   UNL     1     -12.398 -44.728   2.285  1.00  0.00    -0.644 OA
HETATM   13  O   UNL     1     -14.505 -45.528   2.451  1.00  0.00    -0.644 OA
ENDBRANCH   6  11
TORSDOF 3
ENDMDL
MODEL 14
REMARK VINA RESULT:      -4.6     28.560     29.519
REMARK  3 active torsions:
REMARK  status: ('A' for Active; 'I' for Inactive)
REMARK    1  A    between atoms: C_2  and  O_11 
REMARK    2  A    between atoms: C_3  and  O_11 
REMARK    3  A    between atoms: C_8  and  C_9 
ROOT
HETATM    1  C   UNL     1     -22.785 -44.106  19.507  1.00  0.00     0.096 A 
HETATM    2  C   UNL     1     -23.177 -43.038  20.287  1.00  0.00     0.038 A 
HETATM    3  C   UNL     1     -24.391 -42.397  20.145  1.00  0.00     0.003 A 
HETATM    4  C   UNL     1     -25.254 -42.848  19.176  1.00  0.00     0.001 A 
HETATM    5  C   UNL     1     -24.913 -43.911  18.369  1.00  0.00     0.021 A 
HETATM    6  C   UNL     1     -23.676 -44.534  18.541  1.00  0.00     0.074 A 
ENDROOT
BRANCH   1   7
HETATM    7  O   UNL     1     -21.593 -44.770  19.612  1.00  0.00    -0.278 OA
BRANCH   7   8
HETATM    8  C   UNL     1     -20.731 -44.713  20.671  1.00  0.00     0.260 C 
HETATM    9  C   UNL     1     -20.980 -45.425  21.950  1.00  0.00     0.126 C 
HETATM   10  O   UNL     1     -19.699 -44.003  20.474  1.00  0.00    -0.265 OA
ENDBRANCH   7   8
ENDBRANCH   1   7
BRANCH   6  11
HETATM   11  C   UNL     1     -23.354 -45.655  17.667  1.00  0.00     0.212 C 
HETATM   12  O   UNL     1     -22.902 -45.464  16.509  1.00  0.00    -0.644 OA
HETATM   13  O   UNL     1     -23.536 -46.966  18.074  1.00  0.00    -0.644 OA
ENDBRANCH   6  11
TORSDOF 3
ENDMDL
MODEL 15
REMARK VINA RESULT:      -4.6      8.783     11.102
REMARK  3 active torsions:
REMARK  status: ('A' for Active; 'I' for Inactive)
REMARK    1  A    between atoms: C_2  and  O_11 
REMARK    2  A    between atoms: C_3  and  O_11 
REMARK    3  A    between atoms: C_8  and  C_9 
ROOT
HETATM    1  C   UNL     1     -15.690 -53.094  -7.554  1.00  0.00     0.096 A 
HETATM    2  C   UNL     1     -15.233 -53.491  -8.792  1.00  0.00     0.038 A 
HETATM    3  C   UNL     1     -15.637 -54.656  -9.415  1.00  0.00     0.003 A 
HETATM    4  C   UNL     1     -16.542 -55.459  -8.764  1.00  0.00     0.001 A 
HETATM    5  C   UNL     1     -17.031 -55.109  -7.525  1.00  0.00     0.021 A 
HETATM    6  C   UNL     1     -16.598 -53.925  -6.927  1.00  0.00     0.074 A 
ENDROOT
BRANCH   1   7
HETATM    7  O   UNL     1     -15.317 -51.951  -6.900  1.00  0.00    -0.278 OA
BRANCH   7   8
HETATM    8  C   UNL     1     -15.502 -50.673  -7.346  1.00  0.00     0.260 C 
HETATM    9  C   UNL     1     -16.808 -50.177  -7.850  1.00  0.00     0.126 C 
HETATM   10  O   UNL     1     -14.468 -49.940  -7.294  1.00  0.00    -0.265 OA
ENDBRANCH   7   8
ENDBRANCH   1   7
BRANCH   6  11
HETATM   11  C   UNL     1     -17.141 -53.591  -5.615  1.00  0.00     0.212 C 
HETATM   12  O   UNL     1     -16.655 -54.092  -4.568  1.00  0.00    -0.644 OA
HETATM   13  O   UNL     1     -18.206 -52.718  -5.472  1.00  0.00    -0.644 OA
ENDBRANCH   6  11
TORSDOF 3
ENDMDL
MODEL 16
REMARK VINA RESULT:      -4.6     15.183     17.477
REMARK  3 active torsions:
REMARK  status: ('A' for Active; 'I' for Inactive)
REMARK    1  A    between atoms: C_2  and  O_11 
REMARK    2  A    between atoms: C_3  and  O_11 
REMARK    3  A    between atoms: C_8  and  C_9 
ROOT
HETATM    1  C   UNL     1     -39.035 -52.341 -12.973  1.00  0.00     0.096 A 
HETATM    2  C   UNL     1     -40.257 -51.753 -12.724  1.00  0.00     0.038 A 
HETATM    3  C   UNL     1     -41.183 -51.474 -13.711  1.00  0.00     0.003 A 
HETATM    4  C   UNL     1     -40.867 -51.800 -15.007  1.00  0.00     0.001 A 
HETATM    5  C   UNL     1     -39.659 -52.390 -15.311  1.00  0.00     0.021 A 
HETATM    6  C   UNL     1     -38.749 -52.656 -14.287  1.00  0.00     0.074 A 
ENDROOT
BRANCH   1   7
HETATM    7  O   UNL     1     -38.090 -52.635 -12.028  1.00  0.00    -0.278 OA
BRANCH   7   8
HETATM    8  C   UNL     1     -37.300 -51.733 -11.372  1.00  0.00     0.260 C 
HETATM    9  C   UNL     1     -35.909 -51.427 -11.791  1.00  0.00     0.126 C 
HETATM   10  O   UNL     1     -37.851 -51.175 -10.375  1.00  0.00    -0.265 OA
ENDBRANCH   7   8
ENDBRANCH   1   7
BRANCH   6  11
HETATM   11  C   UNL     1     -37.484 -53.281 -14.651  1.00  0.00     0.212 C 
HETATM   12  O   UNL     1     -37.327 -54.526 -14.563  1.00  0.00    -0.644 OA
HETATM   13  O   UNL     1     -36.410 -52.533 -15.104  1.00  0.00    -0.644 OA
ENDBRANCH   6  11
TORSDOF 3
ENDMDL
MODEL 17
REMARK VINA RESULT:      -4.5     28.393     30.157
REMARK  3 active torsions:
REMARK  status: ('A' for Active; 'I' for Inactive)
REMARK    1  A    between atoms: C_2  and  O_11 
REMARK    2  A    between atoms: C_3  and  O_11 
REMARK    3  A    between atoms: C_8  and  C_9 
ROOT
HETATM    1  C   UNL     1     -45.478 -35.957   6.556  1.00  0.00     0.096 A 
HETATM    2  C   UNL     1     -44.603 -35.975   5.491  1.00  0.00     0.038 A 
HETATM    3  C   UNL     1     -43.304 -36.434   5.580  1.00  0.00     0.003 A 
HETATM    4  C   UNL     1     -42.861 -36.896   6.796  1.00  0.00     0.001 A 
HETATM    5  C   UNL     1     -43.694 -36.900   7.894  1.00  0.00     0.021 A 
HETATM    6  C   UNL     1     -45.001 -36.428   7.764  1.00  0.00     0.074 A 
ENDROOT
BRANCH   1   7
HETATM    7  O   UNL     1     -46.771 -35.511   6.513  1.00  0.00    -0.278 OA
BRANCH   7   8
HETATM    8  C   UNL     1     -47.799 -36.090   5.824  1.00  0.00     0.260 C 
HETATM    9  C   UNL     1     -48.783 -35.305   5.037  1.00  0.00     0.126 C 
HETATM   10  O   UNL     1     -47.846 -37.355   5.908  1.00  0.00    -0.265 OA
ENDBRANCH   7   8
ENDBRANCH   1   7
BRANCH   6  11
HETATM   11  C   UNL     1     -45.849 -36.450   8.950  1.00  0.00     0.212 C 
HETATM   12  O   UNL     1     -45.860 -35.484   9.755  1.00  0.00    -0.644 OA
HETATM   13  O   UNL     1     -46.668 -37.529   9.235  1.00  0.00    -0.644 OA
ENDBRANCH   6  11
TORSDOF 3
ENDMDL
MODEL 18
REMARK VINA RESULT:      -4.5     12.121     13.249
REMARK  3 active torsions:
REMARK  status: ('A' for Active; 'I' for Inactive)
REMARK    1  A    between atoms: C_2  and  O_11 
REMARK    2  A    between atoms: C_3  and  O_11 
REMARK    3  A    between atoms: C_8  and  C_9 
ROOT
HETATM    1  C   UNL     1     -13.914 -44.140  -1.499  1.00  0.00     0.096 A 
HETATM    2  C   UNL     1     -13.095 -43.639  -2.488  1.00  0.00     0.038 A 
HETATM    3  C   UNL     1     -12.052 -42.768  -2.245  1.00  0.00     0.003 A 
HETATM    4  C   UNL     1     -11.821 -42.380  -0.947  1.00  0.00     0.001 A 
HETATM    5  C   UNL     1     -12.609 -42.851   0.080  1.00  0.00     0.021 A 
HETATM    6  C   UNL     1     -13.654 -43.731  -0.206  1.00  0.00     0.074 A 
ENDROOT
BRANCH   1   7
HETATM    7  O   UNL     1     -14.957 -45.005  -1.695  1.00  0.00    -0.278 OA
BRANCH   7   8
HETATM    8  C   UNL     1     -14.868 -46.272  -2.198  1.00  0.00     0.260 C 
HETATM    9  C   UNL     1     -14.064 -47.340  -1.552  1.00  0.00     0.126 C 
HETATM   10  O   UNL     1     -15.529 -46.465  -3.263  1.00  0.00    -0.265 OA
ENDBRANCH   7   8
ENDBRANCH   1   7
BRANCH   6  11
HETATM   11  C   UNL     1     -14.464 -44.205   0.910  1.00  0.00     0.212 C 
HETATM   12  O   UNL     1     -14.054 -45.127   1.661  1.00  0.00    -0.644 OA
HETATM   13  O   UNL     1     -15.708 -43.663   1.184  1.00  0.00    -0.644 OA
ENDBRANCH   6  11
TORSDOF 3
ENDMDL
MODEL 19
REMARK VINA RESULT:      -4.5     12.221     14.327
REMARK  3 active torsions:
REMARK  status: ('A' for Active; 'I' for Inactive)
REMARK    1  A    between atoms: C_2  and  O_11 
REMARK    2  A    between atoms: C_3  and  O_11 
REMARK    3  A    between atoms: C_8  and  C_9 
ROOT
HETATM    1  C   UNL     1     -32.917 -46.662 -19.430  1.00  0.00     0.096 A 
HETATM    2  C   UNL     1     -32.934 -47.825 -18.690  1.00  0.00     0.038 A 
HETATM    3  C   UNL     1     -31.821 -48.338 -18.052  1.00  0.00     0.003 A 
HETATM    4  C   UNL     1     -30.636 -47.652 -18.163  1.00  0.00     0.001 A 
HETATM    5  C   UNL     1     -30.563 -46.484 -18.891  1.00  0.00     0.021 A 
HETATM    6  C   UNL     1     -31.709 -45.997 -19.521  1.00  0.00     0.074 A 
ENDROOT
BRANCH   1   7
HETATM    7  O   UNL     1     -33.993 -46.118 -20.077  1.00  0.00    -0.278 OA
BRANCH   7   8
HETATM    8  C   UNL     1     -35.144 -46.772 -20.415  1.00  0.00     0.260 C 
HETATM    9  C   UNL     1     -35.311 -47.496 -21.700  1.00  0.00     0.126 C 
HETATM   10  O   UNL     1     -36.061 -46.713 -19.540  1.00  0.00    -0.265 OA
ENDBRANCH   7   8
ENDBRANCH   1   7
BRANCH   6  11
HETATM   11  C   UNL     1     -31.589 -44.758 -20.281  1.00  0.00     0.212 C 
HETATM   12  O   UNL     1     -31.645 -43.640 -19.708  1.00  0.00    -0.644 OA
HETATM   13  O   UNL     1     -31.411 -44.765 -21.654  1.00  0.00    -0.644 OA
ENDBRANCH   6  11
TORSDOF 3
ENDMDL
MODEL 20
REMARK VINA RESULT:      -4.4     19.516     20.759
REMARK  3 active torsions:
REMARK  status: ('A' for Active; 'I' for Inactive)
REMARK    1  A    between atoms: C_2  and  O_11 
REMARK    2  A    between atoms: C_3  and  O_11 
REMARK    3  A    between atoms: C_8  and  C_9 
ROOT
HETATM    1  C   UNL     1     -12.945 -47.070   6.925  1.00  0.00     0.096 A 
HETATM    2  C   UNL     1     -13.530 -47.609   5.799  1.00  0.00     0.038 A 
HETATM    3  C   UNL     1     -12.971 -48.641   5.071  1.00  0.00     0.003 A 
HETATM    4  C   UNL     1     -11.769 -49.155   5.492  1.00  0.00     0.001 A 
HETATM    5  C   UNL     1     -11.141 -48.653   6.611  1.00  0.00     0.021 A 
HETATM    6  C   UNL     1     -11.737 -47.610   7.321  1.00  0.00     0.074 A 
ENDROOT
BRANCH   1   7
HETATM    7  O   UNL     1     -13.462 -46.049   7.676  1.00  0.00    -0.278 OA
BRANCH   7   8
HETATM    8  C   UNL     1     -13.679 -44.768   7.252  1.00  0.00     0.260 C 
HETATM    9  C   UNL     1     -12.661 -43.694   7.381  1.00  0.00     0.126 C 
HETATM   10  O   UNL     1     -14.821 -44.568   6.737  1.00  0.00    -0.265 OA
ENDBRANCH   7   8
ENDBRANCH   1   7
BRANCH   6  11
HETATM   11  C   UNL     1     -11.039 -47.108   8.499  1.00  0.00     0.212 C 
HETATM   12  O   UNL     1     -11.152 -47.684   9.612  1.00  0.00    -0.644 OA
HETATM   13  O   UNL     1     -10.232 -45.984   8.440  1.00  0.00    -0.644 OA
ENDBRANCH   6  11
TORSDOF 3
ENDMDL
