@<TRIPOS>MOLECULE
query molecule
   20    20     1     0     0
SMALL
NO_CHARGE

@<TRIPOS>ATOM
      1 C           9.7162   26.0567   -8.1271 C.3       1 MOL     0.1362
      2 C           9.9575   26.6818   -6.7592 C.2       1 MOL     0.3092
      3 C          11.5509   26.4448   -5.0431 C.ar      1 MOL     0.1404
      4 C          12.0043   27.6855   -4.5771 C.ar      1 MOL     0.0468
      5 C          12.4749   27.8245   -3.2663 C.ar      1 MOL     0.0037
      6 C          12.4827   26.7315   -2.4051 C.ar      1 MOL     0.0009
      7 C          12.0321   25.4983   -2.8545 C.ar      1 MOL     0.0131
      8 C          11.5759   25.3379   -4.1807 C.ar      1 MOL     0.0397
      9 C          11.2129   23.9316   -4.6140 C.2       1 MOL     0.0752
     10 O           9.1572   27.3935   -6.1782 O.2       1 MOL    -0.2507
     11 O          11.1294   26.3019   -6.3387 O.3       1 MOL    -0.4254
     12 O          11.4974   23.0281   -3.7662 O.co2     1 MOL    -0.5445
     13 O          10.7088   23.7413   -5.7574 O.co2     1 MOL    -0.5445
     14 H           8.7091   26.3368   -8.4989 H         1 MOL     0.0342
     15 H           9.7705   24.9506   -8.0476 H         1 MOL     0.0342
     16 H          10.4795   26.4039   -8.8502 H         1 MOL     0.0342
     17 H          11.9956   28.5414   -5.2367 H         1 MOL     0.0654
     18 H          12.8316   28.7853   -2.9235 H         1 MOL     0.0619
     19 H          12.8392   26.8422   -1.3873 H         1 MOL     0.0618
     20 H          12.0432   24.6465   -2.1879 H         1 MOL     0.0625
@<TRIPOS>BOND
     1    1    2 1 
     2    1   14 1 
     3    1   15 1 
     4    1   16 1 
     5    2   10 2 
     6    2   11 1 
     7    3    4 ar
     8    3    8 ar
     9    3   11 1 
    10    4    5 ar
    11    4   17 1 
    12    5    6 ar
    13    5   18 1 
    14    6    7 ar
    15    6   19 1 
    16    7    8 ar
    17    7   20 1 
    18    8    9 1 
    19    9   12 ar
    20    9   13 ar
@<TRIPOS>SUBSTRUCTURE
1 MOL         1
@<TRIPOS>MOLECULE
query molecule
   20    20     1     0     0
SMALL
NO_CHARGE

@<TRIPOS>ATOM
      1 C           0.3286   29.6392   -3.5275 C.3       1 MOL     0.1362
      2 C          -0.7964   28.6286   -3.6944 C.2       1 MOL     0.3092
      3 C          -1.0777   26.2944   -3.8592 C.ar      1 MOL     0.1404
      4 C          -1.8730   25.7323   -2.8417 C.ar      1 MOL     0.0468
      5 C          -2.6698   24.6163   -3.0815 C.ar      1 MOL     0.0037
      6 C          -2.6701   24.0431   -4.3507 C.ar      1 MOL     0.0009
      7 C          -1.8693   24.5728   -5.3603 C.ar      1 MOL     0.0131
      8 C          -1.0720   25.7116   -5.1357 C.ar      1 MOL     0.0397
      9 C          -0.2697   26.2255   -6.3158 C.2       1 MOL     0.0752
     10 O          -1.9604   28.9206   -3.9012 O.2       1 MOL    -0.2507
     11 O          -0.3051   27.4066   -3.5724 O.3       1 MOL    -0.4254
     12 O           0.3317   27.3319   -6.1953 O.co2     1 MOL    -0.5445
     13 O          -0.2685   25.4883   -7.3507 O.co2     1 MOL    -0.5445
     14 H          -0.0681   30.6713   -3.6169 H         1 MOL     0.0342
     15 H           1.0992   29.4806   -4.3083 H         1 MOL     0.0342
     16 H           0.7982   29.5206   -2.5295 H         1 MOL     0.0342
     17 H          -1.8725   26.1792   -1.8564 H         1 MOL     0.0654
     18 H          -3.2763   24.1996   -2.2947 H         1 MOL     0.0619
     19 H          -3.2838   23.1793   -4.5497 H         1 MOL     0.0618
     20 H          -1.8637   24.1039   -6.3347 H         1 MOL     0.0625
@<TRIPOS>BOND
     1    1    2 1 
     2    1   14 1 
     3    1   15 1 
     4    1   16 1 
     5    2   10 2 
     6    2   11 1 
     7    3    4 ar
     8    3    8 ar
     9    3   11 1 
    10    4    5 ar
    11    4   17 1 
    12    5    6 ar
    13    5   18 1 
    14    6    7 ar
    15    6   19 1 
    16    7    8 ar
    17    7   20 1 
    18    8    9 1 
    19    9   12 ar
    20    9   13 ar
@<TRIPOS>SUBSTRUCTURE
1 MOL         1
@<TRIPOS>MOLECULE
query molecule
   20    20     1     0     0
SMALL
NO_CHARGE

@<TRIPOS>ATOM
      1 C           6.6744   14.8709   13.5218 C.3       1 MOL     0.1362
      2 C           6.8074   15.0363   12.0131 C.2       1 MOL     0.3092
      3 C           6.4732   13.6769   10.1098 C.ar      1 MOL     0.1404
      4 C           7.6387   13.7408    9.3210 C.ar      1 MOL     0.0468
      5 C           7.5800   13.5357    7.9417 C.ar      1 MOL     0.0037
      6 C           6.3567   13.2664    7.3324 C.ar      1 MOL     0.0009
      7 C           5.2051   13.1829    8.1097 C.ar      1 MOL     0.0131
      8 C           5.2420   13.3662    9.5046 C.ar      1 MOL     0.0397
      9 C           3.9310   13.1779   10.2518 C.2       1 MOL     0.0752
     10 O           7.0829   16.0866   11.4616 O.2       1 MOL    -0.2507
     11 O           6.5694   13.8802   11.4628 O.3       1 MOL    -0.4254
     12 O           2.9584   12.6767    9.6043 O.co2     1 MOL    -0.5445
     13 O           3.9051   13.5262   11.4695 O.co2     1 MOL    -0.5445
     14 H           6.8991   15.8293   14.0317 H         1 MOL     0.0342
     15 H           7.3781   14.0938   13.8839 H         1 MOL     0.0342
     16 H           5.6389   14.5623   13.7759 H         1 MOL     0.0342
     17 H           8.5920   13.9562    9.7859 H         1 MOL     0.0654
     18 H           8.4811   13.5843    7.3476 H         1 MOL     0.0619
     19 H           6.3018   13.1168    6.2653 H         1 MOL     0.0618
     20 H           4.2562   12.9744    7.6348 H         1 MOL     0.0625
@<TRIPOS>BOND
     1    1    2 1 
     2    1   14 1 
     3    1   15 1 
     4    1   16 1 
     5    2   10 2 
     6    2   11 1 
     7    3    4 ar
     8    3    8 ar
     9    3   11 1 
    10    4    5 ar
    11    4   17 1 
    12    5    6 ar
    13    5   18 1 
    14    6    7 ar
    15    6   19 1 
    16    7    8 ar
    17    7   20 1 
    18    8    9 1 
    19    9   12 ar
    20    9   13 ar
@<TRIPOS>SUBSTRUCTURE
1 MOL         1
@<TRIPOS>MOLECULE
query molecule
   20    20     1     0     0
SMALL
NO_CHARGE

@<TRIPOS>ATOM
      1 C           6.6376   14.2661    5.8221 C.3       1 MOL     0.1362
      2 C           6.9633   14.9967    4.5220 C.2       1 MOL     0.3092
      3 C           8.2429   14.5133    2.5923 C.ar      1 MOL     0.1404
      4 C           7.5484   14.6698    1.3864 C.ar      1 MOL     0.0468
      5 C           8.2050   15.0339    0.2156 C.ar      1 MOL     0.0037
      6 C           9.5807   15.2421    0.2366 C.ar      1 MOL     0.0009
      7 C          10.2915   15.0773    1.4246 C.ar      1 MOL     0.0131
      8 C           9.6375   14.7064    2.6197 C.ar      1 MOL     0.0397
      9 C          10.5078   14.5215    3.8500 C.2       1 MOL     0.0752
     10 O           6.7101   16.1715    4.3241 O.2       1 MOL    -0.2507
     11 O           7.5536   14.1486    3.7243 O.3       1 MOL    -0.4254
     12 O           9.9486   14.1525    4.9242 O.co2     1 MOL    -0.5445
     13 O          11.7493   14.7429    3.6931 O.co2     1 MOL    -0.5445
     14 H           6.1419   14.9721    6.5186 H         1 MOL     0.0342
     15 H           7.5582   13.8738    6.3046 H         1 MOL     0.0342
     16 H           5.9477   13.4246    5.6183 H         1 MOL     0.0342
     17 H           6.4827   14.5082    1.3793 H         1 MOL     0.0654
     18 H           7.6410   15.1552   -0.6962 H         1 MOL     0.0619
     19 H          10.0894   15.5305   -0.6695 H         1 MOL     0.0618
     20 H          11.3622   15.2374    1.4227 H         1 MOL     0.0625
@<TRIPOS>BOND
     1    1    2 1 
     2    1   14 1 
     3    1   15 1 
     4    1   16 1 
     5    2   10 2 
     6    2   11 1 
     7    3    4 ar
     8    3    8 ar
     9    3   11 1 
    10    4    5 ar
    11    4   17 1 
    12    5    6 ar
    13    5   18 1 
    14    6    7 ar
    15    6   19 1 
    16    7    8 ar
    17    7   20 1 
    18    8    9 1 
    19    9   12 ar
    20    9   13 ar
@<TRIPOS>SUBSTRUCTURE
1 MOL         1
@<TRIPOS>MOLECULE
query molecule
   20    20     1     0     0
SMALL
NO_CHARGE

@<TRIPOS>ATOM
      1 C           1.5358   11.1136  -13.0269 C.3       1 MOL     0.1362
      2 C           1.9594   12.4587  -12.4431 C.2       1 MOL     0.3092
      3 C           1.7735   13.5825  -10.3759 C.ar      1 MOL     0.1404
      4 C           2.9532   14.2646  -10.0415 C.ar      1 MOL     0.0468
      5 C           2.9060   15.4703   -9.3460 C.ar      1 MOL     0.0037
      6 C           1.6739   16.0104   -8.9811 C.ar      1 MOL     0.0009
      7 C           0.4937   15.3399   -9.3035 C.ar      1 MOL     0.0131
      8 C           0.5303   14.1064   -9.9754 C.ar      1 MOL     0.0397
      9 C          -0.7768   13.3788  -10.2257 C.2       1 MOL     0.0752
     10 O           2.3289   13.4062  -13.1156 O.2       1 MOL    -0.2507
     11 O           1.8315   12.4107  -11.1149 O.3       1 MOL    -0.4254
     12 O          -0.7292   12.1185  -10.3503 O.co2     1 MOL    -0.5445
     13 O          -1.8172   14.1016  -10.2738 O.co2     1 MOL    -0.5445
     14 H           1.6424   11.1321  -14.1310 H         1 MOL     0.0342
     15 H           0.4701   10.9222  -12.7780 H         1 MOL     0.0342
     16 H           2.1540   10.2929  -12.6144 H         1 MOL     0.0342
     17 H           3.9085   13.8514  -10.3333 H         1 MOL     0.0654
     18 H           3.8219   15.9879   -9.1018 H         1 MOL     0.0619
     19 H           1.6337   16.9484   -8.4469 H         1 MOL     0.0618
     20 H          -0.4590   15.7644   -9.0179 H         1 MOL     0.0625
@<TRIPOS>BOND
     1    1    2 1 
     2    1   14 1 
     3    1   15 1 
     4    1   16 1 
     5    2   10 2 
     6    2   11 1 
     7    3    4 ar
     8    3    8 ar
     9    3   11 1 
    10    4    5 ar
    11    4   17 1 
    12    5    6 ar
    13    5   18 1 
    14    6    7 ar
    15    6   19 1 
    16    7    8 ar
    17    7   20 1 
    18    8    9 1 
    19    9   12 ar
    20    9   13 ar
@<TRIPOS>SUBSTRUCTURE
1 MOL         1
@<TRIPOS>MOLECULE
query molecule
   20    20     1     0     0
SMALL
NO_CHARGE

@<TRIPOS>ATOM
      1 C          21.6429    7.9971    1.9676 C.3       1 MOL     0.1362
      2 C          22.3030    7.7551    0.6169 C.2       1 MOL     0.3092
      3 C          23.8305    8.8194   -0.8242 C.ar      1 MOL     0.1404
      4 C          24.8587    7.9150   -1.1526 C.ar      1 MOL     0.0468
      5 C          25.4615    7.9511   -2.4082 C.ar      1 MOL     0.0037
      6 C          25.0379    8.8857   -3.3515 C.ar      1 MOL     0.0009
      7 C          24.0293    9.7916   -3.0272 C.ar      1 MOL     0.0131
      8 C          23.4421    9.8026   -1.7490 C.ar      1 MOL     0.0397
      9 C          22.4583   10.9227   -1.4566 C.2       1 MOL     0.0752
     10 O          22.0207    6.8328   -0.1366 O.2       1 MOL    -0.2507
     11 O          23.2049    8.7024    0.4113 O.3       1 MOL    -0.4254
     12 O          22.1157   11.6719   -2.4282 O.co2     1 MOL    -0.5445
     13 O          22.0662   11.0624   -0.2571 O.co2     1 MOL    -0.5445
     14 H          20.5461    7.8502    1.8808 H         1 MOL     0.0342
     15 H          21.8388    9.0363    2.3034 H         1 MOL     0.0342
     16 H          22.0397    7.2927    2.7262 H         1 MOL     0.0342
     17 H          25.1800    7.1799   -0.4272 H         1 MOL     0.0654
     18 H          26.2482    7.2529   -2.6520 H         1 MOL     0.0619
     19 H          25.4905    8.9075   -4.3317 H         1 MOL     0.0618
     20 H          23.7034   10.5127   -3.7646 H         1 MOL     0.0625
@<TRIPOS>BOND
     1    1    2 1 
     2    1   14 1 
     3    1   15 1 
     4    1   16 1 
     5    2   10 2 
     6    2   11 1 
     7    3    4 ar
     8    3    8 ar
     9    3   11 1 
    10    4    5 ar
    11    4   17 1 
    12    5    6 ar
    13    5   18 1 
    14    6    7 ar
    15    6   19 1 
    16    7    8 ar
    17    7   20 1 
    18    8    9 1 
    19    9   12 ar
    20    9   13 ar
@<TRIPOS>SUBSTRUCTURE
1 MOL         1
@<TRIPOS>MOLECULE
query molecule
   20    20     1     0     0
SMALL
NO_CHARGE

@<TRIPOS>ATOM
      1 C          18.0050   20.1139    5.9552 C.3       1 MOL     0.1362
      2 C          18.7319   19.6260    7.2023 C.2       1 MOL     0.3092
      3 C          18.1164   18.4290    9.1401 C.ar      1 MOL     0.1404
      4 C          18.9440   17.3088    9.3537 C.ar      1 MOL     0.0468
      5 C          19.0945   16.7660   10.6318 C.ar      1 MOL     0.0037
      6 C          18.4070   17.3285   11.7069 C.ar      1 MOL     0.0009
      7 C          17.6022   18.4477   11.5038 C.ar      1 MOL     0.0131
      8 C          17.4660   19.0296   10.2300 C.ar      1 MOL     0.0397
      9 C          16.6127   20.2684   10.1361 C.2       1 MOL     0.0752
     10 O          19.8751   19.9169    7.4980 O.2       1 MOL    -0.2507
     11 O          17.9150   18.8785    7.8645 O.3       1 MOL    -0.4254
     12 O          16.0799   20.6723   11.2135 O.co2     1 MOL    -0.5445
     13 O          16.4543   20.8155    9.0026 O.co2     1 MOL    -0.5445
     14 H          18.6696   20.7646    5.3520 H         1 MOL     0.0342
     15 H          17.1090   20.6976    6.2549 H         1 MOL     0.0342
     16 H          17.6787   19.2553    5.3337 H         1 MOL     0.0342
     17 H          19.4676   16.8523    8.5246 H         1 MOL     0.0654
     18 H          19.7364   15.9107   10.7914 H         1 MOL     0.0619
     19 H          18.5008   16.8987   12.6937 H         1 MOL     0.0618
     20 H          17.0738   18.8779   12.3441 H         1 MOL     0.0625
@<TRIPOS>BOND
     1    1    2 1 
     2    1   14 1 
     3    1   15 1 
     4    1   16 1 
     5    2   10 2 
     6    2   11 1 
     7    3    4 ar
     8    3    8 ar
     9    3   11 1 
    10    4    5 ar
    11    4   17 1 
    12    5    6 ar
    13    5   18 1 
    14    6    7 ar
    15    6   19 1 
    16    7    8 ar
    17    7   20 1 
    18    8    9 1 
    19    9   12 ar
    20    9   13 ar
@<TRIPOS>SUBSTRUCTURE
1 MOL         1
@<TRIPOS>MOLECULE
query molecule
   20    20     1     0     0
SMALL
NO_CHARGE

@<TRIPOS>ATOM
      1 C          20.8426   24.8556   13.2850 C.3       1 MOL     0.1362
      2 C          21.3150   26.2931   13.1982 C.2       1 MOL     0.3092
      3 C          23.3419   27.4884   13.2133 C.ar      1 MOL     0.1404
      4 C          23.9709   27.7251   11.9776 C.ar      1 MOL     0.0468
      5 C          24.6856   28.8990   11.7498 C.ar      1 MOL     0.0037
      6 C          24.7809   29.8554   12.7587 C.ar      1 MOL     0.0009
      7 C          24.1693   29.6226   13.9900 C.ar      1 MOL     0.0131
      8 C          23.4510   28.4345   14.2381 C.ar      1 MOL     0.0397
      9 C          22.8270   28.2753   15.6081 C.2       1 MOL     0.0752
     10 O          20.5800   27.2558   13.0140 O.2       1 MOL    -0.2507
     11 O          22.6260   26.3206   13.3701 O.3       1 MOL    -0.4254
     12 O          22.8694   29.2937   16.3602 O.co2     1 MOL    -0.5445
     13 O          22.2186   27.1972   15.8820 O.co2     1 MOL    -0.5445
     14 H          20.0688   24.7463   14.0711 H         1 MOL     0.0342
     15 H          21.6964   24.1884   13.5232 H         1 MOL     0.0342
     16 H          20.4088   24.5437   12.3119 H         1 MOL     0.0342
     17 H          23.8894   26.9878   11.1906 H         1 MOL     0.0654
     18 H          25.1556   29.0688   10.7929 H         1 MOL     0.0619
     19 H          25.3252   30.7720   12.5853 H         1 MOL     0.0618
     20 H          24.2513   30.3688   14.7697 H         1 MOL     0.0625
@<TRIPOS>BOND
     1    1    2 1 
     2    1   14 1 
     3    1   15 1 
     4    1   16 1 
     5    2   10 2 
     6    2   11 1 
     7    3    4 ar
     8    3    8 ar
     9    3   11 1 
    10    4    5 ar
    11    4   17 1 
    12    5    6 ar
    13    5   18 1 
    14    6    7 ar
    15    6   19 1 
    16    7    8 ar
    17    7   20 1 
    18    8    9 1 
    19    9   12 ar
    20    9   13 ar
@<TRIPOS>SUBSTRUCTURE
1 MOL         1
@<TRIPOS>MOLECULE
query molecule
   20    20     1     0     0
SMALL
NO_CHARGE

@<TRIPOS>ATOM
      1 C          -8.3395   22.5548    2.9574 C.3       1 MOL     0.1362
      2 C          -9.2345   23.1904    1.8873 C.2       1 MOL     0.3092
      3 C          -8.6084   21.5205    0.2918 C.ar      1 MOL     0.1404
      4 C          -9.1092   20.2253    0.5111 C.ar      1 MOL     0.0468
      5 C          -8.4754   19.1116   -0.0462 C.ar      1 MOL     0.0037
      6 C          -7.3318   19.2767   -0.8276 C.ar      1 MOL     0.0009
      7 C          -6.8224   20.5564   -1.0435 C.ar      1 MOL     0.0131
      8 C          -7.4455   21.6885   -0.4809 C.ar      1 MOL     0.0397
      9 C          -6.8125   23.0386   -0.7442 C.2       1 MOL     0.0752
     10 O          -9.8489   24.2393    2.0954 O.2       1 MOL    -0.2507
     11 O          -9.2816   22.5739    0.7667 O.3       1 MOL    -0.4254
     12 O          -7.3052   24.0483   -0.1602 O.co2     1 MOL    -0.5445
     13 O          -5.8256   23.0544   -1.5459 O.co2     1 MOL    -0.5445
     14 H          -8.5115   23.0789    3.9242 H         1 MOL     0.0342
     15 H          -7.2708   22.6564    2.6884 H         1 MOL     0.0342
     16 H          -8.5865   21.4830    3.0898 H         1 MOL     0.0342
     17 H          -9.9997   20.0899    1.1084 H         1 MOL     0.0654
     18 H          -8.8737   18.1224    0.1238 H         1 MOL     0.0619
     19 H          -6.8418   18.4192   -1.2637 H         1 MOL     0.0618
     20 H          -5.9391   20.6828   -1.6486 H         1 MOL     0.0625
@<TRIPOS>BOND
     1    1    2 1 
     2    1   14 1 
     3    1   15 1 
     4    1   16 1 
     5    2   10 2 
     6    2   11 1 
     7    3    4 ar
     8    3    8 ar
     9    3   11 1 
    10    4    5 ar
    11    4   17 1 
    12    5    6 ar
    13    5   18 1 
    14    6    7 ar
    15    6   19 1 
    16    7    8 ar
    17    7   20 1 
    18    8    9 1 
    19    9   12 ar
    20    9   13 ar
@<TRIPOS>SUBSTRUCTURE
1 MOL         1
@<TRIPOS>MOLECULE
query molecule
   20    20     1     0     0
SMALL
NO_CHARGE

@<TRIPOS>ATOM
      1 C          23.9641    5.7344  -14.5712 C.3       1 MOL     0.1362
      2 C          23.8069    6.7864  -13.4802 C.2       1 MOL     0.3092
      3 C          22.6984    8.8519  -13.2434 C.ar      1 MOL     0.1404
      4 C          23.6383    9.8383  -12.8900 C.ar      1 MOL     0.0468
      5 C          23.2441   10.9875  -12.2122 C.ar      1 MOL     0.0037
      6 C          21.8984   11.1716  -11.8963 C.ar      1 MOL     0.0009
      7 C          20.9551   10.1968  -12.2404 C.ar      1 MOL     0.0131
      8 C          21.3446    9.0049  -12.8912 C.ar      1 MOL     0.0397
      9 C          20.2899    7.9422  -13.1786 C.2       1 MOL     0.0752
     10 O          24.2535    6.6948  -12.3555 O.2       1 MOL    -0.2507
     11 O          23.1254    7.7760  -13.9843 O.3       1 MOL    -0.4254
     12 O          19.0802    8.2800  -12.9760 O.co2     1 MOL    -0.5445
     13 O          20.6735    6.7967  -13.5691 O.co2     1 MOL    -0.5445
     14 H          24.5948    4.8976  -14.2100 H         1 MOL     0.0342
     15 H          24.4461    6.1872  -15.4631 H         1 MOL     0.0342
     16 H          22.9725    5.3370  -14.8692 H         1 MOL     0.0342
     17 H          24.6770    9.6966  -13.1551 H         1 MOL     0.0654
     18 H          23.9814   11.7290  -11.9417 H         1 MOL     0.0619
     19 H          21.5967   12.0725  -11.3809 H         1 MOL     0.0618
     20 H          19.9160   10.3687  -11.9917 H         1 MOL     0.0625
@<TRIPOS>BOND
     1    1    2 1 
     2    1   14 1 
     3    1   15 1 
     4    1   16 1 
     5    2   10 2 
     6    2   11 1 
     7    3    4 ar
     8    3    8 ar
     9    3   11 1 
    10    4    5 ar
    11    4   17 1 
    12    5    6 ar
    13    5   18 1 
    14    6    7 ar
    15    6   19 1 
    16    7    8 ar
    17    7   20 1 
    18    8    9 1 
    19    9   12 ar
    20    9   13 ar
@<TRIPOS>SUBSTRUCTURE
1 MOL         1
@<TRIPOS>MOLECULE
query molecule
   20    20     1     0     0
SMALL
NO_CHARGE

@<TRIPOS>ATOM
      1 C           0.6425   21.4214   12.3862 C.3       1 MOL     0.1362
      2 C          -0.0135   21.7723   11.0620 C.2       1 MOL     0.3092
      3 C          -1.7150   23.2178   10.3331 C.ar      1 MOL     0.1404
      4 C          -2.6687   22.4661    9.6218 C.ar      1 MOL     0.0468
      5 C          -3.4623   23.0660    8.6451 C.ar      1 MOL     0.0037
      6 C          -3.3117   24.4240    8.3716 C.ar      1 MOL     0.0009
      7 C          -2.3699   25.1716    9.0766 C.ar      1 MOL     0.0131
      8 C          -1.5445   24.5853   10.0533 C.ar      1 MOL     0.0397
      9 C          -0.4912   25.4638   10.7247 C.2       1 MOL     0.0752
     10 O           0.3333   21.3446    9.9725 O.2       1 MOL    -0.2507
     11 O          -0.9816   22.6017   11.3169 O.3       1 MOL    -0.4254
     12 O           0.3298   24.8950   11.5089 O.co2     1 MOL    -0.5445
     13 O          -0.4859   26.6955   10.4128 O.co2     1 MOL    -0.5445
     14 H           1.4144   20.6388   12.2486 H         1 MOL     0.0342
     15 H          -0.1243   21.0502   13.0971 H         1 MOL     0.0342
     16 H           1.1187   22.3279   12.8151 H         1 MOL     0.0342
     17 H          -2.7890   21.4138    9.8364 H         1 MOL     0.0654
     18 H          -4.1930   22.4800    8.1076 H         1 MOL     0.0619
     19 H          -3.9237   24.8925    7.6159 H         1 MOL     0.0618
     20 H          -2.2654   26.2246    8.8570 H         1 MOL     0.0625
@<TRIPOS>BOND
     1    1    2 1 
     2    1   14 1 
     3    1   15 1 
     4    1   16 1 
     5    2   10 2 
     6    2   11 1 
     7    3    4 ar
     8    3    8 ar
     9    3   11 1 
    10    4    5 ar
    11    4   17 1 
    12    5    6 ar
    13    5   18 1 
    14    6    7 ar
    15    6   19 1 
    16    7    8 ar
    17    7   20 1 
    18    8    9 1 
    19    9   12 ar
    20    9   13 ar
@<TRIPOS>SUBSTRUCTURE
1 MOL         1
@<TRIPOS>MOLECULE
query molecule
   20    20     1     0     0
SMALL
NO_CHARGE

@<TRIPOS>ATOM
      1 C          -3.8426    7.2483   -0.2938 C.3       1 MOL     0.1362
      2 C          -3.4346    8.6279   -0.7912 C.2       1 MOL     0.3092
      3 C          -3.3322   10.8166    0.0738 C.ar      1 MOL     0.1404
      4 C          -4.1586   11.5988   -0.7595 C.ar      1 MOL     0.0468
      5 C          -3.9318   12.9633   -0.9006 C.ar      1 MOL     0.0037
      6 C          -2.8811   13.5620   -0.2274 C.ar      1 MOL     0.0009
      7 C          -2.0736   12.7967    0.5991 C.ar      1 MOL     0.0131
      8 C          -2.2852   11.4205    0.7779 C.ar      1 MOL     0.0397
      9 C          -1.3416   10.7202    1.7329 C.2       1 MOL     0.0752
     10 O          -3.0474    8.8691   -1.9223 O.2       1 MOL    -0.2507
     11 O          -3.5962    9.4746    0.1962 O.3       1 MOL    -0.4254
     12 O          -1.3288    9.4564    1.7321 O.co2     1 MOL    -0.5445
     13 O          -0.5993   11.4691    2.4457 O.co2     1 MOL    -0.5445
     14 H          -3.7538    6.5042   -1.1108 H         1 MOL     0.0342
     15 H          -4.8981    7.2778    0.0500 H         1 MOL     0.0342
     16 H          -3.1997    6.9351    0.5534 H         1 MOL     0.0342
     17 H          -4.9739   11.1342   -1.2959 H         1 MOL     0.0654
     18 H          -4.5697   13.5554   -1.5409 H         1 MOL     0.0619
     19 H          -2.6954   14.6197   -0.3404 H         1 MOL     0.0618
     20 H          -1.2635   13.2776    1.1347 H         1 MOL     0.0625
@<TRIPOS>BOND
     1    1    2 1 
     2    1   14 1 
     3    1   15 1 
     4    1   16 1 
     5    2   10 2 
     6    2   11 1 
     7    3    4 ar
     8    3    8 ar
     9    3   11 1 
    10    4    5 ar
    11    4   17 1 
    12    5    6 ar
    13    5   18 1 
    14    6    7 ar
    15    6   19 1 
    16    7    8 ar
    17    7   20 1 
    18    8    9 1 
    19    9   12 ar
    20    9   13 ar
@<TRIPOS>SUBSTRUCTURE
1 MOL         1
@<TRIPOS>MOLECULE
query molecule
   20    20     1     0     0
SMALL
NO_CHARGE

@<TRIPOS>ATOM
      1 C          26.4450   17.9818   -6.5195 C.3       1 MOL     0.1362
      2 C          25.9100   17.6853   -5.1266 C.2       1 MOL     0.3092
      3 C          24.7396   18.9406   -3.5112 C.ar      1 MOL     0.1404
      4 C          25.1857   18.6001   -2.2221 C.ar      1 MOL     0.0468
      5 C          24.3489   18.7653   -1.1147 C.ar      1 MOL     0.0037
      6 C          23.0562   19.2645   -1.2827 C.ar      1 MOL     0.0009
      7 C          22.6074   19.5949   -2.5587 C.ar      1 MOL     0.0131
      8 C          23.4370   19.4434   -3.6871 C.ar      1 MOL     0.0397
      9 C          22.8585   19.8524   -5.0278 C.2       1 MOL     0.0752
     10 O          25.8264   16.5680   -4.6537 O.2       1 MOL    -0.2507
     11 O          25.5796   18.8107   -4.5851 O.3       1 MOL    -0.4254
     12 O          23.5020   19.5933   -6.0860 O.co2     1 MOL    -0.5445
     13 O          21.7244   20.4178   -4.9782 O.co2     1 MOL    -0.5445
     14 H          27.3348   17.3591   -6.7367 H         1 MOL     0.0342
     15 H          26.7171   19.0535   -6.5959 H         1 MOL     0.0342
     16 H          25.6557   17.7591   -7.2659 H         1 MOL     0.0342
     17 H          26.1811   18.2037   -2.0802 H         1 MOL     0.0654
     18 H          24.6948   18.4953   -0.1276 H         1 MOL     0.0619
     19 H          22.4046   19.3925   -0.4315 H         1 MOL     0.0618
     20 H          21.6070   19.9848   -2.6896 H         1 MOL     0.0625
@<TRIPOS>BOND
     1    1    2 1 
     2    1   14 1 
     3    1   15 1 
     4    1   16 1 
     5    2   10 2 
     6    2   11 1 
     7    3    4 ar
     8    3    8 ar
     9    3   11 1 
    10    4    5 ar
    11    4   17 1 
    12    5    6 ar
    13    5   18 1 
    14    6    7 ar
    15    6   19 1 
    16    7    8 ar
    17    7   20 1 
    18    8    9 1 
    19    9   12 ar
    20    9   13 ar
@<TRIPOS>SUBSTRUCTURE
1 MOL         1
@<TRIPOS>MOLECULE
query molecule
   20    20     1     0     0
SMALL
NO_CHARGE

@<TRIPOS>ATOM
      1 C          -4.2514   34.6564    3.5708 C.3       1 MOL     0.1362
      2 C          -4.8338   34.0497    2.3030 C.2       1 MOL     0.3092
      3 C          -6.5918   32.6156    1.6647 C.ar      1 MOL     0.1404
      4 C          -7.5517   33.1970    0.8137 C.ar      1 MOL     0.0468
      5 C          -8.2186   32.4406   -0.1459 C.ar      1 MOL     0.0037
      6 C          -7.9344   31.0818   -0.2563 C.ar      1 MOL     0.0009
      7 C          -7.0057   30.4875    0.5954 C.ar      1 MOL     0.0131
      8 C          -6.3116   31.2447    1.5586 C.ar      1 MOL     0.0397
      9 C          -5.2958   30.5031    2.4063 C.2       1 MOL     0.0752
     10 O          -4.3350   34.1536    1.1969 O.2       1 MOL    -0.2507
     11 O          -5.9527   33.4105    2.6007 O.3       1 MOL    -0.4254
     12 O          -4.5450   31.1775    3.1689 O.co2     1 MOL    -0.5445
     13 O          -5.2806   29.2390    2.2772 O.co2     1 MOL    -0.5445
     14 H          -3.3164   35.2058    3.3375 H         1 MOL     0.0342
     15 H          -4.0257   33.8566    4.3043 H         1 MOL     0.0342
     16 H          -4.9793   35.3621    4.0210 H         1 MOL     0.0342
     17 H          -7.7708   34.2530    0.9000 H         1 MOL     0.0654
     18 H          -8.9474   32.8997   -0.7929 H         1 MOL     0.0619
     19 H          -8.4431   30.4850   -0.9964 H         1 MOL     0.0618
     20 H          -6.8112   29.4269    0.5121 H         1 MOL     0.0625
@<TRIPOS>BOND
     1    1    2 1 
     2    1   14 1 
     3    1   15 1 
     4    1   16 1 
     5    2   10 2 
     6    2   11 1 
     7    3    4 ar
     8    3    8 ar
     9    3   11 1 
    10    4    5 ar
    11    4   17 1 
    12    5    6 ar
    13    5   18 1 
    14    6    7 ar
    15    6   19 1 
    16    7    8 ar
    17    7   20 1 
    18    8    9 1 
    19    9   12 ar
    20    9   13 ar
@<TRIPOS>SUBSTRUCTURE
1 MOL         1
@<TRIPOS>MOLECULE
query molecule
   20    20     1     0     0
SMALL
NO_CHARGE

@<TRIPOS>ATOM
      1 C          -3.6625   18.6864    9.8528 C.3       1 MOL     0.1362
      2 C          -4.1762   17.4038    9.1986 C.2       1 MOL     0.3092
      3 C          -4.2083   15.1021    9.7111 C.ar      1 MOL     0.1404
      4 C          -5.4382   14.7940   10.3402 C.ar      1 MOL     0.0468
      5 C          -6.0410   13.5494   10.1697 C.ar      1 MOL     0.0037
      6 C          -5.4261   12.5923    9.3641 C.ar      1 MOL     0.0009
      7 C          -4.2059   12.8831    8.7535 C.ar      1 MOL     0.0131
      8 C          -3.5650   14.1298    8.9345 C.ar      1 MOL     0.0397
      9 C          -2.2025   14.2904    8.2848 C.2       1 MOL     0.0752
     10 O          -4.9216   17.3710    8.2424 O.2       1 MOL    -0.2507
     11 O          -3.6947   16.3719    9.8769 O.3       1 MOL    -0.4254
     12 O          -1.4455   15.1999    8.7354 O.co2     1 MOL    -0.5445
     13 O          -1.9166   13.4702    7.3522 O.co2     1 MOL    -0.5445
     14 H          -4.1116   19.5715    9.3591 H         1 MOL     0.0342
     15 H          -2.5598   18.7386    9.7623 H         1 MOL     0.0342
     16 H          -3.9328   18.7009   10.9297 H         1 MOL     0.0342
     17 H          -5.9258   15.5372   10.9605 H         1 MOL     0.0654
     18 H          -6.9804   13.3265   10.6543 H         1 MOL     0.0619
     19 H          -5.8922   11.6290    9.2164 H         1 MOL     0.0618
     20 H          -3.7308   12.1270    8.1435 H         1 MOL     0.0625
@<TRIPOS>BOND
     1    1    2 1 
     2    1   14 1 
     3    1   15 1 
     4    1   16 1 
     5    2   10 2 
     6    2   11 1 
     7    3    4 ar
     8    3    8 ar
     9    3   11 1 
    10    4    5 ar
    11    4   17 1 
    12    5    6 ar
    13    5   18 1 
    14    6    7 ar
    15    6   19 1 
    16    7    8 ar
    17    7   20 1 
    18    8    9 1 
    19    9   12 ar
    20    9   13 ar
@<TRIPOS>SUBSTRUCTURE
1 MOL         1
@<TRIPOS>MOLECULE
query molecule
   20    20     1     0     0
SMALL
NO_CHARGE

@<TRIPOS>ATOM
      1 C           7.4608   33.8263   15.5901 C.3       1 MOL     0.1362
      2 C           7.0476   32.5100   14.9494 C.2       1 MOL     0.3092
      3 C           5.4037   30.9059   15.4096 C.ar      1 MOL     0.1404
      4 C           4.1823   31.1634   14.7517 C.ar      1 MOL     0.0468
      5 C           3.2946   30.1300   14.4726 C.ar      1 MOL     0.0037
      6 C           3.6170   28.8255   14.8395 C.ar      1 MOL     0.0009
      7 C           4.8394   28.5622   15.4576 C.ar      1 MOL     0.0131
      8 C           5.7635   29.5917   15.7430 C.ar      1 MOL     0.0397
      9 C           7.0831   29.2068   16.3888 C.2       1 MOL     0.0752
     10 O           7.4543   32.0898   13.8826 O.2       1 MOL    -0.2507
     11 O           6.1846   31.9762   15.7338 O.3       1 MOL    -0.4254
     12 O           7.4208   27.9739   16.3601 O.co2     1 MOL    -0.5445
     13 O           7.8070   30.1365   16.8682 O.co2     1 MOL    -0.5445
     14 H           8.1531   34.3740   14.9180 H         1 MOL     0.0342
     15 H           7.9629   33.6421   16.5599 H         1 MOL     0.0342
     16 H           6.5631   34.4571   15.7605 H         1 MOL     0.0342
     17 H           3.9310   32.1771   14.4725 H         1 MOL     0.0654
     18 H           2.3580   30.3417   13.9806 H         1 MOL     0.0619
     19 H           2.9200   28.0241   14.6444 H         1 MOL     0.0618
     20 H           5.0814   27.5422   15.7273 H         1 MOL     0.0625
@<TRIPOS>BOND
     1    1    2 1 
     2    1   14 1 
     3    1   15 1 
     4    1   16 1 
     5    2   10 2 
     6    2   11 1 
     7    3    4 ar
     8    3    8 ar
     9    3   11 1 
    10    4    5 ar
    11    4   17 1 
    12    5    6 ar
    13    5   18 1 
    14    6    7 ar
    15    6   19 1 
    16    7    8 ar
    17    7   20 1 
    18    8    9 1 
    19    9   12 ar
    20    9   13 ar
@<TRIPOS>SUBSTRUCTURE
1 MOL         1
@<TRIPOS>MOLECULE
query molecule
   20    20     1     0     0
SMALL
NO_CHARGE

@<TRIPOS>ATOM
      1 C          24.1412   17.5439  -15.1243 C.3       1 MOL     0.1362
      2 C          24.5404   18.3306  -13.8818 C.2       1 MOL     0.3092
      3 C          23.7332   18.7355  -11.7128 C.ar      1 MOL     0.1404
      4 C          24.5674   18.2368  -10.6947 C.ar      1 MOL     0.0468
      5 C          24.6949   18.9204   -9.4868 C.ar      1 MOL     0.0037
      6 C          23.9931   20.1083   -9.2855 C.ar      1 MOL     0.0009
      7 C          23.1407   20.5921  -10.2805 C.ar      1 MOL     0.0131
      8 C          22.9853   19.9050  -11.5012 C.ar      1 MOL     0.0397
      9 C          22.0059   20.4520  -12.5253 C.2       1 MOL     0.0752
     10 O          25.4955   19.0819  -13.8183 O.2       1 MOL    -0.2507
     11 O          23.6678   18.0554  -12.9151 O.3       1 MOL    -0.4254
     12 O          21.3300   21.4672  -12.1623 O.co2     1 MOL    -0.5445
     13 O          21.8777   19.8564  -13.6382 O.co2     1 MOL    -0.5445
     14 H          24.8995   17.6889  -15.9205 H         1 MOL     0.0342
     15 H          23.1553   17.8835  -15.5014 H         1 MOL     0.0342
     16 H          24.0778   16.4648  -14.8754 H         1 MOL     0.0342
     17 H          25.1191   17.3202  -10.8529 H         1 MOL     0.0654
     18 H          25.3408   18.5335   -8.7122 H         1 MOL     0.0619
     19 H          24.1093   20.6495   -8.3581 H         1 MOL     0.0618
     20 H          22.5920   21.5077  -10.1051 H         1 MOL     0.0625
@<TRIPOS>BOND
     1    1    2 1 
     2    1   14 1 
     3    1   15 1 
     4    1   16 1 
     5    2   10 2 
     6    2   11 1 
     7    3    4 ar
     8    3    8 ar
     9    3   11 1 
    10    4    5 ar
    11    4   17 1 
    12    5    6 ar
    13    5   18 1 
    14    6    7 ar
    15    6   19 1 
    16    7    8 ar
    17    7   20 1 
    18    8    9 1 
    19    9   12 ar
    20    9   13 ar
@<TRIPOS>SUBSTRUCTURE
1 MOL         1
@<TRIPOS>MOLECULE
query molecule
   20    20     1     0     0
SMALL
NO_CHARGE

@<TRIPOS>ATOM
      1 C          22.3612   35.7306    9.1468 C.3       1 MOL     0.1362
      2 C          21.3854   34.7100    8.5872 C.2       1 MOL     0.3092
      3 C          20.2026   34.2960    6.5962 C.ar      1 MOL     0.1404
      4 C          18.8470   34.6699    6.6593 C.ar      1 MOL     0.0468
      5 C          17.8869   33.9864    5.9191 C.ar      1 MOL     0.0037
      6 C          18.2687   32.9143    5.1135 C.ar      1 MOL     0.0009
      7 C          19.6108   32.5395    5.0457 C.ar      1 MOL     0.0131
      8 C          20.5988   33.2307    5.7776 C.ar      1 MOL     0.0397
      9 C          22.0390   32.7889    5.6312 C.2       1 MOL     0.0752
     10 O          20.9471   33.7632    9.2182 O.2       1 MOL    -0.2507
     11 O          21.1143   35.0265    7.3339 O.3       1 MOL    -0.4254
     12 O          22.9077   33.2819    6.4161 O.co2     1 MOL    -0.5445
     13 O          22.2725   31.9275    4.7239 O.co2     1 MOL    -0.5445
     14 H          22.5650   35.5142   10.2149 H         1 MOL     0.0342
     15 H          21.9224   36.7454    9.0617 H         1 MOL     0.0342
     16 H          23.3143   35.7018    8.5825 H         1 MOL     0.0342
     17 H          18.5571   35.5036    7.2854 H         1 MOL     0.0654
     18 H          16.8521   34.2862    5.9802 H         1 MOL     0.0619
     19 H          17.5211   32.3762    4.5515 H         1 MOL     0.0618
     20 H          19.8933   31.7005    4.4235 H         1 MOL     0.0625
@<TRIPOS>BOND
     1    1    2 1 
     2    1   14 1 
     3    1   15 1 
     4    1   16 1 
     5    2   10 2 
     6    2   11 1 
     7    3    4 ar
     8    3    8 ar
     9    3   11 1 
    10    4    5 ar
    11    4   17 1 
    12    5    6 ar
    13    5   18 1 
    14    6    7 ar
    15    6   19 1 
    16    7    8 ar
    17    7   20 1 
    18    8    9 1 
    19    9   12 ar
    20    9   13 ar
@<TRIPOS>SUBSTRUCTURE
1 MOL         1
@<TRIPOS>MOLECULE
query molecule
   20    20     1     0     0
SMALL
NO_CHARGE

@<TRIPOS>ATOM
      1 C           7.3203   11.6639  -15.9394 C.3       1 MOL     0.1362
      2 C           8.5975   12.4224  -15.6217 C.2       1 MOL     0.3092
      3 C          10.1300   13.6766  -16.8709 C.ar      1 MOL     0.1404
      4 C           9.8083   15.0482  -16.9441 C.ar      1 MOL     0.0468
      5 C          10.7945   16.0035  -17.1634 C.ar      1 MOL     0.0037
      6 C          12.1204   15.5993  -17.3082 C.ar      1 MOL     0.0009
      7 C          12.4513   14.2453  -17.1993 C.ar      1 MOL     0.0131
      8 C          11.4655   13.2617  -16.9527 C.ar      1 MOL     0.0397
      9 C          11.9243   11.8290  -16.7704 C.2       1 MOL     0.0752
     10 O           9.0188   12.6386  -14.5015 O.2       1 MOL    -0.2507
     11 O           9.0988   12.7898  -16.7477 O.3       1 MOL    -0.4254
     12 O          11.0420   10.9216  -16.7601 O.co2     1 MOL    -0.5445
     13 O          13.1780   11.6585  -16.6594 O.co2     1 MOL    -0.5445
     14 H           6.7975   11.3787  -15.0038 H         1 MOL     0.0342
     15 H           7.5480   10.7541  -16.5301 H         1 MOL     0.0342
     16 H           6.6501   12.3180  -16.5343 H         1 MOL     0.0342
     17 H           8.7786   15.3594  -16.8367 H         1 MOL     0.0654
     18 H          10.5302   17.0497  -17.2287 H         1 MOL     0.0619
     19 H          12.8856   16.3379  -17.4998 H         1 MOL     0.0618
     20 H          13.4910   13.9548  -17.2984 H         1 MOL     0.0625
@<TRIPOS>BOND
     1    1    2 1 
     2    1   14 1 
     3    1   15 1 
     4    1   16 1 
     5    2   10 2 
     6    2   11 1 
     7    3    4 ar
     8    3    8 ar
     9    3   11 1 
    10    4    5 ar
    11    4   17 1 
    12    5    6 ar
    13    5   18 1 
    14    6    7 ar
    15    6   19 1 
    16    7    8 ar
    17    7   20 1 
    18    8    9 1 
    19    9   12 ar
    20    9   13 ar
@<TRIPOS>SUBSTRUCTURE
1 MOL         1
@<TRIPOS>MOLECULE
query molecule
   20    20     1     0     0
SMALL
NO_CHARGE

@<TRIPOS>ATOM
      1 C          14.2050   28.9200   15.2456 C.3       1 MOL     0.1362
      2 C          13.5453   30.2307   15.6175 C.2       1 MOL     0.3092
      3 C          14.2991   32.4097   16.1174 C.ar      1 MOL     0.1404
      4 C          13.7676   32.9491   17.3054 C.ar      1 MOL     0.0468
      5 C          13.6324   34.3401   17.4634 C.ar      1 MOL     0.0037
      6 C          14.0292   35.1980   16.4347 C.ar      1 MOL     0.0009
      7 C          14.5309   34.6676   15.2525 C.ar      1 MOL     0.0131
      8 C          14.6630   33.2824   15.0766 C.ar      1 MOL     0.0397
      9 C          15.2141   32.8426   13.7425 C.2       1 MOL     0.0752
     10 O          12.3472   30.4248   15.5272 O.2       1 MOL    -0.2507
     11 O          14.4699   31.0576   15.9648 O.3       1 MOL    -0.4254
     12 O          15.6435   31.6585   13.6437 O.co2     1 MOL    -0.5445
     13 O          15.1824   33.7175   12.8229 O.co2     1 MOL    -0.5445
     14 H          13.4598   28.1480   14.9784 H         1 MOL     0.0342
     15 H          14.8280   28.5539   16.0842 H         1 MOL     0.0342
     16 H          14.8780   29.0692   14.3720 H         1 MOL     0.0342
     17 H          13.4458   32.3076   18.1135 H         1 MOL     0.0654
     18 H          13.2241   34.7559   18.3760 H         1 MOL     0.0619
     19 H          13.9519   36.2689   16.5552 H         1 MOL     0.0618
     20 H          14.8453   35.3325   14.4597 H         1 MOL     0.0625
@<TRIPOS>BOND
     1    1    2 1 
     2    1   14 1 
     3    1   15 1 
     4    1   16 1 
     5    2   10 2 
     6    2   11 1 
     7    3    4 ar
     8    3    8 ar
     9    3   11 1 
    10    4    5 ar
    11    4   17 1 
    12    5    6 ar
    13    5   18 1 
    14    6    7 ar
    15    6   19 1 
    16    7    8 ar
    17    7   20 1 
    18    8    9 1 
    19    9   12 ar
    20    9   13 ar
@<TRIPOS>SUBSTRUCTURE
1 MOL         1
