@<TRIPOS>MOLECULE
query molecule
   20    20     1     0     0
SMALL
NO_CHARGE

@<TRIPOS>ATOM
      1 C           6.5701   13.7423   15.3160 C.3       1 MOL     0.1362
      2 C           6.1465   15.1533   15.1300 C.2       1 MOL     0.3092
      3 C           6.0777   17.4325   15.9918 C.ar      1 MOL     0.1404
      4 C           4.8972   18.1422   15.9295 C.ar      1 MOL     0.0468
      5 C           4.8406   19.5139   15.7817 C.ar      1 MOL     0.0037
      6 C           6.0239   20.2062   15.6929 C.ar      1 MOL     0.0009
      7 C           7.2321   19.5463   15.7490 C.ar      1 MOL     0.0131
      8 C           7.2490   18.1588   15.8994 C.ar      1 MOL     0.0397
      9 C           8.5483   17.4998   15.9542 C.2       1 MOL     0.0752
     10 O           5.7227   15.5979   14.0203 O.2       1 MOL    -0.2507
     11 O           6.1805   16.0755   16.1376 O.3       1 MOL    -0.4254
     12 O           9.4215   17.7169   15.0757 O.co2     1 MOL    -0.5445
     13 O           8.8687   16.6129   16.9683 O.co2     1 MOL    -0.5445
     14 H           6.4553   13.2117   14.3939 H         1 MOL     0.0342
     15 H           5.9633   13.2844   16.0688 H         1 MOL     0.0342
     16 H           7.5956   13.7152   15.6191 H         1 MOL     0.0342
     17 H           4.0094   17.6209   15.9971 H         1 MOL     0.0654
     18 H           3.9337   20.0058   15.7400 H         1 MOL     0.0619
     19 H           6.0083   21.2322   15.5823 H         1 MOL     0.0618
     20 H           8.1173   20.0732   15.6817 H         1 MOL     0.0625
@<TRIPOS>BOND
     1    1    2 1 
     2    1   14 1 
     3    1   15 1 
     4    1   16 1 
     5    2   10 2 
     6    2   11 1 
     7    3    4 ar
     8    3    8 ar
     9    3   11 1 
    10    4    5 ar
    11    4   17 1 
    12    5    6 ar
    13    5   18 1 
    14    6    7 ar
    15    6   19 1 
    16    7    8 ar
    17    7   20 1 
    18    8    9 1 
    19    9   12 ar
    20    9   13 ar
@<TRIPOS>SUBSTRUCTURE
1 MOL         1
@<TRIPOS>MOLECULE
query molecule
   20    20     1     0     0
SMALL
NO_CHARGE

@<TRIPOS>ATOM
      1 C           3.0049    8.0847   10.1050 C.3       1 MOL     0.1362
      2 C           3.9732    7.4929   11.0626 C.2       1 MOL     0.3092
      3 C           4.3816    9.3700   12.5632 C.ar      1 MOL     0.1404
      4 C           3.3586   10.2502   12.8455 C.ar      1 MOL     0.0468
      5 C           3.5596   11.5892   13.1167 C.ar      1 MOL     0.0037
      6 C           4.8475   12.0672   13.1049 C.ar      1 MOL     0.0009
      7 C           5.9069   11.2309   12.8283 C.ar      1 MOL     0.0131
      8 C           5.6641    9.8831   12.5594 C.ar      1 MOL     0.0397
      9 C           6.8129    9.0327   12.2717 C.2       1 MOL     0.0752
     10 O           4.6307    6.4393   10.8048 O.2       1 MOL    -0.2507
     11 O           4.2286    8.0378   12.2893 O.3       1 MOL    -0.4254
     12 O           6.8417    7.8341   12.6511 O.co2     1 MOL    -0.5445
     13 O           7.9110    9.5093   11.5757 O.co2     1 MOL    -0.5445
     14 H           2.9734    7.4889    9.2167 H         1 MOL     0.0342
     15 H           3.3119    9.0790    9.8566 H         1 MOL     0.0342
     16 H           2.0334    8.1123   10.5519 H         1 MOL     0.0342
     17 H           2.3920    9.8895   12.8548 H         1 MOL     0.0654
     18 H           2.7637   12.2136   13.3237 H         1 MOL     0.0619
     19 H           5.0240   13.0642   13.3048 H         1 MOL     0.0618
     20 H           6.8720   11.5973   12.8214 H         1 MOL     0.0625
@<TRIPOS>BOND
     1    1    2 1 
     2    1   14 1 
     3    1   15 1 
     4    1   16 1 
     5    2   10 2 
     6    2   11 1 
     7    3    4 ar
     8    3    8 ar
     9    3   11 1 
    10    4    5 ar
    11    4   17 1 
    12    5    6 ar
    13    5   18 1 
    14    6    7 ar
    15    6   19 1 
    16    7    8 ar
    17    7   20 1 
    18    8    9 1 
    19    9   12 ar
    20    9   13 ar
@<TRIPOS>SUBSTRUCTURE
1 MOL         1
@<TRIPOS>MOLECULE
query molecule
   20    20     1     0     0
SMALL
NO_CHARGE

@<TRIPOS>ATOM
      1 C           2.3727   35.4616   -2.7318 C.3       1 MOL     0.1362
      2 C           3.0323   34.1562   -2.9882 C.2       1 MOL     0.3092
      3 C           4.9451   34.8335   -4.3391 C.ar      1 MOL     0.1404
      4 C           5.3803   36.1267   -4.1418 C.ar      1 MOL     0.0468
      5 C           5.9961   36.8806   -5.1212 C.ar      1 MOL     0.0037
      6 C           6.1847   36.3097   -6.3565 C.ar      1 MOL     0.0009
      7 C           5.7684   35.0205   -6.6079 C.ar      1 MOL     0.0131
      8 C           5.1500   34.2897   -5.5923 C.ar      1 MOL     0.0397
      9 C           4.7248   32.9295   -5.9000 C.2       1 MOL     0.0752
     10 O           2.4322   33.0482   -2.8435 O.2       1 MOL    -0.2507
     11 O           4.3313   34.0510   -3.3988 O.3       1 MOL    -0.4254
     12 O           5.0629   32.3738   -6.9762 O.co2     1 MOL    -0.5445
     13 O           3.9352   32.2018   -5.0255 O.co2     1 MOL    -0.5445
     14 H           1.3619   35.2950   -2.4227 H         1 MOL     0.0342
     15 H           2.3798   36.0464   -3.6277 H         1 MOL     0.0342
     16 H           2.9011   35.9827   -1.9614 H         1 MOL     0.0342
     17 H           5.2387   36.5538   -3.2133 H         1 MOL     0.0654
     18 H           6.3071   37.8464   -4.9300 H         1 MOL     0.0619
     19 H           6.6428   36.8524   -7.1053 H         1 MOL     0.0618
     20 H           5.9136   34.5982   -7.5386 H         1 MOL     0.0625
@<TRIPOS>BOND
     1    1    2 1 
     2    1   14 1 
     3    1   15 1 
     4    1   16 1 
     5    2   10 2 
     6    2   11 1 
     7    3    4 ar
     8    3    8 ar
     9    3   11 1 
    10    4    5 ar
    11    4   17 1 
    12    5    6 ar
    13    5   18 1 
    14    6    7 ar
    15    6   19 1 
    16    7    8 ar
    17    7   20 1 
    18    8    9 1 
    19    9   12 ar
    20    9   13 ar
@<TRIPOS>SUBSTRUCTURE
1 MOL         1
@<TRIPOS>MOLECULE
query molecule
   20    20     1     0     0
SMALL
NO_CHARGE

@<TRIPOS>ATOM
      1 C          23.4354    7.8768  -14.4420 C.3       1 MOL     0.1362
      2 C          24.6445    8.4368  -15.0972 C.2       1 MOL     0.3092
      3 C          25.1511   10.0665  -13.3565 C.ar      1 MOL     0.1404
      4 C          25.7430    9.6503  -12.1829 C.ar      1 MOL     0.0468
      5 C          25.5228   10.2572  -10.9623 C.ar      1 MOL     0.0037
      6 C          24.6691   11.3326  -10.9172 C.ar      1 MOL     0.0009
      7 C          24.0505   11.7895  -12.0605 C.ar      1 MOL     0.0131
      8 C          24.2984   11.1503  -13.2761 C.ar      1 MOL     0.0397
      9 C          23.6238   11.6653  -14.4615 C.2       1 MOL     0.0752
     10 O          25.1133    7.9687  -16.1788 O.2       1 MOL    -0.2507
     11 O          25.3403    9.4959  -14.5860 O.3       1 MOL    -0.4254
     12 O          23.6908   12.8836  -14.7661 O.co2     1 MOL    -0.5445
     13 O          22.8858   10.8386  -15.2919 O.co2     1 MOL    -0.5445
     14 H          23.0634    7.0579  -15.0216 H         1 MOL     0.0342
     15 H          22.6839    8.6352  -14.3731 H         1 MOL     0.0342
     16 H          23.6881    7.5347  -13.4605 H         1 MOL     0.0342
     17 H          26.3844    8.8429  -12.2185 H         1 MOL     0.0654
     18 H          25.9877    9.9126  -10.1072 H         1 MOL     0.0619
     19 H          24.4882   11.8037  -10.0169 H         1 MOL     0.0618
     20 H          23.4104   12.5984  -12.0188 H         1 MOL     0.0625
@<TRIPOS>BOND
     1    1    2 1 
     2    1   14 1 
     3    1   15 1 
     4    1   16 1 
     5    2   10 2 
     6    2   11 1 
     7    3    4 ar
     8    3    8 ar
     9    3   11 1 
    10    4    5 ar
    11    4   17 1 
    12    5    6 ar
    13    5   18 1 
    14    6    7 ar
    15    6   19 1 
    16    7    8 ar
    17    7   20 1 
    18    8    9 1 
    19    9   12 ar
    20    9   13 ar
@<TRIPOS>SUBSTRUCTURE
1 MOL         1
@<TRIPOS>MOLECULE
query molecule
   20    20     1     0     0
SMALL
NO_CHARGE

@<TRIPOS>ATOM
      1 C          20.6057   32.8965   -3.7110 C.3       1 MOL     0.1362
      2 C          21.2853   34.1391   -4.1569 C.2       1 MOL     0.3092
      3 C          23.1593   35.6881   -3.9810 C.ar      1 MOL     0.1404
      4 C          22.9489   37.0044   -3.6287 C.ar      1 MOL     0.0468
      5 C          23.7296   38.0485   -4.0837 C.ar      1 MOL     0.0037
      6 C          24.7709   37.7581   -4.9316 C.ar      1 MOL     0.0009
      7 C          25.0253   36.4597   -5.3161 C.ar      1 MOL     0.0131
      8 C          24.2142   35.4309   -4.8348 C.ar      1 MOL     0.0397
      9 C          24.5178   34.0717   -5.2662 C.2       1 MOL     0.0752
     10 O          20.8637   34.8364   -5.1289 O.2       1 MOL    -0.2507
     11 O          22.4120   34.6238   -3.5547 O.3       1 MOL    -0.4254
     12 O          23.8721   33.0908   -4.8164 O.co2     1 MOL    -0.5445
     13 O          25.5239   33.8094   -6.1808 O.co2     1 MOL    -0.5445
     14 H          19.7500   32.7177   -4.3280 H         1 MOL     0.0342
     15 H          20.2947   33.0060   -2.6932 H         1 MOL     0.0342
     16 H          21.2826   32.0720   -3.7904 H         1 MOL     0.0342
     17 H          22.1670   37.2207   -2.9912 H         1 MOL     0.0654
     18 H          23.5367   39.0205   -3.7939 H         1 MOL     0.0619
     19 H          25.3693   38.5209   -5.2854 H         1 MOL     0.0618
     20 H          25.8097   36.2492   -5.9535 H         1 MOL     0.0625
@<TRIPOS>BOND
     1    1    2 1 
     2    1   14 1 
     3    1   15 1 
     4    1   16 1 
     5    2   10 2 
     6    2   11 1 
     7    3    4 ar
     8    3    8 ar
     9    3   11 1 
    10    4    5 ar
    11    4   17 1 
    12    5    6 ar
    13    5   18 1 
    14    6    7 ar
    15    6   19 1 
    16    7    8 ar
    17    7   20 1 
    18    8    9 1 
    19    9   12 ar
    20    9   13 ar
@<TRIPOS>SUBSTRUCTURE
1 MOL         1
@<TRIPOS>MOLECULE
query molecule
   20    20     1     0     0
SMALL
NO_CHARGE

@<TRIPOS>ATOM
      1 C          19.0440   26.4238  -14.3204 C.3       1 MOL     0.1362
      2 C          17.8322   25.6297  -14.6456 C.2       1 MOL     0.3092
      3 C          16.2298   27.2919  -13.8633 C.ar      1 MOL     0.1404
      4 C          16.1754   27.5655  -12.5130 C.ar      1 MOL     0.0468
      5 C          15.8320   28.8005  -11.9998 C.ar      1 MOL     0.0037
      6 C          15.5296   29.8086  -12.8827 C.ar      1 MOL     0.0009
      7 C          15.5679   29.5893  -14.2425 C.ar      1 MOL     0.0131
      8 C          15.9200   28.3273  -14.7235 C.ar      1 MOL     0.0397
      9 C          15.9483   28.1377  -16.1688 C.2       1 MOL     0.0752
     10 O          17.8927   24.4719  -15.1598 O.2       1 MOL    -0.2507
     11 O          16.5647   26.0851  -14.4151 O.3       1 MOL    -0.4254
     12 O          15.3321   27.1833  -16.7083 O.co2     1 MOL    -0.5445
     13 O          16.6521   28.9944  -16.9984 O.co2     1 MOL    -0.5445
     14 H          19.9173   25.8658  -14.5866 H         1 MOL     0.0342
     15 H          19.0613   26.6341  -13.2715 H         1 MOL     0.0342
     16 H          19.0257   27.3424  -14.8681 H         1 MOL     0.0342
     17 H          16.4035   26.8076  -11.8512 H         1 MOL     0.0654
     18 H          15.8041   28.9621  -10.9803 H         1 MOL     0.0619
     19 H          15.2702   30.7409  -12.5241 H         1 MOL     0.0618
     20 H          15.3396   30.3518  -14.8999 H         1 MOL     0.0625
@<TRIPOS>BOND
     1    1    2 1 
     2    1   14 1 
     3    1   15 1 
     4    1   16 1 
     5    2   10 2 
     6    2   11 1 
     7    3    4 ar
     8    3    8 ar
     9    3   11 1 
    10    4    5 ar
    11    4   17 1 
    12    5    6 ar
    13    5   18 1 
    14    6    7 ar
    15    6   19 1 
    16    7    8 ar
    17    7   20 1 
    18    8    9 1 
    19    9   12 ar
    20    9   13 ar
@<TRIPOS>SUBSTRUCTURE
1 MOL         1
@<TRIPOS>MOLECULE
query molecule
   20    20     1     0     0
SMALL
NO_CHARGE

@<TRIPOS>ATOM
      1 C          -1.1187   31.2495   -4.1220 C.3       1 MOL     0.1362
      2 C          -0.6498   29.8591   -3.8946 C.2       1 MOL     0.3092
      3 C          -0.5164   28.8811   -6.1235 C.ar      1 MOL     0.1404
      4 C          -1.6789   28.2022   -6.4213 C.ar      1 MOL     0.0468
      5 C          -2.1263   27.9873   -7.7098 C.ar      1 MOL     0.0037
      6 C          -1.3722   28.4772   -8.7484 C.ar      1 MOL     0.0009
      7 C          -0.2016   29.1626   -8.5071 C.ar      1 MOL     0.0131
      8 C           0.2179   29.3604   -7.1908 C.ar      1 MOL     0.0397
      9 C           1.4620   30.0906   -6.9795 C.2       1 MOL     0.0752
     10 O          -0.7889   29.2652   -2.7825 O.2       1 MOL    -0.2507
     11 O          -0.0361   29.1169   -4.8638 O.3       1 MOL    -0.4254
     12 O           2.4462   29.9274   -7.7452 O.co2     1 MOL    -0.5445
     13 O           1.6083   30.9853   -5.9327 O.co2     1 MOL    -0.5445
     14 H          -1.5658   31.6255   -3.2255 H         1 MOL     0.0342
     15 H          -1.8411   31.2574   -4.9110 H         1 MOL     0.0342
     16 H          -0.2876   31.8660   -4.3930 H         1 MOL     0.0342
     17 H          -2.2445   27.8355   -5.6401 H         1 MOL     0.0654
     18 H          -3.0040   27.4733   -7.8877 H         1 MOL     0.0619
     19 H          -1.6854   28.3299   -9.7207 H         1 MOL     0.0618
     20 H           0.3597   29.5280   -9.2927 H         1 MOL     0.0625
@<TRIPOS>BOND
     1    1    2 1 
     2    1   14 1 
     3    1   15 1 
     4    1   16 1 
     5    2   10 2 
     6    2   11 1 
     7    3    4 ar
     8    3    8 ar
     9    3   11 1 
    10    4    5 ar
    11    4   17 1 
    12    5    6 ar
    13    5   18 1 
    14    6    7 ar
    15    6   19 1 
    16    7    8 ar
    17    7   20 1 
    18    8    9 1 
    19    9   12 ar
    20    9   13 ar
@<TRIPOS>SUBSTRUCTURE
1 MOL         1
@<TRIPOS>MOLECULE
query molecule
   20    20     1     0     0
SMALL
NO_CHARGE

@<TRIPOS>ATOM
      1 C          27.2175   20.1218    4.4927 C.3       1 MOL     0.1362
      2 C          26.6638   21.0091    3.4387 C.2       1 MOL     0.3092
      3 C          26.7956   21.5868    1.0742 C.ar      1 MOL     0.1404
      4 C          25.7664   22.3787    0.6109 C.ar      1 MOL     0.0468
      5 C          25.9015   23.2655   -0.4388 C.ar      1 MOL     0.0037
      6 C          27.1269   23.3629   -1.0521 C.ar      1 MOL     0.0009
      7 C          28.1895   22.5943   -0.6294 C.ar      1 MOL     0.0131
      8 C          28.0143   21.7092    0.4355 C.ar      1 MOL     0.0397
      9 C          29.1639   20.9147    0.8512 C.2       1 MOL     0.0752
     10 O          26.1130   22.1208    3.7025 O.2       1 MOL    -0.2507
     11 O          26.7067   20.6960    2.1094 O.3       1 MOL    -0.4254
     12 O          29.2501   20.4651    2.0225 O.co2     1 MOL    -0.5445
     13 O          30.2002   20.6278   -0.0214 O.co2     1 MOL    -0.5445
     14 H          27.0707   20.5734    5.4515 H         1 MOL     0.0342
     15 H          28.2639   19.9772    4.3232 H         1 MOL     0.0342
     16 H          26.7172   19.1768    4.4620 H         1 MOL     0.0342
     17 H          24.8469   22.3049    1.0730 H         1 MOL     0.0654
     18 H          25.1035   23.8403   -0.7535 H         1 MOL     0.0619
     19 H          27.2536   24.0187   -1.8389 H         1 MOL     0.0618
     20 H          29.1074   22.6730   -1.0951 H         1 MOL     0.0625
@<TRIPOS>BOND
     1    1    2 1 
     2    1   14 1 
     3    1   15 1 
     4    1   16 1 
     5    2   10 2 
     6    2   11 1 
     7    3    4 ar
     8    3    8 ar
     9    3   11 1 
    10    4    5 ar
    11    4   17 1 
    12    5    6 ar
    13    5   18 1 
    14    6    7 ar
    15    6   19 1 
    16    7    8 ar
    17    7   20 1 
    18    8    9 1 
    19    9   12 ar
    20    9   13 ar
@<TRIPOS>SUBSTRUCTURE
1 MOL         1
@<TRIPOS>MOLECULE
query molecule
   20    20     1     0     0
SMALL
NO_CHARGE

@<TRIPOS>ATOM
      1 C          11.3516    0.4216  -12.9212 C.3       1 MOL     0.1362
      2 C          12.7839    0.6068  -12.5764 C.2       1 MOL     0.3092
      3 C          14.2094    2.2298  -13.7060 C.ar      1 MOL     0.1404
      4 C          13.4410    3.3671  -13.8364 C.ar      1 MOL     0.0468
      5 C          13.9716    4.6245  -14.0460 C.ar      1 MOL     0.0037
      6 C          15.3376    4.7467  -14.1279 C.ar      1 MOL     0.0009
      7 C          16.1524    3.6424  -14.0051 C.ar      1 MOL     0.0131
      8 C          15.5789    2.3877  -13.7934 C.ar      1 MOL     0.0397
      9 C          16.4766    1.2457  -13.6689 C.2       1 MOL     0.0752
     10 O          13.2295    0.4425  -11.4003 O.2       1 MOL    -0.2507
     11 O          13.7269    0.9661  -13.4976 O.3       1 MOL    -0.4254
     12 O          16.4484    0.5085  -12.6504 O.co2     1 MOL    -0.5445
     13 O          17.3910    0.9314  -14.6602 O.co2     1 MOL    -0.5445
     14 H          10.8075    0.1417  -12.0434 H         1 MOL     0.0342
     15 H          11.2593   -0.3481  -13.6585 H         1 MOL     0.0342
     16 H          10.9574    1.3369  -13.3098 H         1 MOL     0.0342
     17 H          12.4154    3.2738  -13.7739 H         1 MOL     0.0654
     18 H          13.3586    5.4503  -14.1377 H         1 MOL     0.0619
     19 H          15.7587    5.6759  -14.2839 H         1 MOL     0.0618
     20 H          17.1780    3.7421  -14.0676 H         1 MOL     0.0625
@<TRIPOS>BOND
     1    1    2 1 
     2    1   14 1 
     3    1   15 1 
     4    1   16 1 
     5    2   10 2 
     6    2   11 1 
     7    3    4 ar
     8    3    8 ar
     9    3   11 1 
    10    4    5 ar
    11    4   17 1 
    12    5    6 ar
    13    5   18 1 
    14    6    7 ar
    15    6   19 1 
    16    7    8 ar
    17    7   20 1 
    18    8    9 1 
    19    9   12 ar
    20    9   13 ar
@<TRIPOS>SUBSTRUCTURE
1 MOL         1
@<TRIPOS>MOLECULE
query molecule
   20    20     1     0     0
SMALL
NO_CHARGE

@<TRIPOS>ATOM
      1 C           7.0741   27.0313   -7.0215 C.3       1 MOL     0.1362
      2 C           7.7518   28.2389   -7.5574 C.2       1 MOL     0.3092
      3 C           8.0973   29.8292   -9.3723 C.ar      1 MOL     0.1404
      4 C           7.6982   31.1221   -9.1078 C.ar      1 MOL     0.0468
      5 C           8.2842   32.2324   -9.6825 C.ar      1 MOL     0.0037
      6 C           9.3199   32.0364  -10.5636 C.ar      1 MOL     0.0009
      7 C           9.7583   30.7652  -10.8640 C.ar      1 MOL     0.0131
      8 C           9.1411   29.6673  -10.2625 C.ar      1 MOL     0.0397
      9 C           9.6354   28.3399  -10.6078 C.2       1 MOL     0.0752
     10 O           8.5700   28.9234   -6.8712 O.2       1 MOL    -0.2507
     11 O           7.5462   28.7016   -8.8265 O.3       1 MOL    -0.4254
     12 O           9.7366   27.4400   -9.7352 O.co2     1 MOL    -0.5445
     13 O          10.0124   28.0209  -11.9015 O.co2     1 MOL    -0.5445
     14 H           7.3899   26.8639   -6.0129 H         1 MOL     0.0342
     15 H           7.3308   26.1832   -7.6209 H         1 MOL     0.0342
     16 H           6.0146   27.1773   -7.0450 H         1 MOL     0.0342
     17 H           6.9207   31.2677   -8.4453 H         1 MOL     0.0654
     18 H           7.9537   33.1839   -9.4555 H         1 MOL     0.0619
     19 H           9.7748   32.8502  -11.0063 H         1 MOL     0.0618
     20 H          10.5373   30.6257  -11.5269 H         1 MOL     0.0625
@<TRIPOS>BOND
     1    1    2 1 
     2    1   14 1 
     3    1   15 1 
     4    1   16 1 
     5    2   10 2 
     6    2   11 1 
     7    3    4 ar
     8    3    8 ar
     9    3   11 1 
    10    4    5 ar
    11    4   17 1 
    12    5    6 ar
    13    5   18 1 
    14    6    7 ar
    15    6   19 1 
    16    7    8 ar
    17    7   20 1 
    18    8    9 1 
    19    9   12 ar
    20    9   13 ar
@<TRIPOS>SUBSTRUCTURE
1 MOL         1
@<TRIPOS>MOLECULE
query molecule
   20    20     1     0     0
SMALL
NO_CHARGE

@<TRIPOS>ATOM
      1 C          25.7701   18.8538  -11.4684 C.3       1 MOL     0.1362
      2 C          25.3685   18.2649  -10.1658 C.2       1 MOL     0.3092
      3 C          26.2547   17.9263   -7.9203 C.ar      1 MOL     0.1404
      4 C          27.2649   16.9888   -7.9604 C.ar      1 MOL     0.0468
      5 C          27.6328   16.2192   -6.8746 C.ar      1 MOL     0.0037
      6 C          26.9558   16.3992   -5.6928 C.ar      1 MOL     0.0009
      7 C          25.9374   17.3224   -5.5977 C.ar      1 MOL     0.0131
      8 C          25.5944   18.0821   -6.7171 C.ar      1 MOL     0.0397
      9 C          24.5113   19.0476   -6.5737 C.2       1 MOL     0.0752
     10 O          24.5429   17.3063  -10.0758 O.2       1 MOL    -0.2507
     11 O          25.8575   18.7096   -8.9700 O.3       1 MOL    -0.4254
     12 O          23.9537   19.5490   -7.5832 O.co2     1 MOL    -0.5445
     13 O          24.0586   19.4490   -5.3281 O.co2     1 MOL    -0.5445
     14 H          25.2614   18.3455  -12.2608 H         1 MOL     0.0342
     15 H          26.8268   18.7471  -11.5970 H         1 MOL     0.0342
     16 H          25.5116   19.8916  -11.4851 H         1 MOL     0.0342
     17 H          27.7728   16.8554   -8.8485 H         1 MOL     0.0654
     18 H          28.3963   15.5282   -6.9487 H         1 MOL     0.0619
     19 H          27.2121   15.8363   -4.8666 H         1 MOL     0.0618
     20 H          25.4333   17.4522   -4.7062 H         1 MOL     0.0625
@<TRIPOS>BOND
     1    1    2 1 
     2    1   14 1 
     3    1   15 1 
     4    1   16 1 
     5    2   10 2 
     6    2   11 1 
     7    3    4 ar
     8    3    8 ar
     9    3   11 1 
    10    4    5 ar
    11    4   17 1 
    12    5    6 ar
    13    5   18 1 
    14    6    7 ar
    15    6   19 1 
    16    7    8 ar
    17    7   20 1 
    18    8    9 1 
    19    9   12 ar
    20    9   13 ar
@<TRIPOS>SUBSTRUCTURE
1 MOL         1
@<TRIPOS>MOLECULE
query molecule
   20    20     1     0     0
SMALL
NO_CHARGE

@<TRIPOS>ATOM
      1 C          29.3562    6.4035   -2.7113 C.3       1 MOL     0.1362
      2 C          28.8624    6.0196   -1.3646 C.2       1 MOL     0.3092
      3 C          28.0699    8.2358   -0.7299 C.ar      1 MOL     0.1404
      4 C          27.0741    8.8597   -1.4511 C.ar      1 MOL     0.0468
      5 C          26.9919   10.2290   -1.6084 C.ar      1 MOL     0.0037
      6 C          27.9536   11.0092   -1.0136 C.ar      1 MOL     0.0009
      7 C          28.9714   10.4372   -0.2819 C.ar      1 MOL     0.0131
      8 C          29.0208    9.0492   -0.1449 C.ar      1 MOL     0.0397
      9 C          30.1140    8.4847    0.6373 C.2       1 MOL     0.0752
     10 O          29.0332    4.8600   -0.8800 O.2       1 MOL    -0.2507
     11 O          28.1898    6.8846   -0.5482 O.3       1 MOL    -0.4254
     12 O          31.0407    7.8402    0.0830 O.co2     1 MOL    -0.5445
     13 O          30.1731    8.6337    2.0128 O.co2     1 MOL    -0.5445
     14 H          29.8501    5.5675   -3.1610 H         1 MOL     0.0342
     15 H          30.0447    7.2173   -2.6197 H         1 MOL     0.0342
     16 H          28.5303    6.7020   -3.3219 H         1 MOL     0.0342
     17 H          26.3521    8.2725   -1.8966 H         1 MOL     0.0654
     18 H          26.2280   10.6549   -2.1573 H         1 MOL     0.0619
     19 H          27.9142   12.0354   -1.1161 H         1 MOL     0.0618
     20 H          29.6905   11.0299    0.1624 H         1 MOL     0.0625
@<TRIPOS>BOND
     1    1    2 1 
     2    1   14 1 
     3    1   15 1 
     4    1   16 1 
     5    2   10 2 
     6    2   11 1 
     7    3    4 ar
     8    3    8 ar
     9    3   11 1 
    10    4    5 ar
    11    4   17 1 
    12    5    6 ar
    13    5   18 1 
    14    6    7 ar
    15    6   19 1 
    16    7    8 ar
    17    7   20 1 
    18    8    9 1 
    19    9   12 ar
    20    9   13 ar
@<TRIPOS>SUBSTRUCTURE
1 MOL         1
@<TRIPOS>MOLECULE
query molecule
   20    20     1     0     0
SMALL
NO_CHARGE

@<TRIPOS>ATOM
      1 C          -8.5796   20.6406   -4.0330 C.3       1 MOL     0.1362
      2 C          -8.1933   21.9378   -4.6436 C.2       1 MOL     0.3092
      3 C          -9.2881   22.7791   -6.6525 C.ar      1 MOL     0.1404
      4 C         -10.6286   22.5907   -6.3907 C.ar      1 MOL     0.0468
      5 C         -11.6371   23.2263   -7.0876 C.ar      1 MOL     0.0037
      6 C         -11.2840   24.0921   -8.0941 C.ar      1 MOL     0.0009
      7 C          -9.9589   24.3167   -8.3977 C.ar      1 MOL     0.0131
      8 C          -8.9677   23.6559   -7.6706 C.ar      1 MOL     0.0397
      9 C          -7.5784   23.9218   -8.0240 C.2       1 MOL     0.0752
     10 O          -7.7759   22.9185   -3.9559 O.2       1 MOL    -0.2507
     11 O          -8.2573   22.1714   -5.9883 O.3       1 MOL    -0.4254
     12 O          -6.6616   23.8141   -7.1700 O.co2     1 MOL    -0.5445
     13 O          -7.2168   24.3029   -9.3052 O.co2     1 MOL    -0.5445
     14 H          -8.4459   20.6925   -2.9726 H         1 MOL     0.0342
     15 H          -7.9645   19.8616   -4.4322 H         1 MOL     0.0342
     16 H          -9.6055   20.4340   -4.2544 H         1 MOL     0.0342
     17 H         -10.8922   21.9407   -5.6340 H         1 MOL     0.0654
     18 H         -12.6292   23.0561   -6.8579 H         1 MOL     0.0619
     19 H         -12.0192   24.5798   -8.6296 H         1 MOL     0.0618
     20 H          -9.7012   24.9689   -9.1553 H         1 MOL     0.0625
@<TRIPOS>BOND
     1    1    2 1 
     2    1   14 1 
     3    1   15 1 
     4    1   16 1 
     5    2   10 2 
     6    2   11 1 
     7    3    4 ar
     8    3    8 ar
     9    3   11 1 
    10    4    5 ar
    11    4   17 1 
    12    5    6 ar
    13    5   18 1 
    14    6    7 ar
    15    6   19 1 
    16    7    8 ar
    17    7   20 1 
    18    8    9 1 
    19    9   12 ar
    20    9   13 ar
@<TRIPOS>SUBSTRUCTURE
1 MOL         1
@<TRIPOS>MOLECULE
query molecule
   20    20     1     0     0
SMALL
NO_CHARGE

@<TRIPOS>ATOM
      1 C          25.3996   26.7311   14.4367 C.3       1 MOL     0.1362
      2 C          25.5762   26.7516   15.9109 C.2       1 MOL     0.3092
      3 C          24.7793   24.4983   16.3907 C.ar      1 MOL     0.1404
      4 C          25.7195   23.5045   16.2198 C.ar      1 MOL     0.0468
      5 C          25.4007   22.2063   15.8735 C.ar      1 MOL     0.0037
      6 C          24.0763   21.8904   15.6909 C.ar      1 MOL     0.0009
      7 C          23.0958   22.8455   15.8485 C.ar      1 MOL     0.0131
      8 C          23.4571   24.1471   16.1995 C.ar      1 MOL     0.0397
      9 C          22.3890   25.1270   16.3563 C.2       1 MOL     0.0752
     10 O          26.2286   27.6610   16.5075 O.2       1 MOL    -0.2507
     11 O          25.0498   25.7956   16.7330 O.3       1 MOL    -0.4254
     12 O          21.2125   24.8646   15.9978 O.co2     1 MOL    -0.5445
     13 O          22.6273   26.3778   16.9007 O.co2     1 MOL    -0.5445
     14 H          25.8965   27.5757   14.0069 H         1 MOL     0.0342
     15 H          24.3567   26.7736   14.2021 H         1 MOL     0.0342
     16 H          25.8181   25.8300   14.0402 H         1 MOL     0.0342
     17 H          26.7137   23.7432   16.3580 H         1 MOL     0.0654
     18 H          26.1375   21.4926   15.7560 H         1 MOL     0.0619
     19 H          23.8121   20.9269   15.4320 H         1 MOL     0.0618
     20 H          22.1026   22.6006   15.7098 H         1 MOL     0.0625
@<TRIPOS>BOND
     1    1    2 1 
     2    1   14 1 
     3    1   15 1 
     4    1   16 1 
     5    2   10 2 
     6    2   11 1 
     7    3    4 ar
     8    3    8 ar
     9    3   11 1 
    10    4    5 ar
    11    4   17 1 
    12    5    6 ar
    13    5   18 1 
    14    6    7 ar
    15    6   19 1 
    16    7    8 ar
    17    7   20 1 
    18    8    9 1 
    19    9   12 ar
    20    9   13 ar
@<TRIPOS>SUBSTRUCTURE
1 MOL         1
@<TRIPOS>MOLECULE
query molecule
   20    20     1     0     0
SMALL
NO_CHARGE

@<TRIPOS>ATOM
      1 C          13.1517   28.4666   -4.0451 C.3       1 MOL     0.1362
      2 C          13.5644   27.8025   -2.7828 C.2       1 MOL     0.3092
      3 C          15.4231   29.3064   -2.3076 C.ar      1 MOL     0.1404
      4 C          14.9943   30.6142   -2.3883 C.ar      1 MOL     0.0468
      5 C          15.8339   31.6750   -2.6649 C.ar      1 MOL     0.0037
      6 C          17.1665   31.4112   -2.8694 C.ar      1 MOL     0.0009
      7 C          17.6482   30.1222   -2.8008 C.ar      1 MOL     0.0131
      8 C          16.7687   29.0760   -2.5185 C.ar      1 MOL     0.0397
      9 C          17.3192   27.7274   -2.4551 C.2       1 MOL     0.0752
     10 O          12.9563   26.7939   -2.3118 O.2       1 MOL    -0.2507
     11 O          14.6276   28.2262   -2.0365 O.3       1 MOL    -0.4254
     12 O          16.8135   26.7900   -3.1236 O.co2     1 MOL    -0.5445
     13 O          18.4123   27.4277   -1.6596 O.co2     1 MOL    -0.5445
     14 H          12.2999   27.9619   -4.4509 H         1 MOL     0.0342
     15 H          13.9574   28.4277   -4.7480 H         1 MOL     0.0342
     16 H          12.9014   29.4872   -3.8455 H         1 MOL     0.0342
     17 H          13.9933   30.8108   -2.2337 H         1 MOL     0.0654
     18 H          15.4701   32.6400   -2.7156 H         1 MOL     0.0619
     19 H          17.8146   32.1870   -3.0774 H         1 MOL     0.0618
     20 H          18.6510   29.9317   -2.9555 H         1 MOL     0.0625
@<TRIPOS>BOND
     1    1    2 1 
     2    1   14 1 
     3    1   15 1 
     4    1   16 1 
     5    2   10 2 
     6    2   11 1 
     7    3    4 ar
     8    3    8 ar
     9    3   11 1 
    10    4    5 ar
    11    4   17 1 
    12    5    6 ar
    13    5   18 1 
    14    6    7 ar
    15    6   19 1 
    16    7    8 ar
    17    7   20 1 
    18    8    9 1 
    19    9   12 ar
    20    9   13 ar
@<TRIPOS>SUBSTRUCTURE
1 MOL         1
@<TRIPOS>MOLECULE
query molecule
   20    20     1     0     0
SMALL
NO_CHARGE

@<TRIPOS>ATOM
      1 C          14.9049   17.9007   15.6563 C.3       1 MOL     0.1362
      2 C          15.1883   19.1914   16.3336 C.2       1 MOL     0.3092
      3 C          17.1852   19.9591   15.1652 C.ar      1 MOL     0.1404
      4 C          17.6727   20.6955   14.1065 C.ar      1 MOL     0.0468
      5 C          18.8972   20.4584   13.5140 C.ar      1 MOL     0.0037
      6 C          19.6692   19.4348   14.0075 C.ar      1 MOL     0.0009
      7 C          19.2298   18.6671   15.0639 C.ar      1 MOL     0.0131
      8 C          17.9862   18.9375   15.6370 C.ar      1 MOL     0.0397
      9 C          17.5591   18.1017   16.7527 C.2       1 MOL     0.0752
     10 O          14.7139   19.4827   17.4733 O.2       1 MOL    -0.2507
     11 O          15.9798   20.1589   15.7820 O.3       1 MOL    -0.4254
     12 O          18.3998   17.5067   17.4744 O.co2     1 MOL    -0.5445
     13 O          16.2194   17.9297   17.0579 O.co2     1 MOL    -0.5445
     14 H          14.2663   17.3063   16.2759 H         1 MOL     0.0342
     15 H          15.8230   17.3786   15.4860 H         1 MOL     0.0342
     16 H          14.4220   18.0879   14.7204 H         1 MOL     0.0342
     17 H          17.0920   21.4645   13.7375 H         1 MOL     0.0654
     18 H          19.2239   21.0353   12.7225 H         1 MOL     0.0619
     19 H          20.5886   19.2376   13.5820 H         1 MOL     0.0618
     20 H          19.8155   17.8997   15.4295 H         1 MOL     0.0625
@<TRIPOS>BOND
     1    1    2 1 
     2    1   14 1 
     3    1   15 1 
     4    1   16 1 
     5    2   10 2 
     6    2   11 1 
     7    3    4 ar
     8    3    8 ar
     9    3   11 1 
    10    4    5 ar
    11    4   17 1 
    12    5    6 ar
    13    5   18 1 
    14    6    7 ar
    15    6   19 1 
    16    7    8 ar
    17    7   20 1 
    18    8    9 1 
    19    9   12 ar
    20    9   13 ar
@<TRIPOS>SUBSTRUCTURE
1 MOL         1
@<TRIPOS>MOLECULE
query molecule
   20    20     1     0     0
SMALL
NO_CHARGE

@<TRIPOS>ATOM
      1 C          -5.1415    1.4542  -11.9980 C.3       1 MOL     0.1362
      2 C          -4.0913    2.3487  -12.5474 C.2       1 MOL     0.3092
      3 C          -3.4598    4.4379  -13.6331 C.ar      1 MOL     0.1404
      4 C          -2.8944    4.3430  -14.8870 C.ar      1 MOL     0.0468
      5 C          -1.9765    5.2499  -15.3788 C.ar      1 MOL     0.0037
      6 C          -1.6094    6.3018  -14.5750 C.ar      1 MOL     0.0009
      7 C          -2.1435    6.4441  -13.3129 C.ar      1 MOL     0.0131
      8 C          -3.0690    5.5071  -12.8508 C.ar      1 MOL     0.0397
      9 C          -3.6097    5.6945  -11.5098 C.2       1 MOL     0.0752
     10 O          -2.8603    2.0434  -12.5357 O.2       1 MOL    -0.2507
     11 O          -4.3715    3.5638  -13.1060 O.3       1 MOL    -0.4254
     12 O          -3.3843    4.8578  -10.5985 O.co2     1 MOL    -0.5445
     13 O          -4.3894    6.7933  -11.1899 O.co2     1 MOL    -0.5445
     14 H          -4.6870    0.5636  -11.6170 H         1 MOL     0.0342
     15 H          -5.8327    1.1981  -12.7734 H         1 MOL     0.0342
     16 H          -5.6605    1.9567  -11.2091 H         1 MOL     0.0342
     17 H          -3.1717    3.5529  -15.4897 H         1 MOL     0.0654
     18 H          -1.5780    5.1409  -16.3250 H         1 MOL     0.0619
     19 H          -0.9253    6.9934  -14.9197 H         1 MOL     0.0618
     20 H          -1.8629    7.2372  -12.7147 H         1 MOL     0.0625
@<TRIPOS>BOND
     1    1    2 1 
     2    1   14 1 
     3    1   15 1 
     4    1   16 1 
     5    2   10 2 
     6    2   11 1 
     7    3    4 ar
     8    3    8 ar
     9    3   11 1 
    10    4    5 ar
    11    4   17 1 
    12    5    6 ar
    13    5   18 1 
    14    6    7 ar
    15    6   19 1 
    16    7    8 ar
    17    7   20 1 
    18    8    9 1 
    19    9   12 ar
    20    9   13 ar
@<TRIPOS>SUBSTRUCTURE
1 MOL         1
@<TRIPOS>MOLECULE
query molecule
   20    20     1     0     0
SMALL
NO_CHARGE

@<TRIPOS>ATOM
      1 C          28.1562   24.3899   14.9974 C.3       1 MOL     0.1362
      2 C          27.9378   25.2720   13.8230 C.2       1 MOL     0.3092
      3 C          27.7107   27.5147   12.8952 C.ar      1 MOL     0.1404
      4 C          27.5565   27.1932   11.5634 C.ar      1 MOL     0.0468
      5 C          27.2313   28.1170   10.5899 C.ar      1 MOL     0.0037
      6 C          27.0514   29.4246   10.9708 C.ar      1 MOL     0.0009
      7 C          27.1938   29.8005   12.2887 C.ar      1 MOL     0.0131
      8 C          27.5230   28.8380   13.2443 C.ar      1 MOL     0.0397
      9 C          27.6641   29.2777   14.6271 C.2       1 MOL     0.0752
     10 O          27.6476   24.8194   12.6742 O.2       1 MOL    -0.2507
     11 O          28.0318   26.6334   13.8918 O.3       1 MOL    -0.4254
     12 O          26.6926   29.7785   15.2492 O.co2     1 MOL    -0.5445
     13 O          28.8664   29.1637   15.3046 O.co2     1 MOL    -0.5445
     14 H          28.0294   23.3688   14.7040 H         1 MOL     0.0342
     15 H          27.4476   24.6320   15.7615 H         1 MOL     0.0342
     16 H          29.1478   24.5341   15.3718 H         1 MOL     0.0342
     17 H          27.6912   26.2106   11.2790 H         1 MOL     0.0654
     18 H          27.1252   27.8324    9.6031 H         1 MOL     0.0619
     19 H          26.8075   30.1341   10.2621 H         1 MOL     0.0618
     20 H          27.0570   30.7851   12.5675 H         1 MOL     0.0625
@<TRIPOS>BOND
     1    1    2 1 
     2    1   14 1 
     3    1   15 1 
     4    1   16 1 
     5    2   10 2 
     6    2   11 1 
     7    3    4 ar
     8    3    8 ar
     9    3   11 1 
    10    4    5 ar
    11    4   17 1 
    12    5    6 ar
    13    5   18 1 
    14    6    7 ar
    15    6   19 1 
    16    7    8 ar
    17    7   20 1 
    18    8    9 1 
    19    9   12 ar
    20    9   13 ar
@<TRIPOS>SUBSTRUCTURE
1 MOL         1
@<TRIPOS>MOLECULE
query molecule
   20    20     1     0     0
SMALL
NO_CHARGE

@<TRIPOS>ATOM
      1 C          17.4831   21.1601   17.4742 C.3       1 MOL     0.1362
      2 C          18.3723   19.9863   17.2841 C.2       1 MOL     0.3092
      3 C          20.5057   20.7654   16.3987 C.ar      1 MOL     0.1404
      4 C          21.1321   21.9702   16.6374 C.ar      1 MOL     0.0468
      5 C          21.9015   22.6276   15.6979 C.ar      1 MOL     0.0037
      6 C          22.0500   22.0485   14.4610 C.ar      1 MOL     0.0009
      7 C          21.4452   20.8453   14.1692 C.ar      1 MOL     0.0131
      8 C          20.6754   20.2107   15.1451 C.ar      1 MOL     0.0397
      9 C          20.0530   18.9395   14.7953 C.2       1 MOL     0.0752
     10 O          17.9249   18.8148   17.0941 O.2       1 MOL    -0.2507
     11 O          19.7354   20.0800   17.2987 O.3       1 MOL    -0.4254
     12 O          20.7164   17.8711   14.8007 O.co2     1 MOL    -0.5445
     13 O          18.7160   18.8598   14.4436 O.co2     1 MOL    -0.5445
     14 H          16.4618   20.8450   17.4228 H         1 MOL     0.0342
     15 H          17.6733   21.8794   16.7055 H         1 MOL     0.0342
     16 H          17.6738   21.6006   18.4301 H         1 MOL     0.0342
     17 H          21.0203   22.4035   17.5671 H         1 MOL     0.0654
     18 H          22.3535   23.5291   15.9194 H         1 MOL     0.0619
     19 H          22.6203   22.5199   13.7416 H         1 MOL     0.0618
     20 H          21.5614   20.4162   13.2375 H         1 MOL     0.0625
@<TRIPOS>BOND
     1    1    2 1 
     2    1   14 1 
     3    1   15 1 
     4    1   16 1 
     5    2   10 2 
     6    2   11 1 
     7    3    4 ar
     8    3    8 ar
     9    3   11 1 
    10    4    5 ar
    11    4   17 1 
    12    5    6 ar
    13    5   18 1 
    14    6    7 ar
    15    6   19 1 
    16    7    8 ar
    17    7   20 1 
    18    8    9 1 
    19    9   12 ar
    20    9   13 ar
@<TRIPOS>SUBSTRUCTURE
1 MOL         1
@<TRIPOS>MOLECULE
query molecule
   20    20     1     0     0
SMALL
NO_CHARGE

@<TRIPOS>ATOM
      1 C          -7.3382   22.0344   -0.6852 C.3       1 MOL     0.1362
      2 C          -7.2922   21.2562   -1.9490 C.2       1 MOL     0.3092
      3 C          -8.0318   21.0208   -4.2598 C.ar      1 MOL     0.1404
      4 C          -7.4229   21.7365   -5.2687 C.ar      1 MOL     0.0468
      5 C          -7.2915   21.2691   -6.5613 C.ar      1 MOL     0.0037
      6 C          -7.7940   20.0247   -6.8553 C.ar      1 MOL     0.0009
      7 C          -8.4126   19.2673   -5.8847 C.ar      1 MOL     0.0131
      8 C          -8.5262   19.7737   -4.5891 C.ar      1 MOL     0.0397
      9 C          -9.1876   18.9402   -3.5923 C.2       1 MOL     0.0752
     10 O          -6.4203   20.3615   -2.1682 O.2       1 MOL    -0.2507
     11 O          -8.1837   21.4443   -2.9672 O.3       1 MOL    -0.4254
     12 O          -8.6813   17.8506   -3.2211 O.co2     1 MOL    -0.5445
     13 O         -10.3925   19.3127   -3.0205 O.co2     1 MOL    -0.5445
     14 H          -6.5463   21.7141   -0.0409 H         1 MOL     0.0342
     15 H          -8.2787   21.8731   -0.2015 H         1 MOL     0.0342
     16 H          -7.2231   23.0753   -0.9033 H         1 MOL     0.0342
     17 H          -7.0453   22.6705   -5.0461 H         1 MOL     0.0654
     18 H          -6.8274   21.8388   -7.2867 H         1 MOL     0.0619
     19 H          -7.7080   19.6527   -7.8142 H         1 MOL     0.0618
     20 H          -8.7877   18.3331   -6.1131 H         1 MOL     0.0625
@<TRIPOS>BOND
     1    1    2 1 
     2    1   14 1 
     3    1   15 1 
     4    1   16 1 
     5    2   10 2 
     6    2   11 1 
     7    3    4 ar
     8    3    8 ar
     9    3   11 1 
    10    4    5 ar
    11    4   17 1 
    12    5    6 ar
    13    5   18 1 
    14    6    7 ar
    15    6   19 1 
    16    7    8 ar
    17    7   20 1 
    18    8    9 1 
    19    9   12 ar
    20    9   13 ar
@<TRIPOS>SUBSTRUCTURE
1 MOL         1
@<TRIPOS>MOLECULE
query molecule
   20    20     1     0     0
SMALL
NO_CHARGE

@<TRIPOS>ATOM
      1 C           1.2928   31.9237  -14.7970 C.3       1 MOL     0.1362
      2 C           1.8295   30.5893  -14.4282 C.2       1 MOL     0.3092
      3 C           3.8815   30.1071  -13.2038 C.ar      1 MOL     0.1404
      4 C           5.2346   29.8499  -13.1413 C.ar      1 MOL     0.0468
      5 C           5.9150   29.6358  -11.9589 C.ar      1 MOL     0.0037
      6 C           5.2044   29.6827  -10.7840 C.ar      1 MOL     0.0009
      7 C           3.8500   29.9354  -10.7894 C.ar      1 MOL     0.0131
      8 C           3.1971   30.1472  -12.0047 C.ar      1 MOL     0.0397
      9 C           1.7638   30.4114  -11.9659 C.2       1 MOL     0.0752
     10 O           1.0794   29.6023  -14.1601 O.2       1 MOL    -0.2507
     11 O           3.1679   30.3250  -14.3512 O.3       1 MOL    -0.4254
     12 O           1.2832   31.4508  -12.4856 O.co2     1 MOL    -0.5445
     13 O           0.8816   29.5345  -11.3572 O.co2     1 MOL    -0.5445
     14 H           0.2233   31.8909  -14.7924 H         1 MOL     0.0342
     15 H           1.6372   32.1885  -15.7747 H         1 MOL     0.0342
     16 H           1.6314   32.6517  -14.0901 H         1 MOL     0.0342
     17 H           5.7670   29.8158  -14.0244 H         1 MOL     0.0654
     18 H           6.9300   29.4467  -11.9578 H         1 MOL     0.0619
     19 H           5.6900   29.5262   -9.8869 H         1 MOL     0.0618
     20 H           3.3227   29.9692   -9.9026 H         1 MOL     0.0625
@<TRIPOS>BOND
     1    1    2 1 
     2    1   14 1 
     3    1   15 1 
     4    1   16 1 
     5    2   10 2 
     6    2   11 1 
     7    3    4 ar
     8    3    8 ar
     9    3   11 1 
    10    4    5 ar
    11    4   17 1 
    12    5    6 ar
    13    5   18 1 
    14    6    7 ar
    15    6   19 1 
    16    7    8 ar
    17    7   20 1 
    18    8    9 1 
    19    9   12 ar
    20    9   13 ar
@<TRIPOS>SUBSTRUCTURE
1 MOL         1
@<TRIPOS>MOLECULE
query molecule
   20    20     1     0     0
SMALL
NO_CHARGE

@<TRIPOS>ATOM
      1 C          16.6759    4.5966   -2.3912 C.3       1 MOL     0.1362
      2 C          17.7752    3.5984   -2.4001 C.2       1 MOL     0.3092
      3 C          18.9451    2.6456   -0.4854 C.ar      1 MOL     0.1404
      4 C          20.1468    2.3240    0.1090 C.ar      1 MOL     0.0468
      5 C          20.2759    1.3666    1.0957 C.ar      1 MOL     0.0037
      6 C          19.1461    0.7013    1.5057 C.ar      1 MOL     0.0009
      7 C          17.9197    0.9833    0.9447 C.ar      1 MOL     0.0131
      8 C          17.8289    1.9581   -0.0501 C.ar      1 MOL     0.0397
      9 C          16.5128    2.2258   -0.6173 C.2       1 MOL     0.0752
     10 O          17.8640    2.6887   -3.2794 O.2       1 MOL    -0.2507
     11 O          18.7713    3.5857   -1.4648 O.3       1 MOL    -0.4254
     12 O          15.6880    2.9626   -0.0187 O.co2     1 MOL    -0.5445
     13 O          16.1212    1.6808   -1.8286 O.co2     1 MOL    -0.5445
     14 H          16.0193    4.4102   -3.2153 H         1 MOL     0.0342
     15 H          17.0872    5.5803   -2.4785 H         1 MOL     0.0342
     16 H          16.1305    4.5179   -1.4744 H         1 MOL     0.0342
     17 H          20.9943    2.8250   -0.1995 H         1 MOL     0.0654
     18 H          21.1962    1.1573    1.5144 H         1 MOL     0.0619
     19 H          19.2162   -0.0186    2.2420 H         1 MOL     0.0618
     20 H          17.0750    0.4793    1.2580 H         1 MOL     0.0625
@<TRIPOS>BOND
     1    1    2 1 
     2    1   14 1 
     3    1   15 1 
     4    1   16 1 
     5    2   10 2 
     6    2   11 1 
     7    3    4 ar
     8    3    8 ar
     9    3   11 1 
    10    4    5 ar
    11    4   17 1 
    12    5    6 ar
    13    5   18 1 
    14    6    7 ar
    15    6   19 1 
    16    7    8 ar
    17    7   20 1 
    18    8    9 1 
    19    9   12 ar
    20    9   13 ar
@<TRIPOS>SUBSTRUCTURE
1 MOL         1
@<TRIPOS>MOLECULE
query molecule
   20    20     1     0     0
SMALL
NO_CHARGE

@<TRIPOS>ATOM
      1 C          23.2800   18.9903   -3.1172 C.3       1 MOL     0.1362
      2 C          23.3042   20.3016   -2.4210 C.2       1 MOL     0.3092
      3 C          25.6558   20.9437   -2.4033 C.ar      1 MOL     0.1404
      4 C          26.3101   20.8750   -1.1917 C.ar      1 MOL     0.0468
      5 C          27.6602   20.6122   -1.0694 C.ar      1 MOL     0.0037
      6 C          28.3878   20.4080   -2.2167 C.ar      1 MOL     0.0009
      7 C          27.7837   20.4659   -3.4537 C.ar      1 MOL     0.0131
      8 C          26.4165   20.7337   -3.5370 C.ar      1 MOL     0.0397
      9 C          25.8168   20.7861   -4.8648 C.2       1 MOL     0.0752
     10 O          22.3795   20.6755   -1.6375 O.2       1 MOL    -0.2507
     11 O          24.3220   21.2009   -2.5709 O.3       1 MOL    -0.4254
     12 O          24.6136   21.1182   -5.0187 O.co2     1 MOL    -0.5445
     13 O          26.5435   20.4723   -6.0010 O.co2     1 MOL    -0.5445
     14 H          22.3909   18.4600   -2.8466 H         1 MOL     0.0342
     15 H          24.1375   18.4186   -2.8301 H         1 MOL     0.0342
     16 H          23.2944   19.1482   -4.1751 H         1 MOL     0.0342
     17 H          25.7622   21.0278   -0.3309 H         1 MOL     0.0654
     18 H          28.1102   20.5693   -0.1411 H         1 MOL     0.0619
     19 H          29.3985   20.2096   -2.1519 H         1 MOL     0.0618
     20 H          28.3369   20.3112   -4.3115 H         1 MOL     0.0625
@<TRIPOS>BOND
     1    1    2 1 
     2    1   14 1 
     3    1   15 1 
     4    1   16 1 
     5    2   10 2 
     6    2   11 1 
     7    3    4 ar
     8    3    8 ar
     9    3   11 1 
    10    4    5 ar
    11    4   17 1 
    12    5    6 ar
    13    5   18 1 
    14    6    7 ar
    15    6   19 1 
    16    7    8 ar
    17    7   20 1 
    18    8    9 1 
    19    9   12 ar
    20    9   13 ar
@<TRIPOS>SUBSTRUCTURE
1 MOL         1
@<TRIPOS>MOLECULE
query molecule
   20    20     1     0     0
SMALL
NO_CHARGE

@<TRIPOS>ATOM
      1 C          18.2023   25.7860   -9.4073 C.3       1 MOL     0.1362
      2 C          17.6241   25.1866  -10.6367 C.2       1 MOL     0.3092
      3 C          18.6049   26.7902  -12.1887 C.ar      1 MOL     0.1404
      4 C          18.1067   28.0746  -12.1328 C.ar      1 MOL     0.0468
      5 C          18.8523   29.1946  -12.4435 C.ar      1 MOL     0.0037
      6 C          20.1594   29.0175  -12.8277 C.ar      1 MOL     0.0009
      7 C          20.7075   27.7555  -12.9010 C.ar      1 MOL     0.0131
      8 C          19.9224   26.6476  -12.5787 C.ar      1 MOL     0.0397
      9 C          20.5409   25.3304  -12.6693 C.2       1 MOL     0.0752
     10 O          16.8294   24.1986  -10.6055 O.2       1 MOL    -0.2507
     11 O          17.9033   25.6537  -11.8900 O.3       1 MOL    -0.4254
     12 O          20.5052   24.5307  -11.6994 O.co2     1 MOL    -0.5445
     13 O          21.1895   24.9121  -13.8190 O.co2     1 MOL    -0.5445
     14 H          17.8416   25.2571   -8.5499 H         1 MOL     0.0342
     15 H          17.9113   26.8133   -9.3410 H         1 MOL     0.0342
     16 H          19.2692   25.7191   -9.4461 H         1 MOL     0.0342
     17 H          17.1252   28.2059  -11.8433 H         1 MOL     0.0654
     18 H          18.4390   30.1391  -12.3877 H         1 MOL     0.0619
     19 H          20.7376   29.8388  -13.0649 H         1 MOL     0.0618
     20 H          21.6905   27.6304  -13.1904 H         1 MOL     0.0625
@<TRIPOS>BOND
     1    1    2 1 
     2    1   14 1 
     3    1   15 1 
     4    1   16 1 
     5    2   10 2 
     6    2   11 1 
     7    3    4 ar
     8    3    8 ar
     9    3   11 1 
    10    4    5 ar
    11    4   17 1 
    12    5    6 ar
    13    5   18 1 
    14    6    7 ar
    15    6   19 1 
    16    7    8 ar
    17    7   20 1 
    18    8    9 1 
    19    9   12 ar
    20    9   13 ar
@<TRIPOS>SUBSTRUCTURE
1 MOL         1
@<TRIPOS>MOLECULE
query molecule
   20    20     1     0     0
SMALL
NO_CHARGE

@<TRIPOS>ATOM
      1 C          27.5725   31.1853   -2.1161 C.3       1 MOL     0.1362
      2 C          28.7426   30.3509   -2.4896 C.2       1 MOL     0.3092
      3 C          29.3538   28.1463   -3.3315 C.ar      1 MOL     0.1404
      4 C          29.3440   27.2683   -2.2686 C.ar      1 MOL     0.0468
      5 C          30.0563   26.0855   -2.2516 C.ar      1 MOL     0.0037
      6 C          30.8134   25.7684   -3.3532 C.ar      1 MOL     0.0009
      7 C          30.8593   26.6106   -4.4428 C.ar      1 MOL     0.0131
      8 C          30.1251   27.7974   -4.4230 C.ar      1 MOL     0.0397
      9 C          30.2014   28.6599   -5.5960 C.2       1 MOL     0.0752
     10 O          29.8962   30.5325   -1.9946 O.2       1 MOL    -0.2507
     11 O          28.6644   29.3272   -3.3912 O.3       1 MOL    -0.4254
     12 O          31.0756   29.5598   -5.6817 O.co2     1 MOL    -0.5445
     13 O          29.3183   28.5240   -6.6540 O.co2     1 MOL    -0.5445
     14 H          27.8732   31.9187   -1.3973 H         1 MOL     0.0342
     15 H          26.8115   30.5632   -1.6937 H         1 MOL     0.0342
     16 H          27.1907   31.6741   -2.9876 H         1 MOL     0.0342
     17 H          28.7743   27.5075   -1.4423 H         1 MOL     0.0654
     18 H          30.0201   25.4563   -1.4337 H         1 MOL     0.0619
     19 H          31.3548   24.8898   -3.3652 H         1 MOL     0.0618
     20 H          31.4303   26.3655   -5.2671 H         1 MOL     0.0625
@<TRIPOS>BOND
     1    1    2 1 
     2    1   14 1 
     3    1   15 1 
     4    1   16 1 
     5    2   10 2 
     6    2   11 1 
     7    3    4 ar
     8    3    8 ar
     9    3   11 1 
    10    4    5 ar
    11    4   17 1 
    12    5    6 ar
    13    5   18 1 
    14    6    7 ar
    15    6   19 1 
    16    7    8 ar
    17    7   20 1 
    18    8    9 1 
    19    9   12 ar
    20    9   13 ar
@<TRIPOS>SUBSTRUCTURE
1 MOL         1
@<TRIPOS>MOLECULE
query molecule
   20    20     1     0     0
SMALL
NO_CHARGE

@<TRIPOS>ATOM
      1 C          27.2381   34.1334    0.7319 C.3       1 MOL     0.1362
      2 C          27.0013   33.4523    2.0299 C.2       1 MOL     0.3092
      3 C          27.4410   35.4066    3.4189 C.ar      1 MOL     0.1404
      4 C          26.5446   36.4542    3.4267 C.ar      1 MOL     0.0468
      5 C          26.9139   37.7708    3.6186 C.ar      1 MOL     0.0037
      6 C          28.2451   38.0494    3.8126 C.ar      1 MOL     0.0009
      7 C          29.1833   37.0402    3.8137 C.ar      1 MOL     0.0131
      8 C          28.7714   35.7213    3.6168 C.ar      1 MOL     0.0397
      9 C          29.7958   34.6840    3.6252 C.2       1 MOL     0.0752
     10 O          26.6730   32.2297    2.1092 O.2       1 MOL    -0.2507
     11 O          27.1198   34.0893    3.2328 O.3       1 MOL    -0.4254
     12 O          29.6891   33.6753    4.3686 O.co2     1 MOL    -0.5445
     13 O          30.9203   34.7695    2.8216 O.co2     1 MOL    -0.5445
     14 H          27.0878   33.4382   -0.0675 H         1 MOL     0.0342
     15 H          28.2422   34.5012    0.7005 H         1 MOL     0.0342
     16 H          26.5555   34.9505    0.6285 H         1 MOL     0.0342
     17 H          25.5451   36.2432    3.2816 H         1 MOL     0.0654
     18 H          26.2087   38.5250    3.6173 H         1 MOL     0.0619
     19 H          28.5466   39.0255    3.9586 H         1 MOL     0.0618
     20 H          30.1818   37.2572    3.9603 H         1 MOL     0.0625
@<TRIPOS>BOND
     1    1    2 1 
     2    1   14 1 
     3    1   15 1 
     4    1   16 1 
     5    2   10 2 
     6    2   11 1 
     7    3    4 ar
     8    3    8 ar
     9    3   11 1 
    10    4    5 ar
    11    4   17 1 
    12    5    6 ar
    13    5   18 1 
    14    6    7 ar
    15    6   19 1 
    16    7    8 ar
    17    7   20 1 
    18    8    9 1 
    19    9   12 ar
    20    9   13 ar
@<TRIPOS>SUBSTRUCTURE
1 MOL         1
@<TRIPOS>MOLECULE
query molecule
   20    20     1     0     0
SMALL
NO_CHARGE

@<TRIPOS>ATOM
      1 C          -7.9638    4.2949   -0.8537 C.3       1 MOL     0.1362
      2 C          -8.7834    5.1286   -1.7692 C.2       1 MOL     0.3092
      3 C          -8.3044    6.4273   -3.7757 C.ar      1 MOL     0.1404
      4 C          -8.9083    7.6319   -3.4839 C.ar      1 MOL     0.0468
      5 C          -8.6717    8.7935   -4.1921 C.ar      1 MOL     0.0037
      6 C          -7.7870    8.7443   -5.2419 C.ar      1 MOL     0.0009
      7 C          -7.1560    7.5661   -5.5769 C.ar      1 MOL     0.0131
      8 C          -7.4206    6.4126   -4.8372 C.ar      1 MOL     0.0397
      9 C          -6.7319    5.1873   -5.2247 C.2       1 MOL     0.0752
     10 O          -9.7955    5.7829   -1.3741 O.2       1 MOL    -0.2507
     11 O          -8.5089    5.2538   -3.1018 O.3       1 MOL    -0.4254
     12 O          -5.8002    4.7188   -4.5218 O.co2     1 MOL    -0.5445
     13 O          -7.0733    4.4972   -6.3757 O.co2     1 MOL    -0.5445
     14 H          -8.3671    4.3511    0.1358 H         1 MOL     0.0342
     15 H          -6.9566    4.6555   -0.8492 H         1 MOL     0.0342
     16 H          -7.9776    3.2791   -1.1885 H         1 MOL     0.0342
     17 H          -9.5719    7.6675   -2.6946 H         1 MOL     0.0654
     18 H          -9.1460    9.6749   -3.9388 H         1 MOL     0.0619
     19 H          -7.5929    9.5991   -5.7867 H         1 MOL     0.0618
     20 H          -6.4923    7.5369   -6.3670 H         1 MOL     0.0625
@<TRIPOS>BOND
     1    1    2 1 
     2    1   14 1 
     3    1   15 1 
     4    1   16 1 
     5    2   10 2 
     6    2   11 1 
     7    3    4 ar
     8    3    8 ar
     9    3   11 1 
    10    4    5 ar
    11    4   17 1 
    12    5    6 ar
    13    5   18 1 
    14    6    7 ar
    15    6   19 1 
    16    7    8 ar
    17    7   20 1 
    18    8    9 1 
    19    9   12 ar
    20    9   13 ar
@<TRIPOS>SUBSTRUCTURE
1 MOL         1
@<TRIPOS>MOLECULE
query molecule
   20    20     1     0     0
SMALL
NO_CHARGE

@<TRIPOS>ATOM
      1 C          30.6478   22.5647    3.2504 C.3       1 MOL     0.1362
      2 C          29.2502   22.6478    3.7450 C.2       1 MOL     0.3092
      3 C          27.9997   24.7306    3.5433 C.ar      1 MOL     0.1404
      4 C          28.5452   25.7490    2.7909 C.ar      1 MOL     0.0468
      5 C          27.7885   26.6700    2.0938 C.ar      1 MOL     0.0037
      6 C          26.4201   26.5636    2.1538 C.ar      1 MOL     0.0009
      7 C          25.8227   25.5648    2.8915 C.ar      1 MOL     0.0131
      8 C          26.6211   24.6522    3.5825 C.ar      1 MOL     0.0397
      9 C          25.9491   23.6111    4.3507 C.2       1 MOL     0.0752
     10 O          28.4621   21.6541    3.7339 O.2       1 MOL    -0.2507
     11 O          28.7101   23.7974    4.2487 O.3       1 MOL    -0.4254
     12 O          25.7812   23.7289    5.5914 O.co2     1 MOL    -0.5445
     13 O          25.4743   22.4582    3.7482 O.co2     1 MOL    -0.5445
     14 H          30.8452   21.5708    2.9068 H         1 MOL     0.0342
     15 H          31.3219   22.8078    4.0448 H         1 MOL     0.0342
     16 H          30.7822   23.2552    2.4445 H         1 MOL     0.0342
     17 H          29.5730   25.8271    2.7462 H         1 MOL     0.0654
     18 H          28.2388   27.4173    1.5418 H         1 MOL     0.0619
     19 H          25.8323   27.2396    1.6413 H         1 MOL     0.0618
     20 H          24.7938   25.4911    2.9317 H         1 MOL     0.0625
@<TRIPOS>BOND
     1    1    2 1 
     2    1   14 1 
     3    1   15 1 
     4    1   16 1 
     5    2   10 2 
     6    2   11 1 
     7    3    4 ar
     8    3    8 ar
     9    3   11 1 
    10    4    5 ar
    11    4   17 1 
    12    5    6 ar
    13    5   18 1 
    14    6    7 ar
    15    6   19 1 
    16    7    8 ar
    17    7   20 1 
    18    8    9 1 
    19    9   12 ar
    20    9   13 ar
@<TRIPOS>SUBSTRUCTURE
1 MOL         1
@<TRIPOS>MOLECULE
query molecule
   20    20     1     0     0
SMALL
NO_CHARGE

@<TRIPOS>ATOM
      1 C          -0.7489   30.5460   -3.5164 C.3       1 MOL     0.1362
      2 C           0.4582   30.3355   -4.3551 C.2       1 MOL     0.3092
      3 C          -0.4051   28.4199   -5.5909 C.ar      1 MOL     0.1404
      4 C          -1.0006   27.4762   -4.7811 C.ar      1 MOL     0.0468
      5 C          -2.0044   26.6301   -5.2090 C.ar      1 MOL     0.0037
      6 C          -2.4314   26.7364   -6.5105 C.ar      1 MOL     0.0009
      7 C          -1.8700   27.6621   -7.3628 C.ar      1 MOL     0.0131
      8 C          -0.8576   28.5004   -6.8935 C.ar      1 MOL     0.0397
      9 C          -0.2909   29.4656   -7.8277 C.2       1 MOL     0.0752
     10 O           1.4502   31.1256   -4.3339 O.2       1 MOL    -0.2507
     11 O           0.5910   29.2775   -5.2094 O.3       1 MOL    -0.4254
     12 O           0.8894   29.3460   -8.2450 O.co2     1 MOL    -0.5445
     13 O          -1.0249   30.5461   -8.2874 O.co2     1 MOL    -0.5445
     14 H          -0.6256   31.4335   -2.9315 H         1 MOL     0.0342
     15 H          -0.8822   29.7065   -2.8668 H         1 MOL     0.0342
     16 H          -1.6071   30.6493   -4.1466 H         1 MOL     0.0342
     17 H          -0.6794   27.3982   -3.8037 H         1 MOL     0.0654
     18 H          -2.4233   25.9374   -4.5681 H         1 MOL     0.0619
     19 H          -3.1806   26.1155   -6.8545 H         1 MOL     0.0618
     20 H          -2.1961   27.7362   -8.3395 H         1 MOL     0.0625
@<TRIPOS>BOND
     1    1    2 1 
     2    1   14 1 
     3    1   15 1 
     4    1   16 1 
     5    2   10 2 
     6    2   11 1 
     7    3    4 ar
     8    3    8 ar
     9    3   11 1 
    10    4    5 ar
    11    4   17 1 
    12    5    6 ar
    13    5   18 1 
    14    6    7 ar
    15    6   19 1 
    16    7    8 ar
    17    7   20 1 
    18    8    9 1 
    19    9   12 ar
    20    9   13 ar
@<TRIPOS>SUBSTRUCTURE
1 MOL         1
@<TRIPOS>MOLECULE
query molecule
   20    20     1     0     0
SMALL
NO_CHARGE

@<TRIPOS>ATOM
      1 C          -5.2541   10.2225   -0.9684 C.3       1 MOL     0.1362
      2 C          -5.3742    9.6286    0.3872 C.2       1 MOL     0.3092
      3 C          -6.0562    7.7825    1.8256 C.ar      1 MOL     0.1404
      4 C          -7.0904    8.0174    2.7067 C.ar      1 MOL     0.0468
      5 C          -7.2091    7.3836    3.9277 C.ar      1 MOL     0.0037
      6 C          -6.2453    6.4705    4.2809 C.ar      1 MOL     0.0009
      7 C          -5.1900    6.1982    3.4379 C.ar      1 MOL     0.0131
      8 C          -5.1043    6.8589    2.2115 C.ar      1 MOL     0.0397
      9 C          -3.9721    6.5417    1.3496 C.2       1 MOL     0.0752
     10 O          -4.9970   10.2366    1.4345 O.2       1 MOL    -0.2507
     11 O          -5.8993    8.3866    0.6076 O.3       1 MOL    -0.4254
     12 O          -3.1147    5.6890    1.6951 O.co2     1 MOL    -0.5445
     13 O          -3.7965    7.1646    0.1253 O.co2     1 MOL    -0.5445
     14 H          -4.8173   11.1964   -0.8929 H         1 MOL     0.0342
     15 H          -6.2252   10.3006   -1.4105 H         1 MOL     0.0342
     16 H          -4.6341    9.5986   -1.5771 H         1 MOL     0.0342
     17 H          -7.8138    8.7029    2.4396 H         1 MOL     0.0654
     18 H          -8.0010    7.5895    4.5574 H         1 MOL     0.0619
     19 H          -6.3116    5.9831    5.1882 H         1 MOL     0.0618
     20 H          -4.4696    5.5107    3.7101 H         1 MOL     0.0625
@<TRIPOS>BOND
     1    1    2 1 
     2    1   14 1 
     3    1   15 1 
     4    1   16 1 
     5    2   10 2 
     6    2   11 1 
     7    3    4 ar
     8    3    8 ar
     9    3   11 1 
    10    4    5 ar
    11    4   17 1 
    12    5    6 ar
    13    5   18 1 
    14    6    7 ar
    15    6   19 1 
    16    7    8 ar
    17    7   20 1 
    18    8    9 1 
    19    9   12 ar
    20    9   13 ar
@<TRIPOS>SUBSTRUCTURE
1 MOL         1
@<TRIPOS>MOLECULE
query molecule
   20    20     1     0     0
SMALL
NO_CHARGE

@<TRIPOS>ATOM
      1 C          -5.7000   24.9866  -15.1975 C.3       1 MOL     0.1362
      2 C          -5.6553   23.5062  -15.0915 C.2       1 MOL     0.3092
      3 C          -4.0498   23.4364  -13.2586 C.ar      1 MOL     0.1404
      4 C          -4.4781   23.9903  -12.0709 C.ar      1 MOL     0.0468
      5 C          -3.6275   24.5710  -11.1512 C.ar      1 MOL     0.0037
      6 C          -2.2838   24.5964  -11.4361 C.ar      1 MOL     0.0009
      7 C          -1.8020   24.0574  -12.6091 C.ar      1 MOL     0.0131
      8 C          -2.6930   23.4786  -13.5142 C.ar      1 MOL     0.0397
      9 C          -2.1419   22.9200  -14.7429 C.2       1 MOL     0.0752
     10 O          -6.3576   22.7478  -15.8267 O.2       1 MOL    -0.2507
     11 O          -4.8560   22.8516  -14.1973 O.3       1 MOL    -0.4254
     12 O          -1.4165   21.8930  -14.7184 O.co2     1 MOL    -0.5445
     13 O          -2.3925   23.4960  -15.9770 O.co2     1 MOL    -0.5445
     14 H          -6.3929   25.2679  -15.9628 H         1 MOL     0.0342
     15 H          -4.7267   25.3556  -15.4446 H         1 MOL     0.0342
     16 H          -6.0121   25.4015  -14.2623 H         1 MOL     0.0342
     17 H          -5.4875   23.9698  -11.8580 H         1 MOL     0.0654
     18 H          -3.9913   24.9741  -10.2730 H         1 MOL     0.0619
     19 H          -1.6273   25.0245  -10.7646 H         1 MOL     0.0618
     20 H          -0.7909   24.0800  -12.8163 H         1 MOL     0.0625
@<TRIPOS>BOND
     1    1    2 1 
     2    1   14 1 
     3    1   15 1 
     4    1   16 1 
     5    2   10 2 
     6    2   11 1 
     7    3    4 ar
     8    3    8 ar
     9    3   11 1 
    10    4    5 ar
    11    4   17 1 
    12    5    6 ar
    13    5   18 1 
    14    6    7 ar
    15    6   19 1 
    16    7    8 ar
    17    7   20 1 
    18    8    9 1 
    19    9   12 ar
    20    9   13 ar
@<TRIPOS>SUBSTRUCTURE
1 MOL         1
@<TRIPOS>MOLECULE
query molecule
   20    20     1     0     0
SMALL
NO_CHARGE

@<TRIPOS>ATOM
      1 C          -5.6883   16.5888  -12.3388 C.3       1 MOL     0.1362
      2 C          -4.6653   17.6627  -12.4103 C.2       1 MOL     0.3092
      3 C          -3.1079   19.0027  -13.7223 C.ar      1 MOL     0.1404
      4 C          -3.4010   20.3485  -13.6614 C.ar      1 MOL     0.0468
      5 C          -2.4558   21.3417  -13.8260 C.ar      1 MOL     0.0037
      6 C          -1.1554   20.9668  -14.0620 C.ar      1 MOL     0.0009
      7 C          -0.8078   19.6354  -14.1331 C.ar      1 MOL     0.0131
      8 C          -1.7912   18.6602  -13.9612 C.ar      1 MOL     0.0397
      9 C          -1.3811   17.2635  -14.0440 C.2       1 MOL     0.0752
     10 O          -4.3287   18.3529  -11.4008 O.2       1 MOL    -0.2507
     11 O          -4.0111   17.9864  -13.5654 O.3       1 MOL    -0.4254
     12 O          -2.0694   16.3545  -13.5134 O.co2     1 MOL    -0.5445
     13 O          -0.2239   16.8861  -14.7043 O.co2     1 MOL    -0.5445
     14 H          -6.0595   16.5169  -11.3378 H         1 MOL     0.0342
     15 H          -5.2468   15.6567  -12.6231 H         1 MOL     0.0342
     16 H          -6.4941   16.8194  -13.0034 H         1 MOL     0.0342
     17 H          -4.3779   20.6284  -13.4833 H         1 MOL     0.0654
     18 H          -2.7192   22.3385  -13.7721 H         1 MOL     0.0619
     19 H          -0.4302   21.6902  -14.1882 H         1 MOL     0.0618
     20 H           0.1715   19.3613  -14.3107 H         1 MOL     0.0625
@<TRIPOS>BOND
     1    1    2 1 
     2    1   14 1 
     3    1   15 1 
     4    1   16 1 
     5    2   10 2 
     6    2   11 1 
     7    3    4 ar
     8    3    8 ar
     9    3   11 1 
    10    4    5 ar
    11    4   17 1 
    12    5    6 ar
    13    5   18 1 
    14    6    7 ar
    15    6   19 1 
    16    7    8 ar
    17    7   20 1 
    18    8    9 1 
    19    9   12 ar
    20    9   13 ar
@<TRIPOS>SUBSTRUCTURE
1 MOL         1
@<TRIPOS>MOLECULE
query molecule
   20    20     1     0     0
SMALL
NO_CHARGE

@<TRIPOS>ATOM
      1 C           2.9024   10.2203    8.8461 C.3       1 MOL     0.1362
      2 C           3.7734   10.9090    9.8319 C.2       1 MOL     0.3092
      3 C           5.6046   12.1193    8.7716 C.ar      1 MOL     0.1404
      4 C           5.0316   13.3497    8.5294 C.ar      1 MOL     0.0468
      5 C           5.5797   14.2909    7.6806 C.ar      1 MOL     0.0037
      6 C           6.7585   13.9834    7.0456 C.ar      1 MOL     0.0009
      7 C           7.3734   12.7677    7.2515 C.ar      1 MOL     0.0131
      8 C           6.7891   11.8421    8.1173 C.ar      1 MOL     0.0397
      9 C           7.4722   10.5681    8.3071 C.2       1 MOL     0.0752
     10 O           3.3458   11.3127   10.9557 O.2       1 MOL    -0.2507
     11 O           5.0973   11.1581    9.6034 O.3       1 MOL    -0.4254
     12 O           7.1484    9.7935    9.2434 O.co2     1 MOL    -0.5445
     13 O           8.4992   10.1648    7.4703 O.co2     1 MOL    -0.5445
     14 H           1.9121   10.1373    9.2429 H         1 MOL     0.0342
     15 H           3.2906    9.2430    8.6492 H         1 MOL     0.0342
     16 H           2.8775   10.7841    7.9374 H         1 MOL     0.0342
     17 H           4.1467   13.5795    9.0076 H         1 MOL     0.0654
     18 H           5.1167   15.2011    7.5281 H         1 MOL     0.0619
     19 H           7.1885   14.6702    6.4064 H         1 MOL     0.0618
     20 H           8.2592   12.5438    6.7709 H         1 MOL     0.0625
@<TRIPOS>BOND
     1    1    2 1 
     2    1   14 1 
     3    1   15 1 
     4    1   16 1 
     5    2   10 2 
     6    2   11 1 
     7    3    4 ar
     8    3    8 ar
     9    3   11 1 
    10    4    5 ar
    11    4   17 1 
    12    5    6 ar
    13    5   18 1 
    14    6    7 ar
    15    6   19 1 
    16    7    8 ar
    17    7   20 1 
    18    8    9 1 
    19    9   12 ar
    20    9   13 ar
@<TRIPOS>SUBSTRUCTURE
1 MOL         1
@<TRIPOS>MOLECULE
query molecule
   20    20     1     0     0
SMALL
NO_CHARGE

@<TRIPOS>ATOM
      1 C          21.2013   13.8235   12.8901 C.3       1 MOL     0.1362
      2 C          21.6714   12.5135   13.4073 C.2       1 MOL     0.3092
      3 C          23.4955   11.0614   14.1188 C.ar      1 MOL     0.1404
      4 C          23.4227   10.6559   15.4346 C.ar      1 MOL     0.0468
      5 C          23.9464    9.4637   15.8939 C.ar      1 MOL     0.0037
      6 C          24.5718    8.6391   14.9904 C.ar      1 MOL     0.0009
      7 C          24.6730    8.9959   13.6634 C.ar      1 MOL     0.0131
      8 C          24.1309   10.2091   13.2367 C.ar      1 MOL     0.0397
      9 C          24.2596   10.5485   11.8247 C.2       1 MOL     0.0752
     10 O          20.8769   11.5648   13.6857 O.2       1 MOL    -0.2507
     11 O          22.9914   12.2322   13.6206 O.3       1 MOL    -0.4254
     12 O          23.7312   11.5903   11.3588 O.co2     1 MOL    -0.5445
     13 O          24.9626    9.7409   10.9465 O.co2     1 MOL    -0.5445
     14 H          20.1348   13.8105   12.8044 H         1 MOL     0.0342
     15 H          21.6340   14.0029   11.9282 H         1 MOL     0.0342
     16 H          21.4965   14.5996   13.5644 H         1 MOL     0.0342
     17 H          22.9520   11.2759   16.1117 H         1 MOL     0.0654
     18 H          23.8691    9.1988   16.8889 H         1 MOL     0.0619
     19 H          24.9712    7.7423   15.3089 H         1 MOL     0.0618
     20 H          25.1443    8.3711   12.9903 H         1 MOL     0.0625
@<TRIPOS>BOND
     1    1    2 1 
     2    1   14 1 
     3    1   15 1 
     4    1   16 1 
     5    2   10 2 
     6    2   11 1 
     7    3    4 ar
     8    3    8 ar
     9    3   11 1 
    10    4    5 ar
    11    4   17 1 
    12    5    6 ar
    13    5   18 1 
    14    6    7 ar
    15    6   19 1 
    16    7    8 ar
    17    7   20 1 
    18    8    9 1 
    19    9   12 ar
    20    9   13 ar
@<TRIPOS>SUBSTRUCTURE
1 MOL         1
@<TRIPOS>MOLECULE
query molecule
   20    20     1     0     0
SMALL
NO_CHARGE

@<TRIPOS>ATOM
      1 C          21.2551   25.5241   14.4208 C.3       1 MOL     0.1362
      2 C          21.3634   26.0047   13.0200 C.2       1 MOL     0.3092
      3 C          23.4770   27.1840   13.3102 C.ar      1 MOL     0.1404
      4 C          23.5177   28.1056   14.3348 C.ar      1 MOL     0.0468
      5 C          24.6693   28.4238   15.0272 C.ar      1 MOL     0.0037
      6 C          25.8345   27.7868   14.6756 C.ar      1 MOL     0.0009
      7 C          25.8501   26.8574   13.6585 C.ar      1 MOL     0.0131
      8 C          24.6658   26.5619   12.9819 C.ar      1 MOL     0.0397
      9 C          24.7261   25.5727   11.9125 C.2       1 MOL     0.0752
     10 O          20.5347   25.6733   12.1188 O.2       1 MOL    -0.2507
     11 O          22.3604   26.8384   12.5983 O.3       1 MOL    -0.4254
     12 O          25.8281   25.1146   11.5162 O.co2     1 MOL    -0.5445
     13 O          23.5794   25.1037   11.2938 O.co2     1 MOL    -0.5445
     14 H          20.4000   24.8876   14.5137 H         1 MOL     0.0342
     15 H          21.1490   26.3618   15.0777 H         1 MOL     0.0342
     16 H          22.1376   24.9776   14.6792 H         1 MOL     0.0342
     17 H          22.6416   28.5827   14.5982 H         1 MOL     0.0654
     18 H          24.6546   29.1207   15.7890 H         1 MOL     0.0619
     19 H          26.7086   28.0070   15.1782 H         1 MOL     0.0618
     20 H          26.7296   26.3826   13.4000 H         1 MOL     0.0625
@<TRIPOS>BOND
     1    1    2 1 
     2    1   14 1 
     3    1   15 1 
     4    1   16 1 
     5    2   10 2 
     6    2   11 1 
     7    3    4 ar
     8    3    8 ar
     9    3   11 1 
    10    4    5 ar
    11    4   17 1 
    12    5    6 ar
    13    5   18 1 
    14    6    7 ar
    15    6   19 1 
    16    7    8 ar
    17    7   20 1 
    18    8    9 1 
    19    9   12 ar
    20    9   13 ar
@<TRIPOS>SUBSTRUCTURE
1 MOL         1
@<TRIPOS>MOLECULE
query molecule
   20    20     1     0     0
SMALL
NO_CHARGE

@<TRIPOS>ATOM
      1 C          16.8285   18.0960   16.2026 C.3       1 MOL     0.1362
      2 C          17.4617   16.9815   15.4529 C.2       1 MOL     0.3092
      3 C          18.9785   18.3773   14.1516 C.ar      1 MOL     0.1404
      4 C          18.7350   18.9482   12.9204 C.ar      1 MOL     0.0468
      5 C          19.2470   20.1708   12.5336 C.ar      1 MOL     0.0037
      6 C          20.0398   20.8532   13.4241 C.ar      1 MOL     0.0009
      7 C          20.3154   20.3282   14.6679 C.ar      1 MOL     0.0131
      8 C          19.7794   19.0895   15.0231 C.ar      1 MOL     0.0397
      9 C          20.0956   18.5702   16.3482 C.2       1 MOL     0.0752
     10 O          17.0862   15.7763   15.5758 O.2       1 MOL    -0.2507
     11 O          18.4926   17.1704   14.5763 O.3       1 MOL    -0.4254
     12 O          20.4286   17.3683   16.5096 O.co2     1 MOL    -0.5445
     13 O          20.0398   19.3746   17.4740 O.co2     1 MOL    -0.5445
     14 H          16.0477   17.7090   16.8234 H         1 MOL     0.0342
     15 H          16.4178   18.8021   15.5117 H         1 MOL     0.0342
     16 H          17.5636   18.5788   16.8115 H         1 MOL     0.0342
     17 H          18.1388   18.4348   12.2530 H         1 MOL     0.0654
     18 H          19.0388   20.5618   11.6009 H         1 MOL     0.0619
     19 H          20.4343   21.7693   13.1588 H         1 MOL     0.0618
     20 H          20.9119   20.8469   15.3319 H         1 MOL     0.0625
@<TRIPOS>BOND
     1    1    2 1 
     2    1   14 1 
     3    1   15 1 
     4    1   16 1 
     5    2   10 2 
     6    2   11 1 
     7    3    4 ar
     8    3    8 ar
     9    3   11 1 
    10    4    5 ar
    11    4   17 1 
    12    5    6 ar
    13    5   18 1 
    14    6    7 ar
    15    6   19 1 
    16    7    8 ar
    17    7   20 1 
    18    8    9 1 
    19    9   12 ar
    20    9   13 ar
@<TRIPOS>SUBSTRUCTURE
1 MOL         1
@<TRIPOS>MOLECULE
query molecule
   20    20     1     0     0
SMALL
NO_CHARGE

@<TRIPOS>ATOM
      1 C          27.4565   19.4720    4.1387 C.3       1 MOL     0.1362
      2 C          28.0117   19.2265    2.7836 C.2       1 MOL     0.3092
      3 C          27.1461   16.9613    2.5350 C.ar      1 MOL     0.1404
      4 C          25.7756   16.9099    2.3927 C.ar      1 MOL     0.0468
      5 C          25.0100   15.8285    2.7813 C.ar      1 MOL     0.0037
      6 C          25.6494   14.7476    3.3381 C.ar      1 MOL     0.0009
      7 C          27.0173   14.7467    3.5039 C.ar      1 MOL     0.0131
      8 C          27.7575   15.8582    3.0984 C.ar      1 MOL     0.0397
      9 C          29.2020   15.8165    3.2916 C.2       1 MOL     0.0752
     10 O          28.5893   20.1317    2.1085 O.2       1 MOL    -0.2507
     11 O          27.9431   18.0104    2.1645 O.3       1 MOL    -0.4254
     12 O          29.9657   15.4139    2.3771 O.co2     1 MOL    -0.5445
     13 O          29.7855   16.2141    4.4828 O.co2     1 MOL    -0.5445
     14 H          27.6278   20.4917    4.4142 H         1 MOL     0.0342
     15 H          27.9379   18.8267    4.8433 H         1 MOL     0.0342
     16 H          26.4052   19.2744    4.1343 H         1 MOL     0.0342
     17 H          25.2969   17.7222    1.9737 H         1 MOL     0.0654
     18 H          23.9851   15.8319    2.6559 H         1 MOL     0.0619
     19 H          25.0995   13.9268    3.6364 H         1 MOL     0.0618
     20 H          27.4909   13.9307    3.9229 H         1 MOL     0.0625
@<TRIPOS>BOND
     1    1    2 1 
     2    1   14 1 
     3    1   15 1 
     4    1   16 1 
     5    2   10 2 
     6    2   11 1 
     7    3    4 ar
     8    3    8 ar
     9    3   11 1 
    10    4    5 ar
    11    4   17 1 
    12    5    6 ar
    13    5   18 1 
    14    6    7 ar
    15    6   19 1 
    16    7    8 ar
    17    7   20 1 
    18    8    9 1 
    19    9   12 ar
    20    9   13 ar
@<TRIPOS>SUBSTRUCTURE
1 MOL         1
@<TRIPOS>MOLECULE
query molecule
   20    20     1     0     0
SMALL
NO_CHARGE

@<TRIPOS>ATOM
      1 C          -8.3061   11.3110   -9.8806 C.3       1 MOL     0.1362
      2 C          -9.3092   11.1578  -10.9646 C.2       1 MOL     0.3092
      3 C          -8.5914   13.0980  -12.2542 C.ar      1 MOL     0.1404
      4 C          -8.8561   14.3353  -11.7066 C.ar      1 MOL     0.0468
      5 C          -8.0701   15.4491  -11.9265 C.ar      1 MOL     0.0037
      6 C          -6.9661   15.3149  -12.7331 C.ar      1 MOL     0.0009
      7 C          -6.6556   14.1010  -13.3062 C.ar      1 MOL     0.0131
      8 C          -7.4741   12.9976  -13.0602 C.ar      1 MOL     0.0397
      9 C          -7.1100   11.7320  -13.6858 C.2       1 MOL     0.0752
     10 O         -10.2063   10.2615  -10.9427 O.2       1 MOL    -0.2507
     11 O          -9.3416   11.9693  -12.0634 O.3       1 MOL    -0.4254
     12 O          -7.8987   10.7526  -13.6714 O.co2     1 MOL    -0.5445
     13 O          -5.8883   11.5595  -14.3145 O.co2     1 MOL    -0.5445
     14 H          -8.4772   10.5682   -9.1297 H         1 MOL     0.0342
     15 H          -8.3967   12.2845   -9.4462 H         1 MOL     0.0342
     16 H          -7.3231   11.1910  -10.2851 H         1 MOL     0.0342
     17 H          -9.6851   14.4343  -11.1004 H         1 MOL     0.0654
     18 H          -8.3051   16.3575  -11.4957 H         1 MOL     0.0619
     19 H          -6.3624   16.1325  -12.9126 H         1 MOL     0.0618
     20 H          -5.8243   14.0077  -13.9111 H         1 MOL     0.0625
@<TRIPOS>BOND
     1    1    2 1 
     2    1   14 1 
     3    1   15 1 
     4    1   16 1 
     5    2   10 2 
     6    2   11 1 
     7    3    4 ar
     8    3    8 ar
     9    3   11 1 
    10    4    5 ar
    11    4   17 1 
    12    5    6 ar
    13    5   18 1 
    14    6    7 ar
    15    6   19 1 
    16    7    8 ar
    17    7   20 1 
    18    8    9 1 
    19    9   12 ar
    20    9   13 ar
@<TRIPOS>SUBSTRUCTURE
1 MOL         1
@<TRIPOS>MOLECULE
query molecule
   20    20     1     0     0
SMALL
NO_CHARGE

@<TRIPOS>ATOM
      1 C          -0.4183   11.0150   14.4193 C.3       1 MOL     0.1362
      2 C          -0.1264   12.4683   14.3331 C.2       1 MOL     0.3092
      3 C           1.7830   13.9095   14.8014 C.ar      1 MOL     0.1404
      4 C           2.8774   13.5153   14.0612 C.ar      1 MOL     0.0468
      5 C           3.9036   14.3683   13.7061 C.ar      1 MOL     0.0037
      6 C           3.8278   15.6785   14.1121 C.ar      1 MOL     0.0009
      7 C           2.7563   16.1254   14.8542 C.ar      1 MOL     0.0131
      8 C           1.7379   15.2333   15.1935 C.ar      1 MOL     0.0397
      9 C           0.6225   15.7468   15.9794 C.2       1 MOL     0.0752
     10 O          -0.6687   13.2233   13.4702 O.2       1 MOL    -0.2507
     11 O           0.7449   13.0997   15.1752 O.3       1 MOL    -0.4254
     12 O          -0.2330   16.5120   15.4656 O.co2     1 MOL    -0.5445
     13 O           0.4636   15.4155   17.3146 O.co2     1 MOL    -0.5445
     14 H          -1.1267   10.7487   13.6628 H         1 MOL     0.0342
     15 H          -0.8243   10.7896   15.3831 H         1 MOL     0.0342
     16 H           0.4851   10.4609   14.2742 H         1 MOL     0.0342
     17 H           2.9325   12.5312   13.7564 H         1 MOL     0.0654
     18 H           4.7053   14.0307   13.1499 H         1 MOL     0.0619
     19 H           4.5821   16.3360   13.8592 H         1 MOL     0.0618
     20 H           2.7061   17.1114   15.1556 H         1 MOL     0.0625
@<TRIPOS>BOND
     1    1    2 1 
     2    1   14 1 
     3    1   15 1 
     4    1   16 1 
     5    2   10 2 
     6    2   11 1 
     7    3    4 ar
     8    3    8 ar
     9    3   11 1 
    10    4    5 ar
    11    4   17 1 
    12    5    6 ar
    13    5   18 1 
    14    6    7 ar
    15    6   19 1 
    16    7    8 ar
    17    7   20 1 
    18    8    9 1 
    19    9   12 ar
    20    9   13 ar
@<TRIPOS>SUBSTRUCTURE
1 MOL         1
@<TRIPOS>MOLECULE
query molecule
   20    20     1     0     0
SMALL
NO_CHARGE

@<TRIPOS>ATOM
      1 C          23.1925   27.1628   16.3421 C.3       1 MOL     0.1362
      2 C          24.6141   27.4586   16.0319 C.2       1 MOL     0.3092
      3 C          26.4843   27.3783   14.4704 C.ar      1 MOL     0.1404
      4 C          26.8309   28.5563   13.8434 C.ar      1 MOL     0.0468
      5 C          28.1183   28.8558   13.4439 C.ar      1 MOL     0.0037
      6 C          29.1043   27.9302   13.6854 C.ar      1 MOL     0.0009
      7 C          28.8127   26.7363   14.3083 C.ar      1 MOL     0.0131
      8 C          27.4994   26.4695   14.6980 C.ar      1 MOL     0.0397
      9 C          27.2338   25.1948   15.3539 C.2       1 MOL     0.0752
     10 O          25.3603   28.1203   16.8156 O.2       1 MOL    -0.2507
     11 O          25.2238   27.0405   14.8828 O.3       1 MOL    -0.4254
     12 O          27.9759   24.7760   16.2787 O.co2     1 MOL    -0.5445
     13 O          26.1618   24.3995   14.9850 O.co2     1 MOL    -0.5445
     14 H          22.9392   27.5882   17.2907 H         1 MOL     0.0342
     15 H          23.0483   26.1033   16.3765 H         1 MOL     0.0342
     16 H          22.5672   27.5835   15.5830 H         1 MOL     0.0342
     17 H          26.0894   29.2508   13.6635 H         1 MOL     0.0654
     18 H          28.3340   29.7513   12.9773 H         1 MOL     0.0619
     19 H          30.0747   28.1306   13.3966 H         1 MOL     0.0618
     20 H          29.5590   26.0457   14.4866 H         1 MOL     0.0625
@<TRIPOS>BOND
     1    1    2 1 
     2    1   14 1 
     3    1   15 1 
     4    1   16 1 
     5    2   10 2 
     6    2   11 1 
     7    3    4 ar
     8    3    8 ar
     9    3   11 1 
    10    4    5 ar
    11    4   17 1 
    12    5    6 ar
    13    5   18 1 
    14    6    7 ar
    15    6   19 1 
    16    7    8 ar
    17    7   20 1 
    18    8    9 1 
    19    9   12 ar
    20    9   13 ar
@<TRIPOS>SUBSTRUCTURE
1 MOL         1
@<TRIPOS>MOLECULE
query molecule
   20    20     1     0     0
SMALL
NO_CHARGE

@<TRIPOS>ATOM
      1 C          -7.7638   17.7426    7.9632 C.3       1 MOL     0.1362
      2 C          -8.6278   17.2093    6.8797 C.2       1 MOL     0.3092
      3 C          -7.2697   18.0428    5.0349 C.ar      1 MOL     0.1404
      4 C          -7.2999   19.3918    4.7516 C.ar      1 MOL     0.0468
      5 C          -6.2267   20.0834    4.2256 C.ar      1 MOL     0.0037
      6 C          -5.0686   19.3890    3.9725 C.ar      1 MOL     0.0009
      7 C          -4.9844   18.0393    4.2365 C.ar      1 MOL     0.0131
      8 C          -6.0904   17.3747    4.7686 C.ar      1 MOL     0.0397
      9 C          -5.9592   15.9470    5.0332 C.2       1 MOL     0.0752
     10 O          -9.7245   16.6157    7.1111 O.2       1 MOL    -0.2507
     11 O          -8.3075   17.3184    5.5559 O.3       1 MOL    -0.4254
     12 O          -6.7897   15.1241    4.5698 O.co2     1 MOL    -0.5445
     13 O          -4.9227   15.4447    5.8019 O.co2     1 MOL    -0.5445
     14 H          -8.2171   17.5416    8.9114 H         1 MOL     0.0342
     15 H          -7.6489   18.7991    7.8398 H         1 MOL     0.0342
     16 H          -6.8044   17.2717    7.9183 H         1 MOL     0.0342
     17 H          -8.1701   19.9121    4.9429 H         1 MOL     0.0654
     18 H          -6.2926   21.0948    4.0288 H         1 MOL     0.0619
     19 H          -4.2523   19.8833    3.5796 H         1 MOL     0.0618
     20 H          -4.1108   17.5242    4.0439 H         1 MOL     0.0625
@<TRIPOS>BOND
     1    1    2 1 
     2    1   14 1 
     3    1   15 1 
     4    1   16 1 
     5    2   10 2 
     6    2   11 1 
     7    3    4 ar
     8    3    8 ar
     9    3   11 1 
    10    4    5 ar
    11    4   17 1 
    12    5    6 ar
    13    5   18 1 
    14    6    7 ar
    15    6   19 1 
    16    7    8 ar
    17    7   20 1 
    18    8    9 1 
    19    9   12 ar
    20    9   13 ar
@<TRIPOS>SUBSTRUCTURE
1 MOL         1
@<TRIPOS>MOLECULE
query molecule
   20    20     1     0     0
SMALL
NO_CHARGE

@<TRIPOS>ATOM
      1 C          10.4258    2.4870  -14.0355 C.3       1 MOL     0.1362
      2 C           9.8778    1.1729  -13.6139 C.2       1 MOL     0.3092
      3 C          10.4982    0.7595  -11.2930 C.ar      1 MOL     0.1404
      4 C          11.6458    0.7940  -10.5298 C.ar      1 MOL     0.0468
      5 C          11.6611    1.1405   -9.1932 C.ar      1 MOL     0.0037
      6 C          10.4689    1.4686   -8.5946 C.ar      1 MOL     0.0009
      7 C           9.2921    1.4500   -9.3110 C.ar      1 MOL     0.0131
      8 C           9.3168    1.0947  -10.6605 C.ar      1 MOL     0.0397
      9 C           8.0498    1.0878  -11.3818 C.2       1 MOL     0.0752
     10 O           8.8517    0.6570  -14.1521 O.2       1 MOL    -0.2507
     11 O          10.4368    0.4226  -12.6182 O.3       1 MOL    -0.4254
     12 O           7.9602    1.5769  -12.5368 O.co2     1 MOL    -0.5445
     13 O           6.9024    0.5475  -10.8257 O.co2     1 MOL    -0.5445
     14 H           9.8264    2.8851  -14.8275 H         1 MOL     0.0342
     15 H          11.4312    2.3603  -14.3785 H         1 MOL     0.0342
     16 H          10.4144    3.1609  -13.2049 H         1 MOL     0.0342
     17 H          12.5405    0.5481  -10.9810 H         1 MOL     0.0654
     18 H          12.5444    1.1537   -8.6588 H         1 MOL     0.0619
     19 H          10.4538    1.7314   -7.5966 H         1 MOL     0.0618
     20 H           8.4001    1.6979   -8.8543 H         1 MOL     0.0625
@<TRIPOS>BOND
     1    1    2 1 
     2    1   14 1 
     3    1   15 1 
     4    1   16 1 
     5    2   10 2 
     6    2   11 1 
     7    3    4 ar
     8    3    8 ar
     9    3   11 1 
    10    4    5 ar
    11    4   17 1 
    12    5    6 ar
    13    5   18 1 
    14    6    7 ar
    15    6   19 1 
    16    7    8 ar
    17    7   20 1 
    18    8    9 1 
    19    9   12 ar
    20    9   13 ar
@<TRIPOS>SUBSTRUCTURE
1 MOL         1
@<TRIPOS>MOLECULE
query molecule
   20    20     1     0     0
SMALL
NO_CHARGE

@<TRIPOS>ATOM
      1 C          16.2549    5.1498   16.8890 C.3       1 MOL     0.1362
      2 C          16.3796    3.7121   16.5392 C.2       1 MOL     0.3092
      3 C          16.4467    2.4237   14.4709 C.ar      1 MOL     0.1404
      4 C          16.3683    2.6297   13.1099 C.ar      1 MOL     0.0468
      5 C          17.0325    1.8514   12.1827 C.ar      1 MOL     0.0037
      6 C          17.8127    0.8184   12.6427 C.ar      1 MOL     0.0009
      7 C          17.9258    0.5681   13.9928 C.ar      1 MOL     0.0131
      8 C          17.2394    1.3769   14.8997 C.ar      1 MOL     0.0397
      9 C          17.3863    1.0779   16.3191 C.2       1 MOL     0.0752
     10 O          17.0275    2.8893   17.2549 O.2       1 MOL    -0.2507
     11 O          15.8068    3.1689   15.4240 O.3       1 MOL    -0.4254
     12 O          16.4505    0.5447   16.9682 O.co2     1 MOL    -0.5445
     13 O          18.5540    1.3696   17.0040 O.co2     1 MOL    -0.5445
     14 H          16.7823    5.3415   17.8000 H         1 MOL     0.0342
     15 H          15.2218    5.3972   17.0162 H         1 MOL     0.0342
     16 H          16.6702    5.7450   16.1032 H         1 MOL     0.0342
     17 H          15.7826    3.4064   12.7660 H         1 MOL     0.0654
     18 H          16.9459    2.0413   11.1715 H         1 MOL     0.0619
     19 H          18.3196    0.2224   11.9697 H         1 MOL     0.0618
     20 H          18.5141   -0.2099   14.3311 H         1 MOL     0.0625
@<TRIPOS>BOND
     1    1    2 1 
     2    1   14 1 
     3    1   15 1 
     4    1   16 1 
     5    2   10 2 
     6    2   11 1 
     7    3    4 ar
     8    3    8 ar
     9    3   11 1 
    10    4    5 ar
    11    4   17 1 
    12    5    6 ar
    13    5   18 1 
    14    6    7 ar
    15    6   19 1 
    16    7    8 ar
    17    7   20 1 
    18    8    9 1 
    19    9   12 ar
    20    9   13 ar
@<TRIPOS>SUBSTRUCTURE
1 MOL         1
@<TRIPOS>MOLECULE
query molecule
   20    20     1     0     0
SMALL
NO_CHARGE

@<TRIPOS>ATOM
      1 C          -9.5165   11.5678  -16.0626 C.3       1 MOL     0.1362
      2 C          -9.6450   11.5442  -14.5835 C.2       1 MOL     0.3092
      3 C          -8.7901   12.1780  -12.3904 C.ar      1 MOL     0.1404
      4 C          -9.3780   13.0828  -11.5320 C.ar      1 MOL     0.0468
      5 C          -9.3265   12.9715  -10.1566 C.ar      1 MOL     0.0037
      6 C          -8.6543   11.9017   -9.6171 C.ar      1 MOL     0.0009
      7 C          -8.0482   10.9682  -10.4293 C.ar      1 MOL     0.0131
      8 C          -8.1222   11.1144  -11.8153 C.ar      1 MOL     0.0397
      9 C          -7.4673   10.1046  -12.6382 C.2       1 MOL     0.0752
     10 O         -10.5348   10.8656  -13.9865 O.2       1 MOL    -0.2507
     11 O          -8.8161   12.2490  -13.7569 O.3       1 MOL    -0.4254
     12 O          -6.7826   10.4317  -13.6410 O.co2     1 MOL    -0.5445
     13 O          -7.5749    8.7543  -12.3507 O.co2     1 MOL    -0.5445
     14 H         -10.2697   10.9432  -16.4953 H         1 MOL     0.0342
     15 H          -8.5493   11.2058  -16.3420 H         1 MOL     0.0342
     16 H          -9.6375   12.5706  -16.4148 H         1 MOL     0.0342
     17 H          -9.8831   13.8852  -11.9387 H         1 MOL     0.0654
     18 H          -9.7817   13.6725   -9.5505 H         1 MOL     0.0619
     19 H          -8.6018   11.7959   -8.5918 H         1 MOL     0.0618
     20 H          -7.5449   10.1668  -10.0166 H         1 MOL     0.0625
@<TRIPOS>BOND
     1    1    2 1 
     2    1   14 1 
     3    1   15 1 
     4    1   16 1 
     5    2   10 2 
     6    2   11 1 
     7    3    4 ar
     8    3    8 ar
     9    3   11 1 
    10    4    5 ar
    11    4   17 1 
    12    5    6 ar
    13    5   18 1 
    14    6    7 ar
    15    6   19 1 
    16    7    8 ar
    17    7   20 1 
    18    8    9 1 
    19    9   12 ar
    20    9   13 ar
@<TRIPOS>SUBSTRUCTURE
1 MOL         1
@<TRIPOS>MOLECULE
query molecule
   20    20     1     0     0
SMALL
NO_CHARGE

@<TRIPOS>ATOM
      1 C           5.4402   35.0979   16.3843 C.3       1 MOL     0.1362
      2 C           6.0694   33.7906   16.7003 C.2       1 MOL     0.3092
      3 C           4.3328   32.1445   16.2344 C.ar      1 MOL     0.1404
      4 C           3.5822   31.9939   17.3811 C.ar      1 MOL     0.0468
      5 C           2.2847   31.5214   17.3851 C.ar      1 MOL     0.0037
      6 C           1.7132   31.1849   16.1820 C.ar      1 MOL     0.0009
      7 C           2.4189   31.3155   15.0058 C.ar      1 MOL     0.0131
      8 C           3.7283   31.7971   15.0420 C.ar      1 MOL     0.0397
      9 C           4.4394   31.9199   13.7751 C.2       1 MOL     0.0752
     10 O           7.0690   33.6834   17.4736 O.2       1 MOL    -0.2507
     11 O           5.6194   32.6082   16.1839 O.3       1 MOL    -0.4254
     12 O           5.6841   31.7516   13.7129 O.co2     1 MOL    -0.5445
     13 O           3.7764   32.2268   12.5988 O.co2     1 MOL    -0.5445
     14 H           5.9598   35.8773   16.9014 H         1 MOL     0.0342
     15 H           4.4165   35.0850   16.6948 H         1 MOL     0.0342
     16 H           5.4911   35.2723   15.3301 H         1 MOL     0.0342
     17 H           4.0125   32.2478   18.2838 H         1 MOL     0.0654
     18 H           1.7583   31.4246   18.2681 H         1 MOL     0.0619
     19 H           0.7445   30.8296   16.1584 H         1 MOL     0.0618
     20 H           1.9827   31.0607   14.1055 H         1 MOL     0.0625
@<TRIPOS>BOND
     1    1    2 1 
     2    1   14 1 
     3    1   15 1 
     4    1   16 1 
     5    2   10 2 
     6    2   11 1 
     7    3    4 ar
     8    3    8 ar
     9    3   11 1 
    10    4    5 ar
    11    4   17 1 
    12    5    6 ar
    13    5   18 1 
    14    6    7 ar
    15    6   19 1 
    16    7    8 ar
    17    7   20 1 
    18    8    9 1 
    19    9   12 ar
    20    9   13 ar
@<TRIPOS>SUBSTRUCTURE
1 MOL         1
@<TRIPOS>MOLECULE
query molecule
   20    20     1     0     0
SMALL
NO_CHARGE

@<TRIPOS>ATOM
      1 C          -9.5424   18.5382   -4.7487 C.3       1 MOL     0.1362
      2 C          -9.5784   17.5208   -5.8296 C.2       1 MOL     0.3092
      3 C          -8.0632   18.6844   -7.3437 C.ar      1 MOL     0.1404
      4 C          -8.3316   20.0366   -7.3620 C.ar      1 MOL     0.0468
      5 C          -7.3896   20.9955   -7.6781 C.ar      1 MOL     0.0037
      6 C          -6.1184   20.5781   -7.9898 C.ar      1 MOL     0.0009
      7 C          -5.7963   19.2384   -7.9872 C.ar      1 MOL     0.0131
      8 C          -6.7755   18.2987   -7.6620 C.ar      1 MOL     0.0397
      9 C          -6.3930   16.8918   -7.6711 C.2       1 MOL     0.0752
     10 O         -10.1842   16.4135   -5.7047 O.2       1 MOL    -0.2507
     11 O          -8.9643   17.7010   -7.0368 O.3       1 MOL    -0.4254
     12 O          -5.1993   16.5472   -7.8653 O.co2     1 MOL    -0.5445
     13 O          -7.3237   15.8865   -7.4696 O.co2     1 MOL    -0.5445
     14 H         -10.0899   18.1783   -3.9027 H         1 MOL     0.0342
     15 H          -9.9850   19.4468   -5.0996 H         1 MOL     0.0342
     16 H          -8.5272   18.7219   -4.4659 H         1 MOL     0.0342
     17 H          -9.2865   20.3486   -7.1270 H         1 MOL     0.0654
     18 H          -7.6338   21.9987   -7.6792 H         1 MOL     0.0619
     19 H          -5.3962   21.2754   -8.2293 H         1 MOL     0.0618
     20 H          -4.8388   18.9323   -8.2223 H         1 MOL     0.0625
@<TRIPOS>BOND
     1    1    2 1 
     2    1   14 1 
     3    1   15 1 
     4    1   16 1 
     5    2   10 2 
     6    2   11 1 
     7    3    4 ar
     8    3    8 ar
     9    3   11 1 
    10    4    5 ar
    11    4   17 1 
    12    5    6 ar
    13    5   18 1 
    14    6    7 ar
    15    6   19 1 
    16    7    8 ar
    17    7   20 1 
    18    8    9 1 
    19    9   12 ar
    20    9   13 ar
@<TRIPOS>SUBSTRUCTURE
1 MOL         1
@<TRIPOS>MOLECULE
query molecule
   20    20     1     0     0
SMALL
NO_CHARGE

@<TRIPOS>ATOM
      1 C          -9.6836   11.2868    8.3844 C.3       1 MOL     0.1362
      2 C          -8.4184   11.4296    7.6203 C.2       1 MOL     0.3092
      3 C          -6.8773   12.7266    8.9933 C.ar      1 MOL     0.1404
      4 C          -7.4714   12.9433   10.2185 C.ar      1 MOL     0.0468
      5 C          -6.7616   13.2136   11.3716 C.ar      1 MOL     0.0037
      6 C          -5.3912   13.2683   11.2919 C.ar      1 MOL     0.0009
      7 C          -4.7463   13.0599   10.0923 C.ar      1 MOL     0.0131
      8 C          -5.4981   12.7888    8.9481 C.ar      1 MOL     0.0397
      9 C          -4.7767   12.5744    7.6994 C.2       1 MOL     0.0752
     10 O          -8.0674   10.6065    6.7214 O.2       1 MOL    -0.2507
     11 O          -7.5404   12.4559    7.8271 O.3       1 MOL    -0.4254
     12 O          -5.2327   11.8090    6.8119 O.co2     1 MOL    -0.5445
     13 O          -3.5678   13.1999    7.4444 O.co2     1 MOL    -0.5445
     14 H         -10.2045   10.4138    8.0505 H         1 MOL     0.0342
     15 H         -10.2955   12.1498    8.2250 H         1 MOL     0.0342
     16 H          -9.4619   11.1942    9.4267 H         1 MOL     0.0342
     17 H          -8.5007   12.9011   10.2768 H         1 MOL     0.0654
     18 H          -7.2475   13.3693   12.2692 H         1 MOL     0.0619
     19 H          -4.8379   13.4684   12.1399 H         1 MOL     0.0618
     20 H          -3.7162   13.1024   10.0402 H         1 MOL     0.0625
@<TRIPOS>BOND
     1    1    2 1 
     2    1   14 1 
     3    1   15 1 
     4    1   16 1 
     5    2   10 2 
     6    2   11 1 
     7    3    4 ar
     8    3    8 ar
     9    3   11 1 
    10    4    5 ar
    11    4   17 1 
    12    5    6 ar
    13    5   18 1 
    14    6    7 ar
    15    6   19 1 
    16    7    8 ar
    17    7   20 1 
    18    8    9 1 
    19    9   12 ar
    20    9   13 ar
@<TRIPOS>SUBSTRUCTURE
1 MOL         1
@<TRIPOS>MOLECULE
query molecule
   20    20     1     0     0
SMALL
NO_CHARGE

@<TRIPOS>ATOM
      1 C           6.9802   10.2212  -16.3045 C.3       1 MOL     0.1362
      2 C           7.3432   11.4627  -15.5753 C.2       1 MOL     0.3092
      3 C           9.0288   12.7194  -14.3416 C.ar      1 MOL     0.1404
      4 C           9.1269   13.1094  -13.0228 C.ar      1 MOL     0.0468
      5 C           9.7169   14.2912  -12.6203 C.ar      1 MOL     0.0037
      6 C          10.2335   15.1202  -13.5864 C.ar      1 MOL     0.0009
      7 C          10.1618   14.7791  -14.9194 C.ar      1 MOL     0.0131
      8 C           9.5580   13.5758  -15.2874 C.ar      1 MOL     0.0397
      9 C           9.5030   13.2529  -16.7081 C.2       1 MOL     0.0752
     10 O           6.6445   12.5194  -15.6368 O.2       1 MOL    -0.2507
     11 O           8.4536   11.5593  -14.7848 O.3       1 MOL    -0.4254
     12 O           8.4880   13.5317  -17.3961 O.co2     1 MOL    -0.5445
     13 O          10.5590   12.6287  -17.3507 O.co2     1 MOL    -0.5445
     14 H           6.0761   10.3824  -16.8537 H         1 MOL     0.0342
     15 H           6.8347    9.4260  -15.6038 H         1 MOL     0.0342
     16 H           7.7677    9.9617  -16.9802 H         1 MOL     0.0342
     17 H           8.7392   12.4854  -12.2984 H         1 MOL     0.0654
     18 H           9.7693   14.5442  -11.6207 H         1 MOL     0.0619
     19 H          10.6799   16.0091  -13.3111 H         1 MOL     0.0618
     20 H          10.5523   15.4070  -15.6397 H         1 MOL     0.0625
@<TRIPOS>BOND
     1    1    2 1 
     2    1   14 1 
     3    1   15 1 
     4    1   16 1 
     5    2   10 2 
     6    2   11 1 
     7    3    4 ar
     8    3    8 ar
     9    3   11 1 
    10    4    5 ar
    11    4   17 1 
    12    5    6 ar
    13    5   18 1 
    14    6    7 ar
    15    6   19 1 
    16    7    8 ar
    17    7   20 1 
    18    8    9 1 
    19    9   12 ar
    20    9   13 ar
@<TRIPOS>SUBSTRUCTURE
1 MOL         1
@<TRIPOS>MOLECULE
query molecule
   20    20     1     0     0
SMALL
NO_CHARGE

@<TRIPOS>ATOM
      1 C          12.9465   35.1786   -6.4149 C.3       1 MOL     0.1362
      2 C          12.9019   36.3739   -5.5351 C.2       1 MOL     0.3092
      3 C          15.3145   36.5683   -5.2455 C.ar      1 MOL     0.1404
      4 C          16.0860   37.0794   -6.2676 C.ar      1 MOL     0.0468
      5 C          17.3900   36.6917   -6.5042 C.ar      1 MOL     0.0037
      6 C          17.9463   35.7474   -5.6759 C.ar      1 MOL     0.0009
      7 C          17.2196   35.2034   -4.6394 C.ar      1 MOL     0.0131
      8 C          15.9042   35.6209   -4.4315 C.ar      1 MOL     0.0397
      9 C          15.1706   35.0203   -3.3239 C.2       1 MOL     0.0752
     10 O          11.8192   36.9665   -5.2431 O.2       1 MOL    -0.2507
     11 O          14.0207   36.9230   -4.9749 O.3       1 MOL    -0.4254
     12 O          14.7981   35.7135   -2.3430 O.co2     1 MOL    -0.5445
     13 O          14.8592   33.6710   -3.3080 O.co2     1 MOL    -0.5445
     14 H          11.9545   34.9328   -6.7319 H         1 MOL     0.0342
     15 H          13.3628   34.3541   -5.8750 H         1 MOL     0.0342
     16 H          13.5537   35.3881   -7.2702 H         1 MOL     0.0342
     17 H          15.6669   37.7891   -6.8883 H         1 MOL     0.0654
     18 H          17.9322   37.1011   -7.2817 H         1 MOL     0.0619
     19 H          18.9195   35.4411   -5.8318 H         1 MOL     0.0618
     20 H          17.6445   34.4943   -4.0210 H         1 MOL     0.0625
@<TRIPOS>BOND
     1    1    2 1 
     2    1   14 1 
     3    1   15 1 
     4    1   16 1 
     5    2   10 2 
     6    2   11 1 
     7    3    4 ar
     8    3    8 ar
     9    3   11 1 
    10    4    5 ar
    11    4   17 1 
    12    5    6 ar
    13    5   18 1 
    14    6    7 ar
    15    6   19 1 
    16    7    8 ar
    17    7   20 1 
    18    8    9 1 
    19    9   12 ar
    20    9   13 ar
@<TRIPOS>SUBSTRUCTURE
1 MOL         1
@<TRIPOS>MOLECULE
query molecule
   20    20     1     0     0
SMALL
NO_CHARGE

@<TRIPOS>ATOM
      1 C          11.0991    2.4369   15.4679 C.3       1 MOL     0.1362
      2 C          11.6504    3.8147   15.4188 C.2       1 MOL     0.3092
      3 C          10.6682    4.4114   13.2690 C.ar      1 MOL     0.1404
      4 C          11.0333    3.7570   12.1117 C.ar      1 MOL     0.0468
      5 C          10.1734    3.5481   11.0517 C.ar      1 MOL     0.0037
      6 C           8.8865    4.0172   11.1581 C.ar      1 MOL     0.0009
      7 C           8.4693    4.6786   12.2926 C.ar      1 MOL     0.0131
      8 C           9.3674    4.8703   13.3435 C.ar      1 MOL     0.0397
      9 C           8.8856    5.5748   14.5255 C.2       1 MOL     0.0752
     10 O          12.3137    4.3189   16.3752 O.2       1 MOL    -0.2507
     11 O          11.4858    4.6402   14.3425 O.3       1 MOL    -0.4254
     12 O           8.9575    6.8277   14.6061 O.co2     1 MOL    -0.5445
     13 O           8.3353    4.8959   15.5996 O.co2     1 MOL    -0.5445
     14 H          11.3539    1.9847   16.4036 H         1 MOL     0.0342
     15 H          11.5128    1.8589   14.6683 H         1 MOL     0.0342
     16 H          10.0349    2.4751   15.3670 H         1 MOL     0.0342
     17 H          11.9998    3.4047   12.0336 H         1 MOL     0.0654
     18 H          10.4888    3.0521   10.2028 H         1 MOL     0.0619
     19 H           8.2245    3.8734   10.3796 H         1 MOL     0.0618
     20 H           7.5007    5.0281   12.3654 H         1 MOL     0.0625
@<TRIPOS>BOND
     1    1    2 1 
     2    1   14 1 
     3    1   15 1 
     4    1   16 1 
     5    2   10 2 
     6    2   11 1 
     7    3    4 ar
     8    3    8 ar
     9    3   11 1 
    10    4    5 ar
    11    4   17 1 
    12    5    6 ar
    13    5   18 1 
    14    6    7 ar
    15    6   19 1 
    16    7    8 ar
    17    7   20 1 
    18    8    9 1 
    19    9   12 ar
    20    9   13 ar
@<TRIPOS>SUBSTRUCTURE
1 MOL         1
@<TRIPOS>MOLECULE
query molecule
   20    20     1     0     0
SMALL
NO_CHARGE

@<TRIPOS>ATOM
      1 C           9.0889    4.6640    5.1693 C.3       1 MOL     0.1362
      2 C           8.0890    5.6459    4.6786 C.2       1 MOL     0.3092
      3 C           9.6640    7.1121    3.5331 C.ar      1 MOL     0.1404
      4 C          10.4184    7.9245    4.3528 C.ar      1 MOL     0.0468
      5 C          11.6873    8.3634    4.0304 C.ar      1 MOL     0.0037
      6 C          12.2249    7.9681    2.8296 C.ar      1 MOL     0.0009
      7 C          11.5139    7.1569    1.9723 C.ar      1 MOL     0.0131
      8 C          10.2340    6.7331    2.3333 C.ar      1 MOL     0.0397
      9 C           9.5160    5.8758    1.3977 C.2       1 MOL     0.0752
     10 O           6.8715    5.6152    5.0326 O.2       1 MOL    -0.2507
     11 O           8.4048    6.6540    3.8119 O.3       1 MOL    -0.4254
     12 O           9.3826    4.6452    1.6195 O.co2     1 MOL    -0.5445
     13 O           8.9582    6.3798    0.2348 O.co2     1 MOL    -0.5445
     14 H           8.6132    3.9736    5.8342 H         1 MOL     0.0342
     15 H           9.8691    5.1794    5.6891 H         1 MOL     0.0342
     16 H           9.5039    4.1327    4.3389 H         1 MOL     0.0342
     17 H          10.0136    8.2199    5.2547 H         1 MOL     0.0654
     18 H          12.2178    8.9713    4.6748 H         1 MOL     0.0619
     19 H          13.1718    8.2826    2.5657 H         1 MOL     0.0618
     20 H          11.9244    6.8637    1.0716 H         1 MOL     0.0625
@<TRIPOS>BOND
     1    1    2 1 
     2    1   14 1 
     3    1   15 1 
     4    1   16 1 
     5    2   10 2 
     6    2   11 1 
     7    3    4 ar
     8    3    8 ar
     9    3   11 1 
    10    4    5 ar
    11    4   17 1 
    12    5    6 ar
    13    5   18 1 
    14    6    7 ar
    15    6   19 1 
    16    7    8 ar
    17    7   20 1 
    18    8    9 1 
    19    9   12 ar
    20    9   13 ar
@<TRIPOS>SUBSTRUCTURE
1 MOL         1
@<TRIPOS>MOLECULE
query molecule
   20    20     1     0     0
SMALL
NO_CHARGE

@<TRIPOS>ATOM
      1 C          -7.3865   21.4908    9.8459 C.3       1 MOL     0.1362
      2 C          -6.5440   20.5236   10.5940 C.2       1 MOL     0.3092
      3 C          -4.2211   20.4772    9.8563 C.ar      1 MOL     0.1404
      4 C          -3.9112   21.4170    8.8962 C.ar      1 MOL     0.0468
      5 C          -2.6517   21.9618    8.7428 C.ar      1 MOL     0.0037
      6 C          -1.6566   21.5446    9.5930 C.ar      1 MOL     0.0009
      7 C          -1.9117   20.6072   10.5701 C.ar      1 MOL     0.0131
      8 C          -3.1977   20.0796   10.6946 C.ar      1 MOL     0.0397
      9 C          -3.4250   19.0904   11.7413 C.2       1 MOL     0.0752
     10 O          -6.7817   20.1992   11.7969 O.2       1 MOL    -0.2507
     11 O          -5.4532   19.9117   10.0440 O.3       1 MOL    -0.4254
     12 O          -4.2274   18.1378   11.5680 O.co2     1 MOL    -0.5445
     13 O          -2.7718   19.1621   12.9602 O.co2     1 MOL    -0.5445
     14 H          -8.1784   21.8359   10.4774 H         1 MOL     0.0342
     15 H          -7.8011   21.0104    8.9846 H         1 MOL     0.0342
     16 H          -6.7872   22.3213    9.5374 H         1 MOL     0.0342
     17 H          -4.6599   21.7299    8.2590 H         1 MOL     0.0654
     18 H          -2.4634   22.6641    8.0097 H         1 MOL     0.0619
     19 H          -0.7066   21.9370    9.4989 H         1 MOL     0.0618
     20 H          -1.1588   20.2987   11.2054 H         1 MOL     0.0625
@<TRIPOS>BOND
     1    1    2 1 
     2    1   14 1 
     3    1   15 1 
     4    1   16 1 
     5    2   10 2 
     6    2   11 1 
     7    3    4 ar
     8    3    8 ar
     9    3   11 1 
    10    4    5 ar
    11    4   17 1 
    12    5    6 ar
    13    5   18 1 
    14    6    7 ar
    15    6   19 1 
    16    7    8 ar
    17    7   20 1 
    18    8    9 1 
    19    9   12 ar
    20    9   13 ar
@<TRIPOS>SUBSTRUCTURE
1 MOL         1
@<TRIPOS>MOLECULE
query molecule
   20    20     1     0     0
SMALL
NO_CHARGE

@<TRIPOS>ATOM
      1 C          24.2786   18.4200  -11.6866 C.3       1 MOL     0.1362
      2 C          23.5779   19.2898  -10.7082 C.2       1 MOL     0.3092
      3 C          24.7728   21.4136  -10.6472 C.ar      1 MOL     0.1404
      4 C          25.8910   21.0819   -9.9118 C.ar      1 MOL     0.0468
      5 C          27.0148   21.8803   -9.8332 C.ar      1 MOL     0.0037
      6 C          27.0173   23.0669  -10.5256 C.ar      1 MOL     0.0009
      7 C          25.9259   23.4471  -11.2758 C.ar      1 MOL     0.0131
      8 C          24.8081   22.6132  -11.3312 C.ar      1 MOL     0.0397
      9 C          23.6749   23.0529  -12.1363 C.2       1 MOL     0.0752
     10 O          22.8741   18.8232   -9.7618 O.2       1 MOL    -0.2507
     11 O          23.6393   20.6540  -10.7532 O.3       1 MOL    -0.4254
     12 O          23.4741   22.5794  -13.2838 O.co2     1 MOL    -0.5445
     13 O          22.7824   24.0046  -11.6724 O.co2     1 MOL    -0.5445
     14 H          24.0863   17.3938  -11.4523 H         1 MOL     0.0342
     15 H          25.3311   18.6055  -11.6384 H         1 MOL     0.0342
     16 H          23.9233   18.6345  -12.6725 H         1 MOL     0.0342
     17 H          25.8879   20.1901   -9.3930 H         1 MOL     0.0654
     18 H          27.8313   21.5928   -9.2703 H         1 MOL     0.0619
     19 H          27.8455   23.6812  -10.4832 H         1 MOL     0.0618
     20 H          25.9350   24.3402  -11.7935 H         1 MOL     0.0625
@<TRIPOS>BOND
     1    1    2 1 
     2    1   14 1 
     3    1   15 1 
     4    1   16 1 
     5    2   10 2 
     6    2   11 1 
     7    3    4 ar
     8    3    8 ar
     9    3   11 1 
    10    4    5 ar
    11    4   17 1 
    12    5    6 ar
    13    5   18 1 
    14    6    7 ar
    15    6   19 1 
    16    7    8 ar
    17    7   20 1 
    18    8    9 1 
    19    9   12 ar
    20    9   13 ar
@<TRIPOS>SUBSTRUCTURE
1 MOL         1
@<TRIPOS>MOLECULE
query molecule
   20    20     1     0     0
SMALL
NO_CHARGE

@<TRIPOS>ATOM
      1 C          20.8121   23.6723   -9.4170 C.3       1 MOL     0.1362
      2 C          20.0027   23.0908  -10.5177 C.2       1 MOL     0.3092
      3 C          21.7806   23.1231  -12.1851 C.ar      1 MOL     0.1404
      4 C          22.3183   24.3329  -12.5700 C.ar      1 MOL     0.0468
      5 C          23.6311   24.4902  -12.9682 C.ar      1 MOL     0.0037
      6 C          24.4426   23.3818  -12.9802 C.ar      1 MOL     0.0009
      7 C          23.9561   22.1483  -12.6057 C.ar      1 MOL     0.0131
      8 C          22.6234   22.0289  -12.2087 C.ar      1 MOL     0.0397
      9 C          22.1489   20.7062  -11.8203 C.2       1 MOL     0.0752
     10 O          18.8030   22.7121  -10.3561 O.2       1 MOL    -0.2507
     11 O          20.4877   22.9215  -11.7838 O.3       1 MOL    -0.4254
     12 O          21.3302   20.0761  -12.5374 O.co2     1 MOL    -0.5445
     13 O          22.5769   20.0968  -10.6528 O.co2     1 MOL    -0.5445
     14 H          20.2250   23.7065   -8.5231 H         1 MOL     0.0342
     15 H          21.1151   24.6633   -9.6827 H         1 MOL     0.0342
     16 H          21.6783   23.0663   -9.2531 H         1 MOL     0.0342
     17 H          21.7078   25.1645  -12.5597 H         1 MOL     0.0654
     18 H          23.9930   25.4158  -13.2483 H         1 MOL     0.0619
     19 H          25.4278   23.4733  -13.2736 H         1 MOL     0.0618
     20 H          24.5719   21.3199  -12.6171 H         1 MOL     0.0625
@<TRIPOS>BOND
     1    1    2 1 
     2    1   14 1 
     3    1   15 1 
     4    1   16 1 
     5    2   10 2 
     6    2   11 1 
     7    3    4 ar
     8    3    8 ar
     9    3   11 1 
    10    4    5 ar
    11    4   17 1 
    12    5    6 ar
    13    5   18 1 
    14    6    7 ar
    15    6   19 1 
    16    7    8 ar
    17    7   20 1 
    18    8    9 1 
    19    9   12 ar
    20    9   13 ar
@<TRIPOS>SUBSTRUCTURE
1 MOL         1
@<TRIPOS>MOLECULE
query molecule
   20    20     1     0     0
SMALL
NO_CHARGE

@<TRIPOS>ATOM
      1 C           9.6430   24.8922   17.3690 C.3       1 MOL     0.1362
      2 C          10.3470   23.9624   16.4500 C.2       1 MOL     0.3092
      3 C           8.8851   22.0262   16.6871 C.ar      1 MOL     0.1404
      4 C           7.6978   22.6892   16.9142 C.ar      1 MOL     0.0468
      5 C           6.5076   22.0461   17.1910 C.ar      1 MOL     0.0037
      6 C           6.5086   20.6733   17.2415 C.ar      1 MOL     0.0009
      7 C           7.6676   19.9610   17.0227 C.ar      1 MOL     0.0131
      8 C           8.8512   20.6465   16.7454 C.ar      1 MOL     0.0397
      9 C          10.0548   19.8550   16.5202 C.2       1 MOL     0.0752
     10 O          11.2412   24.3513   15.6389 O.2       1 MOL    -0.2507
     11 O          10.0857   22.6219   16.4098 O.3       1 MOL    -0.4254
     12 O          10.2210   19.2214   15.4467 O.co2     1 MOL    -0.5445
     13 O          11.0546   19.7690   17.4744 O.co2     1 MOL    -0.5445
     14 H          10.0129   25.8855   17.2226 H         1 MOL     0.0342
     15 H           9.8171   24.5926   18.3812 H         1 MOL     0.0342
     16 H           8.5932   24.8678   17.1653 H         1 MOL     0.0342
     17 H           7.6985   23.7202   16.8751 H         1 MOL     0.0654
     18 H           5.6406   22.5825   17.3544 H         1 MOL     0.0619
     19 H           5.6316   20.1691   17.4463 H         1 MOL     0.0618
     20 H           7.6606   18.9295   17.0622 H         1 MOL     0.0625
@<TRIPOS>BOND
     1    1    2 1 
     2    1   14 1 
     3    1   15 1 
     4    1   16 1 
     5    2   10 2 
     6    2   11 1 
     7    3    4 ar
     8    3    8 ar
     9    3   11 1 
    10    4    5 ar
    11    4   17 1 
    12    5    6 ar
    13    5   18 1 
    14    6    7 ar
    15    6   19 1 
    16    7    8 ar
    17    7   20 1 
    18    8    9 1 
    19    9   12 ar
    20    9   13 ar
@<TRIPOS>SUBSTRUCTURE
1 MOL         1
@<TRIPOS>MOLECULE
query molecule
   20    20     1     0     0
SMALL
NO_CHARGE

@<TRIPOS>ATOM
      1 C         -10.1055   18.2286    3.7957 C.3       1 MOL     0.1362
      2 C         -10.6803   18.8502    5.0155 C.2       1 MOL     0.3092
      3 C         -10.5662   21.1945    4.3571 C.ar      1 MOL     0.1404
      4 C         -11.6424   21.5938    3.5935 C.ar      1 MOL     0.0468
      5 C         -11.5821   22.6182    2.6695 C.ar      1 MOL     0.0037
      6 C         -10.3858   23.2732    2.5045 C.ar      1 MOL     0.0009
      7 C          -9.2784   22.9142    3.2416 C.ar      1 MOL     0.0131
      8 C          -9.3786   21.8737    4.1664 C.ar      1 MOL     0.0397
      9 C          -8.1835   21.5256    4.9255 C.2       1 MOL     0.0752
     10 O         -11.3031   18.1802    5.8942 O.2       1 MOL    -0.2507
     11 O         -10.5809   20.1865    5.2827 O.3       1 MOL    -0.4254
     12 O          -7.5661   22.3935    5.5942 O.co2     1 MOL    -0.5445
     13 O          -7.6836   20.2343    4.9381 O.co2     1 MOL    -0.5445
     14 H         -10.3061   17.1776    3.8034 H         1 MOL     0.0342
     15 H          -9.0479   18.3896    3.7783 H         1 MOL     0.0342
     16 H         -10.5480   18.6709    2.9280 H         1 MOL     0.0342
     17 H         -12.5404   21.1014    3.7191 H         1 MOL     0.0654
     18 H         -12.4135   22.8851    2.1186 H         1 MOL     0.0619
     19 H         -10.3149   24.0426    1.8203 H         1 MOL     0.0618
     20 H          -8.3828   23.4111    3.1122 H         1 MOL     0.0625
@<TRIPOS>BOND
     1    1    2 1 
     2    1   14 1 
     3    1   15 1 
     4    1   16 1 
     5    2   10 2 
     6    2   11 1 
     7    3    4 ar
     8    3    8 ar
     9    3   11 1 
    10    4    5 ar
    11    4   17 1 
    12    5    6 ar
    13    5   18 1 
    14    6    7 ar
    15    6   19 1 
    16    7    8 ar
    17    7   20 1 
    18    8    9 1 
    19    9   12 ar
    20    9   13 ar
@<TRIPOS>SUBSTRUCTURE
1 MOL         1
@<TRIPOS>MOLECULE
query molecule
   20    20     1     0     0
SMALL
NO_CHARGE

@<TRIPOS>ATOM
      1 C           1.4227    6.8987  -15.2037 C.3       1 MOL     0.1362
      2 C           1.5634    7.9643  -16.2282 C.2       1 MOL     0.3092
      3 C           1.7565   10.0524  -14.9851 C.ar      1 MOL     0.1404
      4 C           1.1450   10.3015  -13.7748 C.ar      1 MOL     0.0468
      5 C           1.6984   11.0981  -12.7920 C.ar      1 MOL     0.0037
      6 C           2.9232   11.6709  -13.0347 C.ar      1 MOL     0.0009
      7 C           3.5779   11.4554  -14.2277 C.ar      1 MOL     0.0131
      8 C           2.9868   10.6436  -15.1970 C.ar      1 MOL     0.0397
      9 C           3.7129   10.4414  -16.4450 C.2       1 MOL     0.0752
     10 O           1.9884    7.7322  -17.4004 O.2       1 MOL    -0.2507
     11 O           1.2455    9.2709  -15.9859 O.3       1 MOL    -0.4254
     12 O           4.2808    9.3472  -16.6931 O.co2     1 MOL    -0.5445
     13 O           3.8066   11.4409  -17.3989 O.co2     1 MOL    -0.5445
     14 H           1.7291    5.9619  -15.6202 H         1 MOL     0.0342
     15 H           0.4005    6.8342  -14.8947 H         1 MOL     0.0342
     16 H           2.0366    7.1327  -14.3595 H         1 MOL     0.0342
     17 H           0.2255    9.8699  -13.5937 H         1 MOL     0.0654
     18 H           1.2055   11.2578  -11.8989 H         1 MOL     0.0619
     19 H           3.3582   12.2703  -12.3158 H         1 MOL     0.0618
     20 H           4.4982   11.8891  -14.4029 H         1 MOL     0.0625
@<TRIPOS>BOND
     1    1    2 1 
     2    1   14 1 
     3    1   15 1 
     4    1   16 1 
     5    2   10 2 
     6    2   11 1 
     7    3    4 ar
     8    3    8 ar
     9    3   11 1 
    10    4    5 ar
    11    4   17 1 
    12    5    6 ar
    13    5   18 1 
    14    6    7 ar
    15    6   19 1 
    16    7    8 ar
    17    7   20 1 
    18    8    9 1 
    19    9   12 ar
    20    9   13 ar
@<TRIPOS>SUBSTRUCTURE
1 MOL         1
@<TRIPOS>MOLECULE
query molecule
   20    20     1     0     0
SMALL
NO_CHARGE

@<TRIPOS>ATOM
      1 C          28.0591   23.4036   -1.6634 C.3       1 MOL     0.1362
      2 C          27.2687   22.1646   -1.4512 C.2       1 MOL     0.3092
      3 C          26.4469   21.9996   -3.7402 C.ar      1 MOL     0.1404
      4 C          27.2563   21.5773   -4.7734 C.ar      1 MOL     0.0468
      5 C          27.1331   22.0316   -6.0715 C.ar      1 MOL     0.0037
      6 C          26.1511   22.9524   -6.3460 C.ar      1 MOL     0.0009
      7 C          25.3149   23.4086   -5.3505 C.ar      1 MOL     0.0131
      8 C          25.4700   22.9257   -4.0503 C.ar      1 MOL     0.0397
      9 C          24.5646   23.4342   -3.0270 C.2       1 MOL     0.0752
     10 O          27.2225   21.5678   -0.3330 O.2       1 MOL    -0.2507
     11 O          26.5333   21.5768   -2.4414 O.3       1 MOL    -0.4254
     12 O          24.4402   24.6699   -2.8293 O.co2     1 MOL    -0.5445
     13 O          23.8126   22.5817   -2.2363 O.co2     1 MOL    -0.5445
     14 H          28.5478   23.6748   -0.7509 H         1 MOL     0.0342
     15 H          27.4064   24.1950   -1.9671 H         1 MOL     0.0342
     16 H          28.7914   23.2332   -2.4244 H         1 MOL     0.0342
     17 H          27.9928   20.8852   -4.5658 H         1 MOL     0.0654
     18 H          27.7611   21.6880   -6.8155 H         1 MOL     0.0619
     19 H          26.0385   23.3073   -7.3086 H         1 MOL     0.0618
     20 H          24.5792   24.1005   -5.5644 H         1 MOL     0.0625
@<TRIPOS>BOND
     1    1    2 1 
     2    1   14 1 
     3    1   15 1 
     4    1   16 1 
     5    2   10 2 
     6    2   11 1 
     7    3    4 ar
     8    3    8 ar
     9    3   11 1 
    10    4    5 ar
    11    4   17 1 
    12    5    6 ar
    13    5   18 1 
    14    6    7 ar
    15    6   19 1 
    16    7    8 ar
    17    7   20 1 
    18    8    9 1 
    19    9   12 ar
    20    9   13 ar
@<TRIPOS>SUBSTRUCTURE
1 MOL         1
@<TRIPOS>MOLECULE
query molecule
   20    20     1     0     0
SMALL
NO_CHARGE

@<TRIPOS>ATOM
      1 C          10.0744   34.1406   -2.5276 C.3       1 MOL     0.1362
      2 C           9.1025   33.4468   -3.4101 C.2       1 MOL     0.3092
      3 C          10.2041   33.5931   -5.5797 C.ar      1 MOL     0.1404
      4 C          11.0695   32.5340   -5.7537 C.ar      1 MOL     0.0468
      5 C          12.1718   32.5801   -6.5840 C.ar      1 MOL     0.0037
      6 C          12.4169   33.7432   -7.2728 C.ar      1 MOL     0.0009
      7 C          11.5841   34.8323   -7.1353 C.ar      1 MOL     0.0131
      8 C          10.4793   34.7474   -6.2867 C.ar      1 MOL     0.0397
      9 C           9.6238   35.9222   -6.1699 C.2       1 MOL     0.0752
     10 O           8.2048   32.6718   -2.9603 O.2       1 MOL    -0.2507
     11 O           9.1016   33.5914   -4.7687 O.3       1 MOL    -0.4254
     12 O           9.2741   36.3585   -5.0435 O.co2     1 MOL    -0.5445
     13 O           9.1642   36.5979   -7.2878 O.co2     1 MOL    -0.5445
     14 H           9.8818   33.8765   -1.5088 H         1 MOL     0.0342
     15 H           9.9719   35.1988   -2.6472 H         1 MOL     0.0342
     16 H          11.0684   33.8465   -2.7916 H         1 MOL     0.0342
     17 H          10.8837   31.6609   -5.2363 H         1 MOL     0.0654
     18 H          12.7942   31.7624   -6.6852 H         1 MOL     0.0619
     19 H          13.2343   33.8028   -7.9000 H         1 MOL     0.0618
     20 H          11.7746   35.7029   -7.6562 H         1 MOL     0.0625
@<TRIPOS>BOND
     1    1    2 1 
     2    1   14 1 
     3    1   15 1 
     4    1   16 1 
     5    2   10 2 
     6    2   11 1 
     7    3    4 ar
     8    3    8 ar
     9    3   11 1 
    10    4    5 ar
    11    4   17 1 
    12    5    6 ar
    13    5   18 1 
    14    6    7 ar
    15    6   19 1 
    16    7    8 ar
    17    7   20 1 
    18    8    9 1 
    19    9   12 ar
    20    9   13 ar
@<TRIPOS>SUBSTRUCTURE
1 MOL         1
@<TRIPOS>MOLECULE
query molecule
   20    20     1     0     0
SMALL
NO_CHARGE

@<TRIPOS>ATOM
      1 C          11.2397   31.0434   17.4745 C.3       1 MOL     0.1362
      2 C          12.5146   30.9569   16.7182 C.2       1 MOL     0.3092
      3 C          14.3889   32.5154   16.6975 C.ar      1 MOL     0.1404
      4 C          13.8908   33.7924   16.5483 C.ar      1 MOL     0.0468
      5 C          14.6277   34.8420   16.0364 C.ar      1 MOL     0.0037
      6 C          15.9256   34.5991   15.6571 C.ar      1 MOL     0.0009
      7 C          16.4731   33.3411   15.7843 C.ar      1 MOL     0.0131
      8 C          15.6969   32.3054   16.3065 C.ar      1 MOL     0.0397
      9 C          16.3145   30.9900   16.4242 C.2       1 MOL     0.0752
     10 O          12.5927   30.4212   15.5711 O.2       1 MOL    -0.2507
     11 O          13.6957   31.4474   17.1993 O.3       1 MOL    -0.4254
     12 O          16.9687   30.6718   17.4500 O.co2     1 MOL    -0.5445
     13 O          16.2073   30.0463   15.4164 O.co2     1 MOL    -0.5445
     14 H          10.4547   30.5962   16.9012 H         1 MOL     0.0342
     15 H          11.0047   32.0705   17.6604 H         1 MOL     0.0342
     16 H          11.3419   30.5267   18.4055 H         1 MOL     0.0342
     17 H          12.9161   33.9734   16.8343 H         1 MOL     0.0654
     18 H          14.2148   35.7836   15.9422 H         1 MOL     0.0619
     19 H          16.4973   35.3671   15.2718 H         1 MOL     0.0618
     20 H          17.4492   33.1662   15.4972 H         1 MOL     0.0625
@<TRIPOS>BOND
     1    1    2 1 
     2    1   14 1 
     3    1   15 1 
     4    1   16 1 
     5    2   10 2 
     6    2   11 1 
     7    3    4 ar
     8    3    8 ar
     9    3   11 1 
    10    4    5 ar
    11    4   17 1 
    12    5    6 ar
    13    5   18 1 
    14    6    7 ar
    15    6   19 1 
    16    7    8 ar
    17    7   20 1 
    18    8    9 1 
    19    9   12 ar
    20    9   13 ar
@<TRIPOS>SUBSTRUCTURE
1 MOL         1
@<TRIPOS>MOLECULE
query molecule
   20    20     1     0     0
SMALL
NO_CHARGE

@<TRIPOS>ATOM
      1 C          30.1255   11.3853   14.5252 C.3       1 MOL     0.1362
      2 C          29.2686   10.3658   13.8686 C.2       1 MOL     0.3092
      3 C          27.0882    9.3130   13.5866 C.ar      1 MOL     0.1404
      4 C          26.5877    9.4266   12.3069 C.ar      1 MOL     0.0468
      5 C          25.7187    8.5121   11.7453 C.ar      1 MOL     0.0037
      6 C          25.3345    7.4325   12.5031 C.ar      1 MOL     0.0009
      7 C          25.8043    7.2707   13.7882 C.ar      1 MOL     0.0131
      8 C          26.6817    8.2161   14.3213 C.ar      1 MOL     0.0397
      9 C          27.1551    8.0073   15.6844 C.2       1 MOL     0.0752
     10 O          29.7049    9.5835   12.9706 O.2       1 MOL    -0.2507
     11 O          27.9499   10.1937   14.1823 O.3       1 MOL    -0.4254
     12 O          28.2447    8.4999   16.0735 O.co2     1 MOL    -0.5445
     13 O          26.4287    7.2613   16.5973 O.co2     1 MOL    -0.5445
     14 H          31.1144   11.3336   14.1199 H         1 MOL     0.0342
     15 H          30.1612   11.1965   15.5776 H         1 MOL     0.0342
     16 H          29.7180   12.3589   14.3510 H         1 MOL     0.0342
     17 H          26.8779   10.2375   11.7388 H         1 MOL     0.0654
     18 H          25.3683    8.6359   10.7821 H         1 MOL     0.0619
     19 H          24.6859    6.7347   12.1060 H         1 MOL     0.0618
     20 H          25.5112    6.4568   14.3516 H         1 MOL     0.0625
@<TRIPOS>BOND
     1    1    2 1 
     2    1   14 1 
     3    1   15 1 
     4    1   16 1 
     5    2   10 2 
     6    2   11 1 
     7    3    4 ar
     8    3    8 ar
     9    3   11 1 
    10    4    5 ar
    11    4   17 1 
    12    5    6 ar
    13    5   18 1 
    14    6    7 ar
    15    6   19 1 
    16    7    8 ar
    17    7   20 1 
    18    8    9 1 
    19    9   12 ar
    20    9   13 ar
@<TRIPOS>SUBSTRUCTURE
1 MOL         1
@<TRIPOS>MOLECULE
query molecule
   20    20     1     0     0
SMALL
NO_CHARGE

@<TRIPOS>ATOM
      1 C          -0.2343    3.2851   10.1332 C.3       1 MOL     0.1362
      2 C           0.2334    2.9606   11.5046 C.2       1 MOL     0.3092
      3 C           1.4326    3.6005   13.5282 C.ar      1 MOL     0.1404
      4 C           0.6655    3.5999   14.6738 C.ar      1 MOL     0.0468
      5 C           1.1789    3.3629   15.9336 C.ar      1 MOL     0.0037
      6 C           2.5250    3.1140   16.0492 C.ar      1 MOL     0.0009
      7 C           3.3376    3.1032   14.9365 C.ar      1 MOL     0.0131
      8 C           2.7819    3.3469   13.6796 C.ar      1 MOL     0.0397
      9 C           3.6766    3.3264   12.5287 C.2       1 MOL     0.0752
     10 O          -0.0165    1.8512   12.0663 O.2       1 MOL    -0.2507
     11 O           0.9667    3.8300   12.2619 O.3       1 MOL    -0.4254
     12 O           3.9167    2.2554   11.9148 O.co2     1 MOL    -0.5445
     13 O           4.2947    4.4778   12.0707 O.co2     1 MOL    -0.5445
     14 H          -0.7851    2.4565    9.7396 H         1 MOL     0.0342
     15 H           0.6098    3.4822    9.5062 H         1 MOL     0.0342
     16 H          -0.8636    4.1495   10.1665 H         1 MOL     0.0342
     17 H          -0.3454    3.7863   14.5853 H         1 MOL     0.0654
     18 H           0.5675    3.3715   16.7656 H         1 MOL     0.0619
     19 H           2.9329    2.9336   16.9799 H         1 MOL     0.0618
     20 H           4.3483    2.9153   15.0312 H         1 MOL     0.0625
@<TRIPOS>BOND
     1    1    2 1 
     2    1   14 1 
     3    1   15 1 
     4    1   16 1 
     5    2   10 2 
     6    2   11 1 
     7    3    4 ar
     8    3    8 ar
     9    3   11 1 
    10    4    5 ar
    11    4   17 1 
    12    5    6 ar
    13    5   18 1 
    14    6    7 ar
    15    6   19 1 
    16    7    8 ar
    17    7   20 1 
    18    8    9 1 
    19    9   12 ar
    20    9   13 ar
@<TRIPOS>SUBSTRUCTURE
1 MOL         1
@<TRIPOS>MOLECULE
query molecule
   20    20     1     0     0
SMALL
NO_CHARGE

@<TRIPOS>ATOM
      1 C          22.3005   32.7886  -11.1585 C.3       1 MOL     0.1362
      2 C          22.6980   33.2399  -12.5161 C.2       1 MOL     0.3092
      3 C          24.4135   33.4784  -14.2314 C.ar      1 MOL     0.1404
      4 C          24.1873   32.9338  -15.4776 C.ar      1 MOL     0.0468
      5 C          24.6967   33.4666  -16.6452 C.ar      1 MOL     0.0037
      6 C          25.4688   34.5996  -16.5584 C.ar      1 MOL     0.0009
      7 C          25.7267   35.1847  -15.3379 C.ar      1 MOL     0.0131
      8 C          25.1938   34.6171  -14.1796 C.ar      1 MOL     0.0397
      9 C          25.4908   35.2674  -12.9089 C.2       1 MOL     0.0752
     10 O          21.9189   33.8952  -13.2727 O.2       1 MOL    -0.2507
     11 O          23.9294   32.9847  -13.0503 O.3       1 MOL    -0.4254
     12 O          25.2993   36.5005  -12.7528 O.co2     1 MOL    -0.5445
     13 O          25.9942   34.5575  -11.8318 O.co2     1 MOL    -0.5445
     14 H          21.2976   33.1032  -10.9582 H         1 MOL     0.0342
     15 H          22.9601   33.2171  -10.4333 H         1 MOL     0.0342
     16 H          22.3579   31.7217  -11.1066 H         1 MOL     0.0342
     17 H          23.6066   32.0833  -15.5412 H         1 MOL     0.0654
     18 H          24.5018   33.0260  -17.5585 H         1 MOL     0.0619
     19 H          25.8609   35.0174  -17.4168 H         1 MOL     0.0618
     20 H          26.3076   36.0361  -15.2806 H         1 MOL     0.0625
@<TRIPOS>BOND
     1    1    2 1 
     2    1   14 1 
     3    1   15 1 
     4    1   16 1 
     5    2   10 2 
     6    2   11 1 
     7    3    4 ar
     8    3    8 ar
     9    3   11 1 
    10    4    5 ar
    11    4   17 1 
    12    5    6 ar
    13    5   18 1 
    14    6    7 ar
    15    6   19 1 
    16    7    8 ar
    17    7   20 1 
    18    8    9 1 
    19    9   12 ar
    20    9   13 ar
@<TRIPOS>SUBSTRUCTURE
1 MOL         1
@<TRIPOS>MOLECULE
query molecule
   20    20     1     0     0
SMALL
NO_CHARGE

@<TRIPOS>ATOM
      1 C          21.3687   25.9087  -10.2776 C.3       1 MOL     0.1362
      2 C          20.7230   25.4096   -9.0371 C.2       1 MOL     0.3092
      3 C          20.4905   27.0329   -7.2334 C.ar      1 MOL     0.1404
      4 C          21.6364   27.7926   -7.3378 C.ar      1 MOL     0.0468
      5 C          22.1040   28.6079   -6.3262 C.ar      1 MOL     0.0037
      6 C          21.3879   28.6642   -5.1551 C.ar      1 MOL     0.0009
      7 C          20.2359   27.9250   -4.9975 C.ar      1 MOL     0.0131
      8 C          19.7945   27.1125   -6.0429 C.ar      1 MOL     0.0397
      9 C          18.5711   26.3471   -5.8350 C.2       1 MOL     0.0752
     10 O          20.8087   24.2011   -8.6618 O.2       1 MOL    -0.2507
     11 O          19.9911   26.2127   -8.2086 O.3       1 MOL    -0.4254
     12 O          17.6934   26.2736   -6.7326 O.co2     1 MOL    -0.5445
     13 O          18.3287   25.6770   -4.6476 O.co2     1 MOL    -0.5445
     14 H          21.8844   25.1042  -10.7589 H         1 MOL     0.0342
     15 H          22.0657   26.6817  -10.0303 H         1 MOL     0.0342
     16 H          20.6214   26.2993  -10.9359 H         1 MOL     0.0342
     17 H          22.1726   27.7498   -8.2182 H         1 MOL     0.0654
     18 H          22.9676   29.1607   -6.4471 H         1 MOL     0.0619
     19 H          21.7165   29.2664   -4.3841 H         1 MOL     0.0618
     20 H          19.7030   27.9725   -4.1146 H         1 MOL     0.0625
@<TRIPOS>BOND
     1    1    2 1 
     2    1   14 1 
     3    1   15 1 
     4    1   16 1 
     5    2   10 2 
     6    2   11 1 
     7    3    4 ar
     8    3    8 ar
     9    3   11 1 
    10    4    5 ar
    11    4   17 1 
    12    5    6 ar
    13    5   18 1 
    14    6    7 ar
    15    6   19 1 
    16    7    8 ar
    17    7   20 1 
    18    8    9 1 
    19    9   12 ar
    20    9   13 ar
@<TRIPOS>SUBSTRUCTURE
1 MOL         1
@<TRIPOS>MOLECULE
query molecule
   20    20     1     0     0
SMALL
NO_CHARGE

@<TRIPOS>ATOM
      1 C          21.1128   38.1735   -2.8481 C.3       1 MOL     0.1362
      2 C          20.8743   36.7858   -3.3195 C.2       1 MOL     0.3092
      3 C          19.3662   34.8953   -3.6263 C.ar      1 MOL     0.1404
      4 C          19.7700   33.7547   -2.9653 C.ar      1 MOL     0.0468
      5 C          19.4566   32.4782   -3.3887 C.ar      1 MOL     0.0037
      6 C          18.7020   32.3398   -4.5283 C.ar      1 MOL     0.0009
      7 C          18.2726   33.4465   -5.2278 C.ar      1 MOL     0.0131
      8 C          18.6091   34.7207   -4.7684 C.ar      1 MOL     0.0397
      9 C          18.1348   35.8647   -5.5378 C.2       1 MOL     0.0752
     10 O          21.7910   36.0697   -3.8251 O.2       1 MOL    -0.2507
     11 O          19.6532   36.1775   -3.2432 O.3       1 MOL    -0.4254
     12 O          18.6413   37.0050   -5.3807 O.co2     1 MOL    -0.5445
     13 O          17.1129   35.7414   -6.4642 O.co2     1 MOL    -0.5445
     14 H          22.1387   38.4323   -3.0079 H         1 MOL     0.0342
     15 H          20.8870   38.2391   -1.8045 H         1 MOL     0.0342
     16 H          20.4850   38.8475   -3.3921 H         1 MOL     0.0342
     17 H          20.3359   33.8603   -2.1092 H         1 MOL     0.0654
     18 H          19.7797   31.6507   -2.8625 H         1 MOL     0.0619
     19 H          18.4542   31.3963   -4.8653 H         1 MOL     0.0618
     20 H          17.7057   33.3346   -6.0833 H         1 MOL     0.0625
@<TRIPOS>BOND
     1    1    2 1 
     2    1   14 1 
     3    1   15 1 
     4    1   16 1 
     5    2   10 2 
     6    2   11 1 
     7    3    4 ar
     8    3    8 ar
     9    3   11 1 
    10    4    5 ar
    11    4   17 1 
    12    5    6 ar
    13    5   18 1 
    14    6    7 ar
    15    6   19 1 
    16    7    8 ar
    17    7   20 1 
    18    8    9 1 
    19    9   12 ar
    20    9   13 ar
@<TRIPOS>SUBSTRUCTURE
1 MOL         1
@<TRIPOS>MOLECULE
query molecule
   20    20     1     0     0
SMALL
NO_CHARGE

@<TRIPOS>ATOM
      1 C          -6.1787   30.4337   -9.9651 C.3       1 MOL     0.1362
      2 C          -7.2645   31.1451  -10.6861 C.2       1 MOL     0.3092
      3 C          -7.7675   32.7241   -8.8983 C.ar      1 MOL     0.1404
      4 C          -8.3204   32.1700   -7.7633 C.ar      1 MOL     0.0468
      5 C          -8.1530   32.6989   -6.4988 C.ar      1 MOL     0.0037
      6 C          -7.3947   33.8369   -6.3668 C.ar      1 MOL     0.0009
      7 C          -6.8195   34.4319   -7.4684 C.ar      1 MOL     0.0131
      8 C          -7.0109   33.8676   -8.7305 C.ar      1 MOL     0.0397
      9 C          -6.3850   34.5285   -9.8694 C.2       1 MOL     0.0752
     10 O          -7.6702   30.7877  -11.8334 O.2       1 MOL    -0.2507
     11 O          -7.9069   32.2344  -10.1687 O.3       1 MOL    -0.4254
     12 O          -6.2378   33.9287  -10.9648 O.co2     1 MOL    -0.5445
     13 O          -5.9293   35.8337   -9.7891 O.co2     1 MOL    -0.5445
     14 H          -5.8303   29.6172  -10.5624 H         1 MOL     0.0342
     15 H          -6.5534   30.0607   -9.0351 H         1 MOL     0.0342
     16 H          -5.3716   31.1106   -9.7789 H         1 MOL     0.0342
     17 H          -8.8890   31.3150   -7.8640 H         1 MOL     0.0654
     18 H          -8.5852   32.2509   -5.6751 H         1 MOL     0.0619
     19 H          -7.2545   34.2516   -5.4322 H         1 MOL     0.0618
     20 H          -6.2509   35.2868   -7.3614 H         1 MOL     0.0625
@<TRIPOS>BOND
     1    1    2 1 
     2    1   14 1 
     3    1   15 1 
     4    1   16 1 
     5    2   10 2 
     6    2   11 1 
     7    3    4 ar
     8    3    8 ar
     9    3   11 1 
    10    4    5 ar
    11    4   17 1 
    12    5    6 ar
    13    5   18 1 
    14    6    7 ar
    15    6   19 1 
    16    7    8 ar
    17    7   20 1 
    18    8    9 1 
    19    9   12 ar
    20    9   13 ar
@<TRIPOS>SUBSTRUCTURE
1 MOL         1
@<TRIPOS>MOLECULE
query molecule
   20    20     1     0     0
SMALL
NO_CHARGE

@<TRIPOS>ATOM
      1 C          24.4695    5.1215  -12.7354 C.3       1 MOL     0.1362
      2 C          24.1410    6.5695  -12.7279 C.2       1 MOL     0.3092
      3 C          25.0801    8.7827  -12.3253 C.ar      1 MOL     0.1404
      4 C          24.4757    9.9075  -12.8454 C.ar      1 MOL     0.0468
      5 C          24.4983   11.1402  -12.2237 C.ar      1 MOL     0.0037
      6 C          25.1578   11.2494  -11.0235 C.ar      1 MOL     0.0009
      7 C          25.7794   10.1569  -10.4592 C.ar      1 MOL     0.0131
      8 C          25.7345    8.9270  -11.1174 C.ar      1 MOL     0.0397
      9 C          26.4050    7.7967  -10.4862 C.2       1 MOL     0.0752
     10 O          22.9608    7.0007  -12.5544 O.2       1 MOL    -0.2507
     11 O          25.0827    7.5434  -12.9060 O.3       1 MOL    -0.4254
     12 O          27.1883    7.0617  -11.1400 O.co2     1 MOL    -0.5445
     13 O          26.2050    7.4892   -9.1509 O.co2     1 MOL    -0.5445
     14 H          23.5770    4.5531  -12.5765 H         1 MOL     0.0342
     15 H          25.1699    4.9110  -11.9545 H         1 MOL     0.0342
     16 H          24.8980    4.8581  -13.6794 H         1 MOL     0.0342
     17 H          23.9801    9.8237  -13.7465 H         1 MOL     0.0654
     18 H          24.0315   11.9572  -12.6489 H         1 MOL     0.0619
     19 H          25.1888   12.1601  -10.5388 H         1 MOL     0.0618
     20 H          26.2730   10.2466   -9.5569 H         1 MOL     0.0625
@<TRIPOS>BOND
     1    1    2 1 
     2    1   14 1 
     3    1   15 1 
     4    1   16 1 
     5    2   10 2 
     6    2   11 1 
     7    3    4 ar
     8    3    8 ar
     9    3   11 1 
    10    4    5 ar
    11    4   17 1 
    12    5    6 ar
    13    5   18 1 
    14    6    7 ar
    15    6   19 1 
    16    7    8 ar
    17    7   20 1 
    18    8    9 1 
    19    9   12 ar
    20    9   13 ar
@<TRIPOS>SUBSTRUCTURE
1 MOL         1
@<TRIPOS>MOLECULE
query molecule
   20    20     1     0     0
SMALL
NO_CHARGE

@<TRIPOS>ATOM
      1 C          13.0797   14.5643    6.1726 C.3       1 MOL     0.1362
      2 C          11.9493   14.4513    5.2164 C.2       1 MOL     0.3092
      3 C          12.5876   16.2171    3.6618 C.ar      1 MOL     0.1404
      4 C          11.9938   17.4609    3.6271 C.ar      1 MOL     0.0468
      5 C          12.6694   18.6180    3.2934 C.ar      1 MOL     0.0037
      6 C          14.0037   18.5228    2.9806 C.ar      1 MOL     0.0009
      7 C          14.6465   17.3042    2.9993 C.ar      1 MOL     0.0131
      8 C          13.9300   16.1566    3.3420 C.ar      1 MOL     0.0397
      9 C          14.6479   14.8876    3.3495 C.2       1 MOL     0.0752
     10 O          10.8968   13.7938    5.4786 O.2       1 MOL    -0.2507
     11 O          11.9576   15.0463    3.9864 O.3       1 MOL    -0.4254
     12 O          14.1167   13.8464    3.8134 O.co2     1 MOL    -0.5445
     13 O          15.9355   14.7805    2.8512 O.co2     1 MOL    -0.5445
     14 H          12.8477   14.0198    7.0640 H         1 MOL     0.0342
     15 H          13.2397   15.5939    6.4152 H         1 MOL     0.0342
     16 H          13.9647   14.1610    5.7272 H         1 MOL     0.0342
     17 H          10.9918   17.5309    3.8629 H         1 MOL     0.0654
     18 H          12.1851   19.5299    3.2803 H         1 MOL     0.0619
     19 H          14.5311   19.3733    2.7282 H         1 MOL     0.0618
     20 H          15.6495   17.2405    2.7632 H         1 MOL     0.0625
@<TRIPOS>BOND
     1    1    2 1 
     2    1   14 1 
     3    1   15 1 
     4    1   16 1 
     5    2   10 2 
     6    2   11 1 
     7    3    4 ar
     8    3    8 ar
     9    3   11 1 
    10    4    5 ar
    11    4   17 1 
    12    5    6 ar
    13    5   18 1 
    14    6    7 ar
    15    6   19 1 
    16    7    8 ar
    17    7   20 1 
    18    8    9 1 
    19    9   12 ar
    20    9   13 ar
@<TRIPOS>SUBSTRUCTURE
1 MOL         1
@<TRIPOS>MOLECULE
query molecule
   20    20     1     0     0
SMALL
NO_CHARGE

@<TRIPOS>ATOM
      1 C           1.4234   32.7557   -0.6277 C.3       1 MOL     0.1362
      2 C           0.8066   32.5685   -1.9654 C.2       1 MOL     0.3092
      3 C           1.0662   31.1431   -3.9257 C.ar      1 MOL     0.1404
      4 C           2.0361   31.8010   -4.6519 C.ar      1 MOL     0.0468
      5 C           2.2922   31.5475   -5.9849 C.ar      1 MOL     0.0037
      6 C           1.5403   30.5882   -6.6189 C.ar      1 MOL     0.0009
      7 C           0.5577   29.9009   -5.9403 C.ar      1 MOL     0.0131
      8 C           0.3284   30.1848   -4.5932 C.ar      1 MOL     0.0397
      9 C          -0.7204   29.4349   -3.9125 C.2       1 MOL     0.0752
     10 O           0.2634   33.5192   -2.6055 O.2       1 MOL    -0.2507
     11 O           0.7789   31.3617   -2.6056 O.3       1 MOL    -0.4254
     12 O          -1.9319   29.6088   -4.2017 O.co2     1 MOL    -0.5445
     13 O          -0.4254   28.5092   -2.9257 O.co2     1 MOL    -0.5445
     14 H           1.3261   33.7792   -0.3310 H         1 MOL     0.0342
     15 H           2.4599   32.4948   -0.6736 H         1 MOL     0.0342
     16 H           0.9287   32.1285    0.0837 H         1 MOL     0.0342
     17 H           2.6004   32.5206   -4.1742 H         1 MOL     0.0654
     18 H           3.0292   32.0640   -6.4909 H         1 MOL     0.0619
     19 H           1.7126   30.3800   -7.6149 H         1 MOL     0.0618
     20 H          -0.0032   29.1813   -6.4233 H         1 MOL     0.0625
@<TRIPOS>BOND
     1    1    2 1 
     2    1   14 1 
     3    1   15 1 
     4    1   16 1 
     5    2   10 2 
     6    2   11 1 
     7    3    4 ar
     8    3    8 ar
     9    3   11 1 
    10    4    5 ar
    11    4   17 1 
    12    5    6 ar
    13    5   18 1 
    14    6    7 ar
    15    6   19 1 
    16    7    8 ar
    17    7   20 1 
    18    8    9 1 
    19    9   12 ar
    20    9   13 ar
@<TRIPOS>SUBSTRUCTURE
1 MOL         1
@<TRIPOS>MOLECULE
query molecule
   20    20     1     0     0
SMALL
NO_CHARGE

@<TRIPOS>ATOM
      1 C           6.6824   25.9253   -8.8337 C.3       1 MOL     0.1362
      2 C           7.9430   26.6285   -8.4856 C.2       1 MOL     0.3092
      3 C           9.6884   27.1081   -6.8529 C.ar      1 MOL     0.1404
      4 C           9.6785   28.4698   -6.6369 C.ar      1 MOL     0.0468
      5 C          10.7618   29.1705   -6.1447 C.ar      1 MOL     0.0037
      6 C          11.9087   28.4720   -5.8549 C.ar      1 MOL     0.0009
      7 C          11.9730   27.1099   -6.0525 C.ar      1 MOL     0.0131
      8 C          10.8571   26.4363   -6.5513 C.ar      1 MOL     0.0397
      9 C          10.9672   24.9955   -6.7456 C.2       1 MOL     0.0752
     10 O           8.4582   27.5154   -9.2317 O.2       1 MOL    -0.2507
     11 O           8.6400   26.3744   -7.3381 O.3       1 MOL    -0.4254
     12 O          11.5202   24.5212   -7.7706 O.co2     1 MOL    -0.5445
     13 O          10.4685   24.0988   -5.8156 O.co2     1 MOL    -0.5445
     14 H           6.3196   26.2888   -9.7725 H         1 MOL     0.0342
     15 H           5.9512   26.1075   -8.0742 H         1 MOL     0.0342
     16 H           6.8685   24.8743   -8.9049 H         1 MOL     0.0342
     17 H           8.8161   28.9929   -6.8543 H         1 MOL     0.0654
     18 H          10.7107   30.1912   -5.9976 H         1 MOL     0.0619
     19 H          12.7321   28.9728   -5.4856 H         1 MOL     0.0618
     20 H          12.8383   26.5917   -5.8323 H         1 MOL     0.0625
@<TRIPOS>BOND
     1    1    2 1 
     2    1   14 1 
     3    1   15 1 
     4    1   16 1 
     5    2   10 2 
     6    2   11 1 
     7    3    4 ar
     8    3    8 ar
     9    3   11 1 
    10    4    5 ar
    11    4   17 1 
    12    5    6 ar
    13    5   18 1 
    14    6    7 ar
    15    6   19 1 
    16    7    8 ar
    17    7   20 1 
    18    8    9 1 
    19    9   12 ar
    20    9   13 ar
@<TRIPOS>SUBSTRUCTURE
1 MOL         1
@<TRIPOS>MOLECULE
query molecule
   20    20     1     0     0
SMALL
NO_CHARGE

@<TRIPOS>ATOM
      1 C          24.9322   13.6811    0.7570 C.3       1 MOL     0.1362
      2 C          25.7898   13.7410    1.9676 C.2       1 MOL     0.3092
      3 C          27.8459   13.1167    3.1186 C.ar      1 MOL     0.1404
      4 C          28.5660   14.1521    3.6757 C.ar      1 MOL     0.0468
      5 C          29.3592   14.0109    4.7971 C.ar      1 MOL     0.0037
      6 C          29.4328   12.7727    5.3878 C.ar      1 MOL     0.0009
      7 C          28.7339   11.7033    4.8718 C.ar      1 MOL     0.0131
      8 C          27.9422   11.8852    3.7369 C.ar      1 MOL     0.0397
      9 C          27.2192   10.7279    3.2235 C.2       1 MOL     0.0752
     10 O          25.4098   14.2887    3.0467 O.2       1 MOL    -0.2507
     11 O          27.0486   13.2114    2.0103 O.3       1 MOL    -0.4254
     12 O          27.8338    9.7051    2.8263 O.co2     1 MOL    -0.5445
     13 O          25.8364   10.7107    3.1516 O.co2     1 MOL    -0.5445
     14 H          23.9959   14.1577    0.9600 H         1 MOL     0.0342
     15 H          24.7618   12.6589    0.4913 H         1 MOL     0.0342
     16 H          25.4212   14.1831   -0.0513 H         1 MOL     0.0342
     17 H          28.5091   15.0815    3.2313 H         1 MOL     0.0654
     18 H          29.8818   14.8141    5.1816 H         1 MOL     0.0619
     19 H          30.0187   12.6414    6.2272 H         1 MOL     0.0618
     20 H          28.7940   10.7758    5.3212 H         1 MOL     0.0625
@<TRIPOS>BOND
     1    1    2 1 
     2    1   14 1 
     3    1   15 1 
     4    1   16 1 
     5    2   10 2 
     6    2   11 1 
     7    3    4 ar
     8    3    8 ar
     9    3   11 1 
    10    4    5 ar
    11    4   17 1 
    12    5    6 ar
    13    5   18 1 
    14    6    7 ar
    15    6   19 1 
    16    7    8 ar
    17    7   20 1 
    18    8    9 1 
    19    9   12 ar
    20    9   13 ar
@<TRIPOS>SUBSTRUCTURE
1 MOL         1
@<TRIPOS>MOLECULE
query molecule
   20    20     1     0     0
SMALL
NO_CHARGE

@<TRIPOS>ATOM
      1 C          27.6023   32.9508    0.5906 C.3       1 MOL     0.1362
      2 C          28.0604   32.3753   -0.6993 C.2       1 MOL     0.3092
      3 C          27.7746   30.0441   -0.0465 C.ar      1 MOL     0.1404
      4 C          26.4956   29.5578    0.1230 C.ar      1 MOL     0.0468
      5 C          26.1733   28.5602    1.0217 C.ar      1 MOL     0.0037
      6 C          27.1818   28.0248    1.7856 C.ar      1 MOL     0.0009
      7 C          28.4779   28.4743    1.6568 C.ar      1 MOL     0.0131
      8 C          28.7648   29.4842    0.7372 C.ar      1 MOL     0.0397
      9 C          30.1487   29.9308    0.6323 C.2       1 MOL     0.0752
     10 O          28.4118   33.0963   -1.6818 O.2       1 MOL    -0.2507
     11 O          28.1386   31.0297   -0.9235 O.3       1 MOL    -0.4254
     12 O          31.0326   29.1874    0.1348 O.co2     1 MOL    -0.5445
     13 O          30.5417   31.1825    1.0756 O.co2     1 MOL    -0.5445
     14 H          27.6254   34.0189    0.5320 H         1 MOL     0.0342
     15 H          28.2493   32.6228    1.3769 H         1 MOL     0.0342
     16 H          26.6034   32.6251    0.7913 H         1 MOL     0.0342
     17 H          25.7394   29.9604   -0.4520 H         1 MOL     0.0654
     18 H          25.2012   28.2252    1.1160 H         1 MOL     0.0619
     19 H          26.9667   27.2777    2.4644 H         1 MOL     0.0618
     20 H          29.2305   28.0671    2.2342 H         1 MOL     0.0625
@<TRIPOS>BOND
     1    1    2 1 
     2    1   14 1 
     3    1   15 1 
     4    1   16 1 
     5    2   10 2 
     6    2   11 1 
     7    3    4 ar
     8    3    8 ar
     9    3   11 1 
    10    4    5 ar
    11    4   17 1 
    12    5    6 ar
    13    5   18 1 
    14    6    7 ar
    15    6   19 1 
    16    7    8 ar
    17    7   20 1 
    18    8    9 1 
    19    9   12 ar
    20    9   13 ar
@<TRIPOS>SUBSTRUCTURE
1 MOL         1
@<TRIPOS>MOLECULE
query molecule
   20    20     1     0     0
SMALL
NO_CHARGE

@<TRIPOS>ATOM
      1 C          25.7451   12.9358    8.7795 C.3       1 MOL     0.1362
      2 C          25.8404   13.9078    7.6610 C.2       1 MOL     0.3092
      3 C          25.5266   16.1677    6.8028 C.ar      1 MOL     0.1404
      4 C          24.6617   16.3367    5.7425 C.ar      1 MOL     0.0468
      5 C          24.8087   17.3258    4.7903 C.ar      1 MOL     0.0037
      6 C          25.8732   18.1863    4.9078 C.ar      1 MOL     0.0009
      7 C          26.7682   18.0618    5.9480 C.ar      1 MOL     0.0131
      8 C          26.5862   17.0495    6.8914 C.ar      1 MOL     0.0397
      9 C          27.5558   16.9528    7.9759 C.2       1 MOL     0.0752
     10 O          26.3197   13.5994    6.5279 O.2       1 MOL    -0.2507
     11 O          25.4194   15.2032    7.7679 O.3       1 MOL    -0.4254
     12 O          27.1955   17.0516    9.1767 O.co2     1 MOL    -0.5445
     13 O          28.9032   16.7517    7.7274 O.co2     1 MOL    -0.5445
     14 H          26.1331   11.9901    8.4633 H         1 MOL     0.0342
     15 H          24.7208   12.8227    9.0669 H         1 MOL     0.0342
     16 H          26.3119   13.2946    9.6127 H         1 MOL     0.0342
     17 H          23.8623   15.6902    5.6560 H         1 MOL     0.0654
     18 H          24.1365   17.4167    4.0119 H         1 MOL     0.0619
     19 H          26.0049   18.9342    4.2090 H         1 MOL     0.0618
     20 H          27.5657   18.7122    6.0298 H         1 MOL     0.0625
@<TRIPOS>BOND
     1    1    2 1 
     2    1   14 1 
     3    1   15 1 
     4    1   16 1 
     5    2   10 2 
     6    2   11 1 
     7    3    4 ar
     8    3    8 ar
     9    3   11 1 
    10    4    5 ar
    11    4   17 1 
    12    5    6 ar
    13    5   18 1 
    14    6    7 ar
    15    6   19 1 
    16    7    8 ar
    17    7   20 1 
    18    8    9 1 
    19    9   12 ar
    20    9   13 ar
@<TRIPOS>SUBSTRUCTURE
1 MOL         1
@<TRIPOS>MOLECULE
query molecule
   20    20     1     0     0
SMALL
NO_CHARGE

@<TRIPOS>ATOM
      1 C          14.5143   35.2758    4.2575 C.3       1 MOL     0.1362
      2 C          13.7973   34.3404    3.3542 C.2       1 MOL     0.3092
      3 C          13.8585   32.5706    1.6791 C.ar      1 MOL     0.1404
      4 C          13.2518   31.4127    2.1175 C.ar      1 MOL     0.0468
      5 C          12.6720   30.4892    1.2703 C.ar      1 MOL     0.0037
      6 C          12.7017   30.7396   -0.0802 C.ar      1 MOL     0.0009
      7 C          13.2957   31.8814   -0.5722 C.ar      1 MOL     0.0131
      8 C          13.8710   32.7917    0.3156 C.ar      1 MOL     0.0397
      9 C          14.4890   33.9867   -0.2463 C.2       1 MOL     0.0752
     10 O          12.5325   34.2484    3.3315 O.2       1 MOL    -0.2507
     11 O          14.4444   33.5118    2.4815 O.3       1 MOL    -0.4254
     12 O          14.4563   34.2114   -1.4832 O.co2     1 MOL    -0.5445
     13 O          15.1338   34.9140    0.5549 O.co2     1 MOL    -0.5445
     14 H          13.8034   35.8189    4.8444 H         1 MOL     0.0342
     15 H          15.0930   35.9611    3.6743 H         1 MOL     0.0342
     16 H          15.1622   34.7213    4.9033 H         1 MOL     0.0342
     17 H          13.2296   31.2264    3.1320 H         1 MOL     0.0654
     18 H          12.2276   29.6345    1.6417 H         1 MOL     0.0619
     19 H          12.2749   30.0649   -0.7342 H         1 MOL     0.0618
     20 H          13.3140   32.0628   -1.5883 H         1 MOL     0.0625
@<TRIPOS>BOND
     1    1    2 1 
     2    1   14 1 
     3    1   15 1 
     4    1   16 1 
     5    2   10 2 
     6    2   11 1 
     7    3    4 ar
     8    3    8 ar
     9    3   11 1 
    10    4    5 ar
    11    4   17 1 
    12    5    6 ar
    13    5   18 1 
    14    6    7 ar
    15    6   19 1 
    16    7    8 ar
    17    7   20 1 
    18    8    9 1 
    19    9   12 ar
    20    9   13 ar
@<TRIPOS>SUBSTRUCTURE
1 MOL         1
@<TRIPOS>MOLECULE
query molecule
   20    20     1     0     0
SMALL
NO_CHARGE

@<TRIPOS>ATOM
      1 C          19.2511   31.4505  -16.2464 C.3       1 MOL     0.1362
      2 C          17.9051   30.8679  -16.0151 C.2       1 MOL     0.3092
      3 C          16.4453   29.3665  -14.7671 C.ar      1 MOL     0.1404
      4 C          15.4416   29.9442  -14.0188 C.ar      1 MOL     0.0468
      5 C          14.2319   29.3291  -13.7638 C.ar      1 MOL     0.0037
      6 C          14.0190   28.0758  -14.2848 C.ar      1 MOL     0.0009
      7 C          14.9887   27.4524  -15.0395 C.ar      1 MOL     0.0131
      8 C          16.1988   28.1062  -15.2760 C.ar      1 MOL     0.0397
      9 C          17.1977   27.4115  -16.0792 C.2       1 MOL     0.0752
     10 O          16.8924   31.1940  -16.7056 O.2       1 MOL    -0.2507
     11 O          17.6573   29.9387  -15.0444 O.3       1 MOL    -0.4254
     12 O          18.3335   27.1443  -15.6101 O.co2     1 MOL    -0.5445
     13 O          16.9370   27.0231  -17.3826 O.co2     1 MOL    -0.5445
     14 H          19.2019   32.1507  -17.0540 H         1 MOL     0.0342
     15 H          19.9397   30.6698  -16.4930 H         1 MOL     0.0342
     16 H          19.5805   31.9498  -15.3596 H         1 MOL     0.0342
     17 H          15.6028   30.8857  -13.6289 H         1 MOL     0.0654
     18 H          13.5071   29.7986  -13.1980 H         1 MOL     0.0619
     19 H          13.1229   27.5951  -14.1087 H         1 MOL     0.0618
     20 H          14.8214   26.5106  -15.4278 H         1 MOL     0.0625
@<TRIPOS>BOND
     1    1    2 1 
     2    1   14 1 
     3    1   15 1 
     4    1   16 1 
     5    2   10 2 
     6    2   11 1 
     7    3    4 ar
     8    3    8 ar
     9    3   11 1 
    10    4    5 ar
    11    4   17 1 
    12    5    6 ar
    13    5   18 1 
    14    6    7 ar
    15    6   19 1 
    16    7    8 ar
    17    7   20 1 
    18    8    9 1 
    19    9   12 ar
    20    9   13 ar
@<TRIPOS>SUBSTRUCTURE
1 MOL         1
@<TRIPOS>MOLECULE
query molecule
   20    20     1     0     0
SMALL
NO_CHARGE

@<TRIPOS>ATOM
      1 C          19.7143   11.8485   10.9958 C.3       1 MOL     0.1362
      2 C          19.5219   10.3839   11.1464 C.2       1 MOL     0.3092
      3 C          20.3383    8.2294   11.9426 C.ar      1 MOL     0.1404
      4 C          19.8177    7.7217   13.1140 C.ar      1 MOL     0.0468
      5 C          19.6863    6.3704   13.3659 C.ar      1 MOL     0.0037
      6 C          20.0956    5.4870   12.3967 C.ar      1 MOL     0.0009
      7 C          20.6236    5.9407   11.2076 C.ar      1 MOL     0.0131
      8 C          20.7403    7.3142   10.9892 C.ar      1 MOL     0.0397
      9 C          21.3040    7.7519    9.7179 C.2       1 MOL     0.0752
     10 O          18.4462    9.7992   10.8150 O.2       1 MOL    -0.2507
     11 O          20.4866    9.5583   11.6511 O.3       1 MOL    -0.4254
     12 O          22.2892    8.5326    9.6815 O.co2     1 MOL    -0.5445
     13 O          20.7785    7.3292    8.5084 O.co2     1 MOL    -0.5445
     14 H          18.8287   12.2831   10.5814 H         1 MOL     0.0342
     15 H          20.5415   12.0339   10.3431 H         1 MOL     0.0342
     16 H          19.9114   12.2824   11.9535 H         1 MOL     0.0342
     17 H          19.5100    8.3864   13.8406 H         1 MOL     0.0654
     18 H          19.2902    6.0333   14.2579 H         1 MOL     0.0619
     19 H          20.0075    4.4719   12.5608 H         1 MOL     0.0618
     20 H          20.9289    5.2709   10.4838 H         1 MOL     0.0625
@<TRIPOS>BOND
     1    1    2 1 
     2    1   14 1 
     3    1   15 1 
     4    1   16 1 
     5    2   10 2 
     6    2   11 1 
     7    3    4 ar
     8    3    8 ar
     9    3   11 1 
    10    4    5 ar
    11    4   17 1 
    12    5    6 ar
    13    5   18 1 
    14    6    7 ar
    15    6   19 1 
    16    7    8 ar
    17    7   20 1 
    18    8    9 1 
    19    9   12 ar
    20    9   13 ar
@<TRIPOS>SUBSTRUCTURE
1 MOL         1
@<TRIPOS>MOLECULE
query molecule
   20    20     1     0     0
SMALL
NO_CHARGE

@<TRIPOS>ATOM
      1 C          -4.3467   15.8916    8.9935 C.3       1 MOL     0.1362
      2 C          -4.9189   16.6929   10.1050 C.2       1 MOL     0.3092
      3 C          -4.6047   17.3485   12.4317 C.ar      1 MOL     0.1404
      4 C          -5.1799   18.5061   12.9114 C.ar      1 MOL     0.0468
      5 C          -5.6073   18.6601   14.2154 C.ar      1 MOL     0.0037
      6 C          -5.4508   17.6027   15.0784 C.ar      1 MOL     0.0009
      7 C          -4.8814   16.4229   14.6513 C.ar      1 MOL     0.0131
      8 C          -4.4620   16.3050   13.3254 C.ar      1 MOL     0.0397
      9 C          -3.8648   15.0400   12.9145 C.2       1 MOL     0.0752
     10 O          -6.1471   17.0047   10.1596 O.2       1 MOL    -0.2507
     11 O          -4.1676   17.1524   11.1497 O.3       1 MOL    -0.4254
     12 O          -4.5139   14.2114   12.2263 O.co2     1 MOL    -0.5445
     13 O          -2.5684   14.7028   13.2656 O.co2     1 MOL    -0.5445
     14 H          -5.1206   15.6460    8.2966 H         1 MOL     0.0342
     15 H          -3.9213   14.9916    9.3854 H         1 MOL     0.0342
     16 H          -3.5870   16.4595    8.4991 H         1 MOL     0.0342
     17 H          -5.2975   19.2990   12.2618 H         1 MOL     0.0654
     18 H          -6.0337   19.5453   14.5327 H         1 MOL     0.0619
     19 H          -5.7625   17.6927   16.0581 H         1 MOL     0.0618
     20 H          -4.7672   15.6326   15.3056 H         1 MOL     0.0625
@<TRIPOS>BOND
     1    1    2 1 
     2    1   14 1 
     3    1   15 1 
     4    1   16 1 
     5    2   10 2 
     6    2   11 1 
     7    3    4 ar
     8    3    8 ar
     9    3   11 1 
    10    4    5 ar
    11    4   17 1 
    12    5    6 ar
    13    5   18 1 
    14    6    7 ar
    15    6   19 1 
    16    7    8 ar
    17    7   20 1 
    18    8    9 1 
    19    9   12 ar
    20    9   13 ar
@<TRIPOS>SUBSTRUCTURE
1 MOL         1
@<TRIPOS>MOLECULE
query molecule
   20    20     1     0     0
SMALL
NO_CHARGE

@<TRIPOS>ATOM
      1 C          15.8770   31.6093   -5.9706 C.3       1 MOL     0.1362
      2 C          14.7977   30.6475   -5.6317 C.2       1 MOL     0.3092
      3 C          16.2557   28.7563   -5.1421 C.ar      1 MOL     0.1404
      4 C          16.9624   28.8593   -3.9628 C.ar      1 MOL     0.0468
      5 C          18.1936   28.2683   -3.7589 C.ar      1 MOL     0.0037
      6 C          18.7411   27.5390   -4.7864 C.ar      1 MOL     0.0009
      7 C          18.0776   27.4043   -5.9864 C.ar      1 MOL     0.0131
      8 C          16.8346   28.0162   -6.1547 C.ar      1 MOL     0.0397
      9 C          16.1663   27.8488   -7.4396 C.2       1 MOL     0.0752
     10 O          13.5796   30.9907   -5.5469 O.2       1 MOL    -0.2507
     11 O          15.0349   29.3243   -5.3874 O.3       1 MOL    -0.4254
     12 O          16.7918   27.4215   -8.4434 O.co2     1 MOL    -0.5445
     13 O          14.8256   28.1538   -7.6043 O.co2     1 MOL    -0.5445
     14 H          15.4542   32.5810   -6.1189 H         1 MOL     0.0342
     15 H          16.3673   31.2932   -6.8674 H         1 MOL     0.0342
     16 H          16.5859   31.6459   -5.1704 H         1 MOL     0.0342
     17 H          16.5495   29.4067   -3.1918 H         1 MOL     0.0654
     18 H          18.6885   28.3709   -2.8586 H         1 MOL     0.0619
     19 H          19.6602   27.0872   -4.6588 H         1 MOL     0.0618
     20 H          18.4953   26.8546   -6.7540 H         1 MOL     0.0625
@<TRIPOS>BOND
     1    1    2 1 
     2    1   14 1 
     3    1   15 1 
     4    1   16 1 
     5    2   10 2 
     6    2   11 1 
     7    3    4 ar
     8    3    8 ar
     9    3   11 1 
    10    4    5 ar
    11    4   17 1 
    12    5    6 ar
    13    5   18 1 
    14    6    7 ar
    15    6   19 1 
    16    7    8 ar
    17    7   20 1 
    18    8    9 1 
    19    9   12 ar
    20    9   13 ar
@<TRIPOS>SUBSTRUCTURE
1 MOL         1
@<TRIPOS>MOLECULE
query molecule
   20    20     1     0     0
SMALL
NO_CHARGE

@<TRIPOS>ATOM
      1 C           8.8071   24.8725  -11.7554 C.3       1 MOL     0.1362
      2 C           7.7996   23.7873  -11.8649 C.2       1 MOL     0.3092
      3 C           7.7895   23.1418  -14.2155 C.ar      1 MOL     0.1404
      4 C           7.7806   24.4029  -14.7726 C.ar      1 MOL     0.0468
      5 C           7.7606   24.6337  -16.1339 C.ar      1 MOL     0.0037
      6 C           7.7497   23.5481  -16.9758 C.ar      1 MOL     0.0009
      7 C           7.7573   22.2657  -16.4719 C.ar      1 MOL     0.0131
      8 C           7.7780   22.0725  -15.0899 C.ar      1 MOL     0.0397
      9 C           7.7854   20.6998  -14.5985 C.2       1 MOL     0.0752
     10 O           6.8592   23.6419  -11.0262 O.2       1 MOL    -0.2507
     11 O           7.8093   22.8671  -12.8749 O.3       1 MOL    -0.4254
     12 O           8.0404   19.7385  -15.3681 O.co2     1 MOL    -0.5445
     13 O           7.5117   20.4029  -13.2739 O.co2     1 MOL    -0.5445
     14 H           8.5981   25.4663  -10.8901 H         1 MOL     0.0342
     15 H           8.7639   25.4883  -12.6292 H         1 MOL     0.0342
     16 H           9.7836   24.4448  -11.6683 H         1 MOL     0.0342
     17 H           7.7896   25.2172  -14.1391 H         1 MOL     0.0654
     18 H           7.7550   25.5958  -16.5087 H         1 MOL     0.0619
     19 H           7.7350   23.6942  -17.9973 H         1 MOL     0.0618
     20 H           7.7492   21.4548  -17.1107 H         1 MOL     0.0625
@<TRIPOS>BOND
     1    1    2 1 
     2    1   14 1 
     3    1   15 1 
     4    1   16 1 
     5    2   10 2 
     6    2   11 1 
     7    3    4 ar
     8    3    8 ar
     9    3   11 1 
    10    4    5 ar
    11    4   17 1 
    12    5    6 ar
    13    5   18 1 
    14    6    7 ar
    15    6   19 1 
    16    7    8 ar
    17    7   20 1 
    18    8    9 1 
    19    9   12 ar
    20    9   13 ar
@<TRIPOS>SUBSTRUCTURE
1 MOL         1
@<TRIPOS>MOLECULE
query molecule
   20    20     1     0     0
SMALL
NO_CHARGE

@<TRIPOS>ATOM
      1 C          -1.8119   13.9178   12.5776 C.3       1 MOL     0.1362
      2 C          -2.2951   14.1382   13.9642 C.2       1 MOL     0.3092
      3 C          -0.5520   15.5323   14.9441 C.ar      1 MOL     0.1404
      4 C          -0.8453   16.8777   15.0133 C.ar      1 MOL     0.0468
      5 C           0.1145   17.8694   14.9687 C.ar      1 MOL     0.0037
      6 C           1.4305   17.4935   14.8497 C.ar      1 MOL     0.0009
      7 C           1.7792   16.1626   14.7760 C.ar      1 MOL     0.0131
      8 C           0.7806   15.1887   14.8248 C.ar      1 MOL     0.0397
      9 C           1.1925   13.7925   14.7437 C.2       1 MOL     0.0752
     10 O          -3.5102   13.9878   14.2955 O.2       1 MOL    -0.2507
     11 O          -1.4693   14.5174   14.9846 O.3       1 MOL    -0.4254
     12 O           2.0283   13.4134   13.8840 O.co2     1 MOL    -0.5445
     13 O           0.6809   12.8351   15.6034 O.co2     1 MOL    -0.5445
     14 H          -2.6333   13.6274   11.9563 H         1 MOL     0.0342
     15 H          -1.0731   13.1440   12.5764 H         1 MOL     0.0342
     16 H          -1.3818   14.8224   12.2021 H         1 MOL     0.0342
     17 H          -1.8341   17.1583   15.1034 H         1 MOL     0.0654
     18 H          -0.1498   18.8660   15.0242 H         1 MOL     0.0619
     19 H           2.1667   18.2159   14.8145 H         1 MOL     0.0618
     20 H           2.7703   15.8878   14.6868 H         1 MOL     0.0625
@<TRIPOS>BOND
     1    1    2 1 
     2    1   14 1 
     3    1   15 1 
     4    1   16 1 
     5    2   10 2 
     6    2   11 1 
     7    3    4 ar
     8    3    8 ar
     9    3   11 1 
    10    4    5 ar
    11    4   17 1 
    12    5    6 ar
    13    5   18 1 
    14    6    7 ar
    15    6   19 1 
    16    7    8 ar
    17    7   20 1 
    18    8    9 1 
    19    9   12 ar
    20    9   13 ar
@<TRIPOS>SUBSTRUCTURE
1 MOL         1
@<TRIPOS>MOLECULE
query molecule
   20    20     1     0     0
SMALL
NO_CHARGE

@<TRIPOS>ATOM
      1 C           6.0893   13.1716   -9.5801 C.3       1 MOL     0.1362
      2 C           5.9549   14.5468   -9.0366 C.2       1 MOL     0.3092
      3 C           3.7826   15.2344   -8.1702 C.ar      1 MOL     0.1404
      4 C           2.9728   15.7160   -7.1636 C.ar      1 MOL     0.0468
      5 C           1.6548   16.0803   -7.3553 C.ar      1 MOL     0.0037
      6 C           1.1245   15.9562   -8.6166 C.ar      1 MOL     0.0009
      7 C           1.8894   15.4798   -9.6588 C.ar      1 MOL     0.0131
      8 C           3.2182   15.1221   -9.4260 C.ar      1 MOL     0.0397
      9 C           3.9925   14.6226  -10.5559 C.2       1 MOL     0.0752
     10 O           6.6337   15.5238   -9.4763 O.2       1 MOL    -0.2507
     11 O           5.0916   14.8623   -8.0255 O.3       1 MOL    -0.4254
     12 O           5.1472   15.0608  -10.7932 O.co2     1 MOL    -0.5445
     13 O           3.4890   13.6539  -11.4078 O.co2     1 MOL    -0.5445
     14 H           6.8205   13.1675  -10.3613 H         1 MOL     0.0342
     15 H           5.1472   12.8496   -9.9718 H         1 MOL     0.0342
     16 H           6.3964   12.5082   -8.7991 H         1 MOL     0.0342
     17 H           3.3728   15.8094   -6.2171 H         1 MOL     0.0654
     18 H           1.0839   16.4370   -6.5724 H         1 MOL     0.0619
     19 H           0.1417   16.2221   -8.7858 H         1 MOL     0.0618
     20 H           1.4841   15.3894  -10.6039 H         1 MOL     0.0625
@<TRIPOS>BOND
     1    1    2 1 
     2    1   14 1 
     3    1   15 1 
     4    1   16 1 
     5    2   10 2 
     6    2   11 1 
     7    3    4 ar
     8    3    8 ar
     9    3   11 1 
    10    4    5 ar
    11    4   17 1 
    12    5    6 ar
    13    5   18 1 
    14    6    7 ar
    15    6   19 1 
    16    7    8 ar
    17    7   20 1 
    18    8    9 1 
    19    9   12 ar
    20    9   13 ar
@<TRIPOS>SUBSTRUCTURE
1 MOL         1
@<TRIPOS>MOLECULE
query molecule
   20    20     1     0     0
SMALL
NO_CHARGE

@<TRIPOS>ATOM
      1 C          18.9412   15.8403    2.1141 C.3       1 MOL     0.1362
      2 C          20.1277   15.1072    2.6236 C.2       1 MOL     0.3092
      3 C          22.2733   15.6963    1.6278 C.ar      1 MOL     0.1404
      4 C          22.2128   17.0725    1.6864 C.ar      1 MOL     0.0468
      5 C          23.2987   17.8929    1.4529 C.ar      1 MOL     0.0037
      6 C          24.5020   17.3049    1.1470 C.ar      1 MOL     0.0009
      7 C          24.6181   15.9338    1.0749 C.ar      1 MOL     0.0131
      8 C          23.4979   15.1375    1.3177 C.ar      1 MOL     0.0397
      9 C          23.6639   13.6916    1.2312 C.2       1 MOL     0.0752
     10 O          20.2024   14.6722    3.8126 O.2       1 MOL    -0.2507
     11 O          21.2245   14.8461    1.8516 O.3       1 MOL    -0.4254
     12 O          22.8301   12.9804    0.6144 O.co2     1 MOL    -0.5445
     13 O          24.7383   13.0488    1.8229 O.co2     1 MOL    -0.5445
     14 H          18.2126   15.9235    2.8932 H         1 MOL     0.0342
     15 H          18.5203   15.3066    1.2878 H         1 MOL     0.0342
     16 H          19.2363   16.8175    1.7945 H         1 MOL     0.0342
     17 H          21.3086   17.5126    1.9170 H         1 MOL     0.0654
     18 H          23.2088   18.9200    1.5077 H         1 MOL     0.0619
     19 H          25.3287   17.8964    0.9685 H         1 MOL     0.0618
     20 H          25.5256   15.4991    0.8446 H         1 MOL     0.0625
@<TRIPOS>BOND
     1    1    2 1 
     2    1   14 1 
     3    1   15 1 
     4    1   16 1 
     5    2   10 2 
     6    2   11 1 
     7    3    4 ar
     8    3    8 ar
     9    3   11 1 
    10    4    5 ar
    11    4   17 1 
    12    5    6 ar
    13    5   18 1 
    14    6    7 ar
    15    6   19 1 
    16    7    8 ar
    17    7   20 1 
    18    8    9 1 
    19    9   12 ar
    20    9   13 ar
@<TRIPOS>SUBSTRUCTURE
1 MOL         1
@<TRIPOS>MOLECULE
query molecule
   20    20     1     0     0
SMALL
NO_CHARGE

@<TRIPOS>ATOM
      1 C          11.8515   33.0078   -1.9395 C.3       1 MOL     0.1362
      2 C          12.9530   32.2741   -2.6127 C.2       1 MOL     0.3092
      3 C          14.5743   32.1229   -4.4268 C.ar      1 MOL     0.1404
      4 C          14.5929   30.9371   -5.1300 C.ar      1 MOL     0.0468
      5 C          15.7253   30.4283   -5.7347 C.ar      1 MOL     0.0037
      6 C          16.8937   31.1432   -5.6294 C.ar      1 MOL     0.0009
      7 C          16.9311   32.3342   -4.9376 C.ar      1 MOL     0.0131
      8 C          15.7657   32.8166   -4.3401 C.ar      1 MOL     0.0397
      9 C          15.8486   34.0803   -3.6178 C.2       1 MOL     0.0752
     10 O          13.4821   31.2330   -2.1178 O.2       1 MOL    -0.2507
     11 O          13.4772   32.6638   -3.8129 O.3       1 MOL    -0.4254
     12 O          15.4239   35.1474   -4.1299 O.co2     1 MOL    -0.5445
     13 O          16.3969   34.1547   -2.3483 O.co2     1 MOL    -0.5445
     14 H          11.6089   32.5192   -1.0190 H         1 MOL     0.0342
     15 H          10.9907   33.0192   -2.5747 H         1 MOL     0.0342
     16 H          12.1616   34.0120   -1.7407 H         1 MOL     0.0342
     17 H          13.7145   30.4018   -5.2088 H         1 MOL     0.0654
     18 H          15.6943   29.5356   -6.2525 H         1 MOL     0.0619
     19 H          17.7537   30.7843   -6.0728 H         1 MOL     0.0618
     20 H          17.8128   32.8660   -4.8629 H         1 MOL     0.0625
@<TRIPOS>BOND
     1    1    2 1 
     2    1   14 1 
     3    1   15 1 
     4    1   16 1 
     5    2   10 2 
     6    2   11 1 
     7    3    4 ar
     8    3    8 ar
     9    3   11 1 
    10    4    5 ar
    11    4   17 1 
    12    5    6 ar
    13    5   18 1 
    14    6    7 ar
    15    6   19 1 
    16    7    8 ar
    17    7   20 1 
    18    8    9 1 
    19    9   12 ar
    20    9   13 ar
@<TRIPOS>SUBSTRUCTURE
1 MOL         1
@<TRIPOS>MOLECULE
query molecule
   20    20     1     0     0
SMALL
NO_CHARGE

@<TRIPOS>ATOM
      1 C           0.9707   14.9234   16.9525 C.3       1 MOL     0.1362
      2 C           0.2387   15.8239   16.0262 C.2       1 MOL     0.3092
      3 C           1.7214   17.2999   14.7751 C.ar      1 MOL     0.1404
      4 C           1.4596   18.6505   14.8651 C.ar      1 MOL     0.0468
      5 C           2.4342   19.6234   14.7626 C.ar      1 MOL     0.0037
      6 C           3.7326   19.2221   14.5611 C.ar      1 MOL     0.0009
      7 C           4.0496   17.8848   14.4632 C.ar      1 MOL     0.0131
      8 C           3.0370   16.9306   14.5723 C.ar      1 MOL     0.0397
      9 C           3.4152   15.5268   14.4629 C.2       1 MOL     0.0752
     10 O          -0.9491   16.2103   16.2465 O.2       1 MOL    -0.2507
     11 O           0.7885   16.3031   14.8707 O.3       1 MOL    -0.4254
     12 O           3.4332   14.9466   13.3474 O.co2     1 MOL    -0.5445
     13 O           3.7652   14.7819   15.5765 O.co2     1 MOL    -0.5445
     14 H           0.3427   14.6817   17.7844 H         1 MOL     0.0342
     15 H           1.8539   15.4148   17.3034 H         1 MOL     0.0342
     16 H           1.2425   14.0264   16.4370 H         1 MOL     0.0342
     17 H           0.4842   18.9502   15.0172 H         1 MOL     0.0654
     18 H           2.1938   20.6248   14.8364 H         1 MOL     0.0619
     19 H           4.4794   19.9300   14.4815 H         1 MOL     0.0618
     20 H           5.0276   17.5909   14.3119 H         1 MOL     0.0625
@<TRIPOS>BOND
     1    1    2 1 
     2    1   14 1 
     3    1   15 1 
     4    1   16 1 
     5    2   10 2 
     6    2   11 1 
     7    3    4 ar
     8    3    8 ar
     9    3   11 1 
    10    4    5 ar
    11    4   17 1 
    12    5    6 ar
    13    5   18 1 
    14    6    7 ar
    15    6   19 1 
    16    7    8 ar
    17    7   20 1 
    18    8    9 1 
    19    9   12 ar
    20    9   13 ar
@<TRIPOS>SUBSTRUCTURE
1 MOL         1
@<TRIPOS>MOLECULE
query molecule
   20    20     1     0     0
SMALL
NO_CHARGE

@<TRIPOS>ATOM
      1 C          -9.4489   35.8365   -0.4642 C.3       1 MOL     0.1362
      2 C          -9.9344   34.7335   -1.3316 C.2       1 MOL     0.3092
      3 C          -8.7527   33.5364   -3.0960 C.ar      1 MOL     0.1404
      4 C          -8.5059   34.5287   -4.0208 C.ar      1 MOL     0.0468
      5 C          -8.1393   34.2769   -5.3281 C.ar      1 MOL     0.0037
      6 C          -8.0137   32.9680   -5.7259 C.ar      1 MOL     0.0009
      7 C          -8.2492   31.9373   -4.8422 C.ar      1 MOL     0.0131
      8 C          -8.6176   32.2315   -3.5286 C.ar      1 MOL     0.0397
      9 C          -8.8573   31.1119   -2.6260 C.2       1 MOL     0.0752
     10 O         -11.1431   34.6399   -1.7045 O.2       1 MOL    -0.2507
     11 O          -9.1176   33.7399   -1.7927 O.3       1 MOL    -0.4254
     12 O          -9.9363   31.0153   -1.9874 O.co2     1 MOL    -0.5445
     13 O          -7.9113   30.1186   -2.4365 O.co2     1 MOL    -0.5445
     14 H         -10.2628   36.4912   -0.2319 H         1 MOL     0.0342
     15 H          -8.6863   36.3840   -0.9773 H         1 MOL     0.0342
     16 H          -9.0485   35.4289    0.4401 H         1 MOL     0.0342
     17 H          -8.5999   35.5112   -3.7203 H         1 MOL     0.0654
     18 H          -7.9635   35.0512   -5.9881 H         1 MOL     0.0619
     19 H          -7.7406   32.7535   -6.6977 H         1 MOL     0.0618
     20 H          -8.1526   30.9562   -5.1483 H         1 MOL     0.0625
@<TRIPOS>BOND
     1    1    2 1 
     2    1   14 1 
     3    1   15 1 
     4    1   16 1 
     5    2   10 2 
     6    2   11 1 
     7    3    4 ar
     8    3    8 ar
     9    3   11 1 
    10    4    5 ar
    11    4   17 1 
    12    5    6 ar
    13    5   18 1 
    14    6    7 ar
    15    6   19 1 
    16    7    8 ar
    17    7   20 1 
    18    8    9 1 
    19    9   12 ar
    20    9   13 ar
@<TRIPOS>SUBSTRUCTURE
1 MOL         1
@<TRIPOS>MOLECULE
query molecule
   20    20     1     0     0
SMALL
NO_CHARGE

@<TRIPOS>ATOM
      1 C           8.0842    1.0279    1.0365 C.3       1 MOL     0.1362
      2 C           6.8592    1.8107    1.3387 C.2       1 MOL     0.3092
      3 C           4.6375    1.9453    2.3326 C.ar      1 MOL     0.1404
      4 C           3.5428    2.0152    1.4973 C.ar      1 MOL     0.0468
      5 C           2.3770    2.6791    1.8241 C.ar      1 MOL     0.0037
      6 C           2.3058    3.3014    3.0468 C.ar      1 MOL     0.0009
      7 C           3.3710    3.2631    3.9199 C.ar      1 MOL     0.0131
      8 C           4.5328    2.5816    3.5542 C.ar      1 MOL     0.0397
      9 C           5.6362    2.5654    4.5070 C.2       1 MOL     0.0752
     10 O           6.7034    3.0095    0.9549 O.2       1 MOL    -0.2507
     11 O           5.8107    1.2996    2.0502 O.3       1 MOL    -0.4254
     12 O           5.9830    1.4995    5.0772 O.co2     1 MOL    -0.5445
     13 O           6.3396    3.7162    4.8208 O.co2     1 MOL    -0.5445
     14 H           8.7622    1.6321    0.4705 H         1 MOL     0.0342
     15 H           7.8214    0.1599    0.4690 H         1 MOL     0.0342
     16 H           8.5505    0.7283    1.9514 H         1 MOL     0.0342
     17 H           3.5975    1.5467    0.5797 H         1 MOL     0.0654
     18 H           1.5803    2.7061    1.1678 H         1 MOL     0.0619
     19 H           1.4452    3.8040    3.3147 H         1 MOL     0.0618
     20 H           3.3101    3.7329    4.8371 H         1 MOL     0.0625
@<TRIPOS>BOND
     1    1    2 1 
     2    1   14 1 
     3    1   15 1 
     4    1   16 1 
     5    2   10 2 
     6    2   11 1 
     7    3    4 ar
     8    3    8 ar
     9    3   11 1 
    10    4    5 ar
    11    4   17 1 
    12    5    6 ar
    13    5   18 1 
    14    6    7 ar
    15    6   19 1 
    16    7    8 ar
    17    7   20 1 
    18    8    9 1 
    19    9   12 ar
    20    9   13 ar
@<TRIPOS>SUBSTRUCTURE
1 MOL         1
@<TRIPOS>MOLECULE
query molecule
   20    20     1     0     0
SMALL
NO_CHARGE

@<TRIPOS>ATOM
      1 C          17.0845   26.9817   -3.3479 C.3       1 MOL     0.1362
      2 C          17.6442   28.0446   -2.4751 C.2       1 MOL     0.3092
      3 C          19.8275   28.9364   -1.8584 C.ar      1 MOL     0.1404
      4 C          19.5806   30.2789   -1.6643 C.ar      1 MOL     0.0468
      5 C          20.5726   31.2391   -1.6361 C.ar      1 MOL     0.0037
      6 C          21.8734   30.8331   -1.8101 C.ar      1 MOL     0.0009
      7 C          22.1761   29.5036   -2.0083 C.ar      1 MOL     0.0131
      8 C          21.1461   28.5621   -2.0301 C.ar      1 MOL     0.0397
      9 C          21.5095   27.1662   -2.2424 C.2       1 MOL     0.0752
     10 O          17.0131   29.1123   -2.2095 O.2       1 MOL    -0.2507
     11 O          18.8772   27.9522   -1.8934 O.3       1 MOL    -0.4254
     12 O          21.6550   26.7049   -3.4033 O.co2     1 MOL    -0.5445
     13 O          21.7053   26.2989   -1.1809 O.co2     1 MOL    -0.5445
     14 H          16.1118   27.2735   -3.6850 H         1 MOL     0.0342
     15 H          17.0112   26.0687   -2.7951 H         1 MOL     0.0342
     16 H          17.7271   26.8378   -4.1909 H         1 MOL     0.0342
     17 H          18.6032   30.5821   -1.5331 H         1 MOL     0.0654
     18 H          20.3428   32.2347   -1.4874 H         1 MOL     0.0619
     19 H          22.6330   31.5316   -1.7929 H         1 MOL     0.0618
     20 H          23.1560   29.2060   -2.1381 H         1 MOL     0.0625
@<TRIPOS>BOND
     1    1    2 1 
     2    1   14 1 
     3    1   15 1 
     4    1   16 1 
     5    2   10 2 
     6    2   11 1 
     7    3    4 ar
     8    3    8 ar
     9    3   11 1 
    10    4    5 ar
    11    4   17 1 
    12    5    6 ar
    13    5   18 1 
    14    6    7 ar
    15    6   19 1 
    16    7    8 ar
    17    7   20 1 
    18    8    9 1 
    19    9   12 ar
    20    9   13 ar
@<TRIPOS>SUBSTRUCTURE
1 MOL         1
@<TRIPOS>MOLECULE
query molecule
   20    20     1     0     0
SMALL
NO_CHARGE

@<TRIPOS>ATOM
      1 C          26.8813   33.0414   10.2587 C.3       1 MOL     0.1362
      2 C          27.7109   33.2309    9.0418 C.2       1 MOL     0.3092
      3 C          28.4689   34.6598    7.2182 C.ar      1 MOL     0.1404
      4 C          29.8345   34.7354    7.0438 C.ar      1 MOL     0.0468
      5 C          30.4343   34.9636    5.8211 C.ar      1 MOL     0.0037
      6 C          29.6261   35.1227    4.7217 C.ar      1 MOL     0.0009
      7 C          28.2549   35.0569    4.8399 C.ar      1 MOL     0.0131
      8 C          27.6853   34.8243    6.0926 C.ar      1 MOL     0.0397
      9 C          26.2309   34.7620    6.1738 C.2       1 MOL     0.0752
     10 O          28.3631   32.2840    8.5062 O.2       1 MOL    -0.2507
     11 O          27.8327   34.4357    8.4091 O.3       1 MOL    -0.4254
     12 O          25.5140   35.6325    5.6172 O.co2     1 MOL    -0.5445
     13 O          25.5864   33.7495    6.8643 O.co2     1 MOL    -0.5445
     14 H          26.9382   32.0200   10.5728 H         1 MOL     0.0342
     15 H          25.8644   33.2908   10.0391 H         1 MOL     0.0342
     16 H          27.2438   33.6764   11.0395 H         1 MOL     0.0342
     17 H          30.4402   34.6150    7.8703 H         1 MOL     0.0654
     18 H          31.4621   35.0123    5.7355 H         1 MOL     0.0619
     19 H          30.0502   35.2940    3.7966 H         1 MOL     0.0618
     20 H          27.6539   35.1773    4.0092 H         1 MOL     0.0625
@<TRIPOS>BOND
     1    1    2 1 
     2    1   14 1 
     3    1   15 1 
     4    1   16 1 
     5    2   10 2 
     6    2   11 1 
     7    3    4 ar
     8    3    8 ar
     9    3   11 1 
    10    4    5 ar
    11    4   17 1 
    12    5    6 ar
    13    5   18 1 
    14    6    7 ar
    15    6   19 1 
    16    7    8 ar
    17    7   20 1 
    18    8    9 1 
    19    9   12 ar
    20    9   13 ar
@<TRIPOS>SUBSTRUCTURE
1 MOL         1
@<TRIPOS>MOLECULE
query molecule
   20    20     1     0     0
SMALL
NO_CHARGE

@<TRIPOS>ATOM
      1 C          -2.6365   26.3298  -14.2192 C.3       1 MOL     0.1362
      2 C          -3.5359   25.6937  -13.2236 C.2       1 MOL     0.3092
      3 C          -1.9635   25.7627  -11.3620 C.ar      1 MOL     0.1404
      4 C          -1.6833   27.0390  -10.9221 C.ar      1 MOL     0.0468
      5 C          -0.4908   27.3929  -10.3225 C.ar      1 MOL     0.0037
      6 C           0.4651   26.4204  -10.1559 C.ar      1 MOL     0.0009
      7 C           0.2371   25.1287  -10.5778 C.ar      1 MOL     0.0131
      8 C          -0.9810   24.8091  -11.1793 C.ar      1 MOL     0.0397
      9 C          -1.1816   23.4311  -11.6112 C.2       1 MOL     0.0752
     10 O          -4.7448   25.4085  -13.4801 O.2       1 MOL    -0.2507
     11 O          -3.1295   25.3681  -11.9603 O.3       1 MOL    -0.4254
     12 O          -0.3474   22.5350  -11.3237 O.co2     1 MOL    -0.5445
     13 O          -2.2905   23.0580  -12.3520 O.co2     1 MOL    -0.5445
     14 H          -3.1718   26.4888  -15.1320 H         1 MOL     0.0342
     15 H          -1.7996   25.6893  -14.4037 H         1 MOL     0.0342
     16 H          -2.2908   27.2680  -13.8391 H         1 MOL     0.0342
     17 H          -2.4025   27.7680  -11.0473 H         1 MOL     0.0654
     18 H          -0.3227   28.3616  -10.0073 H         1 MOL     0.0619
     19 H           1.3647   26.6596   -9.7102 H         1 MOL     0.0618
     20 H           0.9602   24.4032  -10.4491 H         1 MOL     0.0625
@<TRIPOS>BOND
     1    1    2 1 
     2    1   14 1 
     3    1   15 1 
     4    1   16 1 
     5    2   10 2 
     6    2   11 1 
     7    3    4 ar
     8    3    8 ar
     9    3   11 1 
    10    4    5 ar
    11    4   17 1 
    12    5    6 ar
    13    5   18 1 
    14    6    7 ar
    15    6   19 1 
    16    7    8 ar
    17    7   20 1 
    18    8    9 1 
    19    9   12 ar
    20    9   13 ar
@<TRIPOS>SUBSTRUCTURE
1 MOL         1
@<TRIPOS>MOLECULE
query molecule
   20    20     1     0     0
SMALL
NO_CHARGE

@<TRIPOS>ATOM
      1 C          10.1151   24.7422   -5.7838 C.3       1 MOL     0.1362
      2 C          11.4563   24.6845   -6.4183 C.2       1 MOL     0.3092
      3 C          11.5754   26.2909   -8.2479 C.ar      1 MOL     0.1404
      4 C          11.9819   25.9024   -9.5068 C.ar      1 MOL     0.0468
      5 C          11.5123   26.4791  -10.6702 C.ar      1 MOL     0.0037
      6 C          10.5910   27.4929  -10.5657 C.ar      1 MOL     0.0009
      7 C          10.1509   27.9205   -9.3320 C.ar      1 MOL     0.0131
      8 C          10.6484   27.3127   -8.1784 C.ar      1 MOL     0.0397
      9 C          10.1567   27.7951   -6.8934 C.2       1 MOL     0.0752
     10 O          12.1764   23.6405   -6.3982 O.2       1 MOL    -0.2507
     11 O          12.0134   25.7482   -7.0704 O.3       1 MOL    -0.4254
     12 O          10.8934   28.4718   -6.1314 O.co2     1 MOL    -0.5445
     13 O           8.8679   27.5267   -6.4637 O.co2     1 MOL    -0.5445
     14 H           9.8914   23.7958   -5.3375 H         1 MOL     0.0342
     15 H           9.3791   24.9691   -6.5264 H         1 MOL     0.0342
     16 H          10.1092   25.5027   -5.0316 H         1 MOL     0.0342
     17 H          12.6732   25.1404   -9.5837 H         1 MOL     0.0654
     18 H          11.8438   26.1566  -11.5933 H         1 MOL     0.0619
     19 H          10.2244   27.9400  -11.4206 H         1 MOL     0.0618
     20 H           9.4583   28.6827   -9.2613 H         1 MOL     0.0625
@<TRIPOS>BOND
     1    1    2 1 
     2    1   14 1 
     3    1   15 1 
     4    1   16 1 
     5    2   10 2 
     6    2   11 1 
     7    3    4 ar
     8    3    8 ar
     9    3   11 1 
    10    4    5 ar
    11    4   17 1 
    12    5    6 ar
    13    5   18 1 
    14    6    7 ar
    15    6   19 1 
    16    7    8 ar
    17    7   20 1 
    18    8    9 1 
    19    9   12 ar
    20    9   13 ar
@<TRIPOS>SUBSTRUCTURE
1 MOL         1
@<TRIPOS>MOLECULE
query molecule
   20    20     1     0     0
SMALL
NO_CHARGE

@<TRIPOS>ATOM
      1 C           4.8034   25.7678  -15.2394 C.3       1 MOL     0.1362
      2 C           4.0319   27.0183  -15.0255 C.2       1 MOL     0.3092
      3 C           2.7126   26.6393  -13.0111 C.ar      1 MOL     0.1404
      4 C           3.4962   27.0237  -11.9439 C.ar      1 MOL     0.0468
      5 C           3.2984   26.5745  -10.6532 C.ar      1 MOL     0.0037
      6 C           2.2651   25.6989  -10.4224 C.ar      1 MOL     0.0009
      7 C           1.4515   25.2818  -11.4532 C.ar      1 MOL     0.0131
      8 C           1.6826   25.7582  -12.7445 C.ar      1 MOL     0.0397
      9 C           0.7988   25.2920  -13.8062 C.2       1 MOL     0.0752
     10 O           4.3984   28.1359  -15.5003 O.2       1 MOL    -0.2507
     11 O           2.8723   27.0587  -14.3041 O.3       1 MOL    -0.4254
     12 O           1.2599   24.9213  -14.9159 O.co2     1 MOL    -0.5445
     13 O          -0.5745   25.2414  -13.6357 O.co2     1 MOL    -0.5445
     14 H           5.6688   25.9803  -15.8317 H         1 MOL     0.0342
     15 H           4.1902   25.0534  -15.7477 H         1 MOL     0.0342
     16 H           5.1060   25.3696  -14.2939 H         1 MOL     0.0342
     17 H           4.2713   27.6819  -12.1187 H         1 MOL     0.0654
     18 H           3.9096   26.8888   -9.8827 H         1 MOL     0.0619
     19 H           2.0963   25.3488   -9.4664 H         1 MOL     0.0618
     20 H           0.6769   24.6238  -11.2721 H         1 MOL     0.0625
@<TRIPOS>BOND
     1    1    2 1 
     2    1   14 1 
     3    1   15 1 
     4    1   16 1 
     5    2   10 2 
     6    2   11 1 
     7    3    4 ar
     8    3    8 ar
     9    3   11 1 
    10    4    5 ar
    11    4   17 1 
    12    5    6 ar
    13    5   18 1 
    14    6    7 ar
    15    6   19 1 
    16    7    8 ar
    17    7   20 1 
    18    8    9 1 
    19    9   12 ar
    20    9   13 ar
@<TRIPOS>SUBSTRUCTURE
1 MOL         1
@<TRIPOS>MOLECULE
query molecule
   20    20     1     0     0
SMALL
NO_CHARGE

@<TRIPOS>ATOM
      1 C          19.7404   15.3056    5.5827 C.3       1 MOL     0.1362
      2 C          20.2626   16.3182    6.5349 C.2       1 MOL     0.3092
      3 C          21.7817   18.2012    6.8336 C.ar      1 MOL     0.1404
      4 C          22.5795   18.4440    7.9315 C.ar      1 MOL     0.0468
      5 C          22.8859   19.7120    8.3844 C.ar      1 MOL     0.0037
      6 C          22.3681   20.7868    7.7032 C.ar      1 MOL     0.0009
      7 C          21.5644   20.6007    6.5996 C.ar      1 MOL     0.0131
      8 C          21.2773   19.3037    6.1717 C.ar      1 MOL     0.0397
      9 C          20.4232   19.1511    5.0000 C.2       1 MOL     0.0752
     10 O          19.6375   16.6523    7.5867 O.2       1 MOL    -0.2507
     11 O          21.4527   16.9636    6.3504 O.3       1 MOL    -0.4254
     12 O          19.1733   19.2548    5.0925 O.co2     1 MOL    -0.5445
     13 O          20.9515   18.8856    3.7478 O.co2     1 MOL    -0.5445
     14 H          18.7987   14.9387    5.9342 H         1 MOL     0.0342
     15 H          20.4341   14.4944    5.5093 H         1 MOL     0.0342
     16 H          19.6128   15.7541    4.6200 H         1 MOL     0.0342
     17 H          22.9683   17.6358    8.4415 H         1 MOL     0.0654
     18 H          23.4885   19.8485    9.2116 H         1 MOL     0.0619
     19 H          22.5826   21.7448    8.0217 H         1 MOL     0.0618
     20 H          21.1789   21.4133    6.0927 H         1 MOL     0.0625
@<TRIPOS>BOND
     1    1    2 1 
     2    1   14 1 
     3    1   15 1 
     4    1   16 1 
     5    2   10 2 
     6    2   11 1 
     7    3    4 ar
     8    3    8 ar
     9    3   11 1 
    10    4    5 ar
    11    4   17 1 
    12    5    6 ar
    13    5   18 1 
    14    6    7 ar
    15    6   19 1 
    16    7    8 ar
    17    7   20 1 
    18    8    9 1 
    19    9   12 ar
    20    9   13 ar
@<TRIPOS>SUBSTRUCTURE
1 MOL         1
@<TRIPOS>MOLECULE
query molecule
   20    20     1     0     0
SMALL
NO_CHARGE

@<TRIPOS>ATOM
      1 C         -11.2788   27.9591   -4.8896 C.3       1 MOL     0.1362
      2 C         -10.8739   29.3148   -5.3403 C.2       1 MOL     0.3092
      3 C          -9.2121   30.7862   -6.3481 C.ar      1 MOL     0.1404
      4 C          -8.6178   31.6836   -5.4865 C.ar      1 MOL     0.0468
      5 C          -8.1371   32.9158   -5.8832 C.ar      1 MOL     0.0037
      6 C          -8.2579   33.2637   -7.2067 C.ar      1 MOL     0.0009
      7 C          -8.8442   32.4045   -8.1104 C.ar      1 MOL     0.0131
      8 C          -9.3178   31.1671   -7.6717 C.ar      1 MOL     0.0397
      9 C          -9.9312   30.2882   -8.6600 C.2       1 MOL     0.0752
     10 O         -11.5910   30.3421   -5.1426 O.2       1 MOL    -0.2507
     11 O          -9.7015   29.5566   -5.9990 O.3       1 MOL    -0.4254
     12 O          -9.5206   30.2648   -9.8484 O.co2     1 MOL    -0.5445
     13 O         -10.9846   29.4517   -8.3312 O.co2     1 MOL    -0.5445
     14 H         -12.2282   28.0157   -4.3994 H         1 MOL     0.0342
     15 H         -10.5479   27.5772   -4.2080 H         1 MOL     0.0342
     16 H         -11.3514   27.3091   -5.7360 H         1 MOL     0.0342
     17 H          -8.5271   31.4205   -4.4929 H         1 MOL     0.0654
     18 H          -7.6982   33.5576   -5.2038 H         1 MOL     0.0619
     19 H          -7.9062   34.1791   -7.5283 H         1 MOL     0.0618
     20 H          -8.9313   32.6728   -9.1034 H         1 MOL     0.0625
@<TRIPOS>BOND
     1    1    2 1 
     2    1   14 1 
     3    1   15 1 
     4    1   16 1 
     5    2   10 2 
     6    2   11 1 
     7    3    4 ar
     8    3    8 ar
     9    3   11 1 
    10    4    5 ar
    11    4   17 1 
    12    5    6 ar
    13    5   18 1 
    14    6    7 ar
    15    6   19 1 
    16    7    8 ar
    17    7   20 1 
    18    8    9 1 
    19    9   12 ar
    20    9   13 ar
@<TRIPOS>SUBSTRUCTURE
1 MOL         1
@<TRIPOS>MOLECULE
query molecule
   20    20     1     0     0
SMALL
NO_CHARGE

@<TRIPOS>ATOM
      1 C          -9.8435   18.0466    2.9500 C.3       1 MOL     0.1362
      2 C          -9.4153   19.0253    1.9186 C.2       1 MOL     0.3092
      3 C          -7.8493   19.5219    0.1178 C.ar      1 MOL     0.1404
      4 C          -7.1132   20.6702   -0.0836 C.ar      1 MOL     0.0468
      5 C          -6.8032   21.1661   -1.3345 C.ar      1 MOL     0.0037
      6 C          -7.2520   20.4771   -2.4350 C.ar      1 MOL     0.0009
      7 C          -7.9921   19.3239   -2.2906 C.ar      1 MOL     0.0131
      8 C          -8.2852   18.8534   -1.0097 C.ar      1 MOL     0.0397
      9 C          -9.0707   17.6299   -0.9014 C.2       1 MOL     0.0752
     10 O         -10.1702   19.9582    1.5079 O.2       1 MOL    -0.2507
     11 O          -8.1793   18.9950    1.3370 O.3       1 MOL    -0.4254
     12 O         -10.2976   17.6222   -1.1773 O.co2     1 MOL    -0.5445
     13 O          -8.5004   16.4367   -0.4911 O.co2     1 MOL    -0.5445
     14 H         -10.8444   18.2680    3.2570 H         1 MOL     0.0342
     15 H          -9.1895   18.1096    3.7943 H         1 MOL     0.0342
     16 H          -9.8049   17.0587    2.5416 H         1 MOL     0.0342
     17 H          -6.7762   21.1861    0.7439 H         1 MOL     0.0654
     18 H          -6.2483   22.0305   -1.4397 H         1 MOL     0.0619
     19 H          -7.0332   20.8271   -3.3809 H         1 MOL     0.0618
     20 H          -8.3259   18.8114   -3.1223 H         1 MOL     0.0625
@<TRIPOS>BOND
     1    1    2 1 
     2    1   14 1 
     3    1   15 1 
     4    1   16 1 
     5    2   10 2 
     6    2   11 1 
     7    3    4 ar
     8    3    8 ar
     9    3   11 1 
    10    4    5 ar
    11    4   17 1 
    12    5    6 ar
    13    5   18 1 
    14    6    7 ar
    15    6   19 1 
    16    7    8 ar
    17    7   20 1 
    18    8    9 1 
    19    9   12 ar
    20    9   13 ar
@<TRIPOS>SUBSTRUCTURE
1 MOL         1
@<TRIPOS>MOLECULE
query molecule
   20    20     1     0     0
SMALL
NO_CHARGE

@<TRIPOS>ATOM
      1 C          -9.1422   31.1695    2.0988 C.3       1 MOL     0.1362
      2 C          -8.2315   30.8030    0.9847 C.2       1 MOL     0.3092
      3 C          -6.3814   32.2354    1.6685 C.ar      1 MOL     0.1404
      4 C          -5.5384   32.0385    2.7416 C.ar      1 MOL     0.0468
      5 C          -4.9957   33.0695    3.4826 C.ar      1 MOL     0.0037
      6 C          -5.3133   34.3588    3.1300 C.ar      1 MOL     0.0009
      7 C          -6.1516   34.6122    2.0663 C.ar      1 MOL     0.0131
      8 C          -6.6803   33.5436    1.3407 C.ar      1 MOL     0.0397
      9 C          -7.5628   33.8554    0.2229 C.2       1 MOL     0.0752
     10 O          -8.5919   30.0534    0.0271 O.2       1 MOL    -0.2507
     11 O          -6.9410   31.2452    0.9073 O.3       1 MOL    -0.4254
     12 O          -7.2377   33.5687   -0.9576 O.co2     1 MOL    -0.5445
     13 O          -8.7849   34.4774    0.4161 O.co2     1 MOL    -0.5445
     14 H         -10.0957   30.7090    1.9452 H         1 MOL     0.0342
     15 H          -9.2602   32.2325    2.1276 H         1 MOL     0.0342
     16 H          -8.7266   30.8315    3.0247 H         1 MOL     0.0342
     17 H          -5.3002   31.0697    3.0046 H         1 MOL     0.0654
     18 H          -4.3678   32.8767    4.2792 H         1 MOL     0.0619
     19 H          -4.9202   35.1469    3.6681 H         1 MOL     0.0618
     20 H          -6.3855   35.5837    1.8072 H         1 MOL     0.0625
@<TRIPOS>BOND
     1    1    2 1 
     2    1   14 1 
     3    1   15 1 
     4    1   16 1 
     5    2   10 2 
     6    2   11 1 
     7    3    4 ar
     8    3    8 ar
     9    3   11 1 
    10    4    5 ar
    11    4   17 1 
    12    5    6 ar
    13    5   18 1 
    14    6    7 ar
    15    6   19 1 
    16    7    8 ar
    17    7   20 1 
    18    8    9 1 
    19    9   12 ar
    20    9   13 ar
@<TRIPOS>SUBSTRUCTURE
1 MOL         1
@<TRIPOS>MOLECULE
query molecule
   20    20     1     0     0
SMALL
NO_CHARGE

@<TRIPOS>ATOM
      1 C           5.2502    0.8671   -4.9740 C.3       1 MOL     0.1362
      2 C           3.9916    1.3684   -4.3664 C.2       1 MOL     0.3092
      3 C           4.1416    3.6138   -5.3033 C.ar      1 MOL     0.1404
      4 C           4.0861    3.7221   -6.6767 C.ar      1 MOL     0.0468
      5 C           4.7184    4.7230   -7.3875 C.ar      1 MOL     0.0037
      6 C           5.4395    5.6595   -6.6874 C.ar      1 MOL     0.0009
      7 C           5.5283    5.5979   -5.3138 C.ar      1 MOL     0.0131
      8 C           4.8750    4.5715   -4.6302 C.ar      1 MOL     0.0397
      9 C           4.9944    4.5429   -3.1774 C.2       1 MOL     0.0752
     10 O           3.2574    0.6474   -3.6247 O.2       1 MOL    -0.2507
     11 O           3.5316    2.6404   -4.5592 O.3       1 MOL    -0.4254
     12 O           5.3141    3.4862   -2.5751 O.co2     1 MOL    -0.5445
     13 O           4.7599    5.6706   -2.4087 O.co2     1 MOL    -0.5445
     14 H           5.4051   -0.1509   -4.6832 H         1 MOL     0.0342
     15 H           6.0715    1.4634   -4.6355 H         1 MOL     0.0342
     16 H           5.1805    0.9281   -6.0397 H         1 MOL     0.0342
     17 H           3.5435    3.0184   -7.2009 H         1 MOL     0.0654
     18 H           4.6501    4.7667   -8.4168 H         1 MOL     0.0619
     19 H           5.9210    6.4178   -7.1957 H         1 MOL     0.0618
     20 H           6.0719    6.3054   -4.7945 H         1 MOL     0.0625
@<TRIPOS>BOND
     1    1    2 1 
     2    1   14 1 
     3    1   15 1 
     4    1   16 1 
     5    2   10 2 
     6    2   11 1 
     7    3    4 ar
     8    3    8 ar
     9    3   11 1 
    10    4    5 ar
    11    4   17 1 
    12    5    6 ar
    13    5   18 1 
    14    6    7 ar
    15    6   19 1 
    16    7    8 ar
    17    7   20 1 
    18    8    9 1 
    19    9   12 ar
    20    9   13 ar
@<TRIPOS>SUBSTRUCTURE
1 MOL         1
@<TRIPOS>MOLECULE
query molecule
   20    20     1     0     0
SMALL
NO_CHARGE

@<TRIPOS>ATOM
      1 C          23.5955    8.2447  -15.8875 C.3       1 MOL     0.1362
      2 C          22.1500    8.0310  -15.6234 C.2       1 MOL     0.3092
      3 C          21.0532    9.7433  -14.2790 C.ar      1 MOL     0.1404
      4 C          21.1952    9.2225  -13.0103 C.ar      1 MOL     0.0468
      5 C          20.9657    9.9494  -11.8589 C.ar      1 MOL     0.0037
      6 C          20.5763   11.2607  -11.9865 C.ar      1 MOL     0.0009
      7 C          20.4188   11.8310  -13.2308 C.ar      1 MOL     0.0131
      8 C          20.6604   11.0644  -14.3717 C.ar      1 MOL     0.0397
      9 C          20.4821   11.7062  -15.6686 C.2       1 MOL     0.0752
     10 O          21.6343    6.8749  -15.5443 O.2       1 MOL    -0.2507
     11 O          21.2697    9.0607  -15.4454 O.3       1 MOL    -0.4254
     12 O          19.3370   11.8462  -16.1693 O.co2     1 MOL    -0.5445
     13 O          21.5602   12.1818  -16.3960 O.co2     1 MOL    -0.5445
     14 H          24.0823    7.2974  -15.9906 H         1 MOL     0.0342
     15 H          24.0311    8.7824  -15.0716 H         1 MOL     0.0342
     16 H          23.7136    8.8077  -16.7893 H         1 MOL     0.0342
     17 H          21.4884    8.2378  -12.9162 H         1 MOL     0.0654
     18 H          21.0845    9.5194  -10.9278 H         1 MOL     0.0619
     19 H          20.3989   11.8252  -11.1409 H         1 MOL     0.0618
     20 H          20.1260   12.8171  -13.3187 H         1 MOL     0.0625
@<TRIPOS>BOND
     1    1    2 1 
     2    1   14 1 
     3    1   15 1 
     4    1   16 1 
     5    2   10 2 
     6    2   11 1 
     7    3    4 ar
     8    3    8 ar
     9    3   11 1 
    10    4    5 ar
    11    4   17 1 
    12    5    6 ar
    13    5   18 1 
    14    6    7 ar
    15    6   19 1 
    16    7    8 ar
    17    7   20 1 
    18    8    9 1 
    19    9   12 ar
    20    9   13 ar
@<TRIPOS>SUBSTRUCTURE
1 MOL         1
@<TRIPOS>MOLECULE
query molecule
   20    20     1     0     0
SMALL
NO_CHARGE

@<TRIPOS>ATOM
      1 C          24.6347   12.7727    0.1864 C.3       1 MOL     0.1362
      2 C          23.2084   12.3951    0.3534 C.2       1 MOL     0.3092
      3 C          23.2080   10.4117   -1.0638 C.ar      1 MOL     0.1404
      4 C          24.2450    9.6616   -0.5510 C.ar      1 MOL     0.0468
      5 C          24.8349    8.6138   -1.2298 C.ar      1 MOL     0.0037
      6 C          24.3616    8.3035   -2.4817 C.ar      1 MOL     0.0009
      7 C          23.3273    9.0212   -3.0417 C.ar      1 MOL     0.0131
      8 C          22.7561   10.0735   -2.3245 C.ar      1 MOL     0.0397
      9 C          21.6643   10.8070   -2.9534 C.2       1 MOL     0.0752
     10 O          22.4618   12.9207    1.2338 O.2       1 MOL    -0.2507
     11 O          22.5946   11.4566   -0.4273 O.3       1 MOL    -0.4254
     12 O          20.4990   10.3351   -2.9806 O.co2     1 MOL    -0.5445
     13 O          21.8671   12.0433   -3.5434 O.co2     1 MOL    -0.5445
     14 H          24.8907   13.5231    0.9049 H         1 MOL     0.0342
     15 H          24.7885   13.1566   -0.8003 H         1 MOL     0.0342
     16 H          25.2511   11.9110    0.3340 H         1 MOL     0.0342
     17 H          24.5988    9.8953    0.3896 H         1 MOL     0.0654
     18 H          25.6098    8.0776   -0.8077 H         1 MOL     0.0619
     19 H          24.7856    7.5244   -3.0093 H         1 MOL     0.0618
     20 H          22.9769    8.7821   -3.9828 H         1 MOL     0.0625
@<TRIPOS>BOND
     1    1    2 1 
     2    1   14 1 
     3    1   15 1 
     4    1   16 1 
     5    2   10 2 
     6    2   11 1 
     7    3    4 ar
     8    3    8 ar
     9    3   11 1 
    10    4    5 ar
    11    4   17 1 
    12    5    6 ar
    13    5   18 1 
    14    6    7 ar
    15    6   19 1 
    16    7    8 ar
    17    7   20 1 
    18    8    9 1 
    19    9   12 ar
    20    9   13 ar
@<TRIPOS>SUBSTRUCTURE
1 MOL         1
@<TRIPOS>MOLECULE
query molecule
   20    20     1     0     0
SMALL
NO_CHARGE

@<TRIPOS>ATOM
      1 C         -11.6056   17.7529  -13.5998 C.3       1 MOL     0.1362
      2 C         -10.9931   18.3503  -12.3862 C.2       1 MOL     0.3092
      3 C          -9.3952   19.7546  -13.5765 C.ar      1 MOL     0.1404
      4 C          -9.9135   20.8024  -14.3076 C.ar      1 MOL     0.0468
      5 C          -9.3199   21.3004  -15.4505 C.ar      1 MOL     0.0037
      6 C          -8.1508   20.7204  -15.8796 C.ar      1 MOL     0.0009
      7 C          -7.5897   19.6699  -15.1868 C.ar      1 MOL     0.0131
      8 C          -8.2190   19.1942  -14.0355 C.ar      1 MOL     0.0397
      9 C          -7.5922   18.0814  -13.3322 C.2       1 MOL     0.0752
     10 O         -11.3989   18.0828  -11.2147 O.2       1 MOL    -0.2507
     11 O          -9.9489   19.2299  -12.4402 O.3       1 MOL    -0.4254
     12 O          -8.1758   16.9727  -13.2251 O.co2     1 MOL    -0.5445
     13 O          -6.3384   18.2020  -12.7567 O.co2     1 MOL    -0.5445
     14 H         -12.4010   17.0979  -13.3114 H         1 MOL     0.0342
     15 H         -10.8646   17.1989  -14.1369 H         1 MOL     0.0342
     16 H         -11.9914   18.5311  -14.2241 H         1 MOL     0.0342
     17 H         -10.7912   21.2374  -13.9835 H         1 MOL     0.0654
     18 H          -9.7426   22.0878  -15.9676 H         1 MOL     0.0619
     19 H          -7.6874   21.0748  -16.7310 H         1 MOL     0.0618
     20 H          -6.7109   19.2392  -15.5153 H         1 MOL     0.0625
@<TRIPOS>BOND
     1    1    2 1 
     2    1   14 1 
     3    1   15 1 
     4    1   16 1 
     5    2   10 2 
     6    2   11 1 
     7    3    4 ar
     8    3    8 ar
     9    3   11 1 
    10    4    5 ar
    11    4   17 1 
    12    5    6 ar
    13    5   18 1 
    14    6    7 ar
    15    6   19 1 
    16    7    8 ar
    17    7   20 1 
    18    8    9 1 
    19    9   12 ar
    20    9   13 ar
@<TRIPOS>SUBSTRUCTURE
1 MOL         1
@<TRIPOS>MOLECULE
query molecule
   20    20     1     0     0
SMALL
NO_CHARGE

@<TRIPOS>ATOM
      1 C          30.4495   27.0026    2.6446 C.3       1 MOL     0.1362
      2 C          29.9311   25.8079    3.3578 C.2       1 MOL     0.3092
      3 C          29.4827   23.4120    3.3881 C.ar      1 MOL     0.1404
      4 C          29.8519   22.8013    4.5677 C.ar      1 MOL     0.0468
      5 C          29.2442   21.6624    5.0581 C.ar      1 MOL     0.0037
      6 C          28.2172   21.1110    4.3312 C.ar      1 MOL     0.0009
      7 C          27.8084   21.6806    3.1451 C.ar      1 MOL     0.0131
      8 C          28.4469   22.8320    2.6818 C.ar      1 MOL     0.0397
      9 C          27.9836   23.4027    1.4227 C.2       1 MOL     0.0752
     10 O          29.3350   25.8851    4.4747 O.2       1 MOL    -0.2507
     11 O          30.0560   24.5395    2.8654 O.3       1 MOL    -0.4254
     12 O          26.9658   22.9469    0.8414 O.co2     1 MOL    -0.5445
     13 O          28.6433   24.4608    0.8205 O.co2     1 MOL    -0.5445
     14 H          30.2360   27.8802    3.2184 H         1 MOL     0.0342
     15 H          29.9776   27.0789    1.6875 H         1 MOL     0.0342
     16 H          31.5071   26.9089    2.5144 H         1 MOL     0.0342
     17 H          30.6229   23.2171    5.1129 H         1 MOL     0.0654
     18 H          29.5526   21.2377    5.9473 H         1 MOL     0.0619
     19 H          27.7466   20.2599    4.6766 H         1 MOL     0.0618
     20 H          27.0358   21.2606    2.6043 H         1 MOL     0.0625
@<TRIPOS>BOND
     1    1    2 1 
     2    1   14 1 
     3    1   15 1 
     4    1   16 1 
     5    2   10 2 
     6    2   11 1 
     7    3    4 ar
     8    3    8 ar
     9    3   11 1 
    10    4    5 ar
    11    4   17 1 
    12    5    6 ar
    13    5   18 1 
    14    6    7 ar
    15    6   19 1 
    16    7    8 ar
    17    7   20 1 
    18    8    9 1 
    19    9   12 ar
    20    9   13 ar
@<TRIPOS>SUBSTRUCTURE
1 MOL         1
