@<TRIPOS>MOLECULE
query molecule
   20    20     1     0     0
SMALL
NO_CHARGE

@<TRIPOS>ATOM
      1 C           6.6376   14.2661    5.8221 C.3       1 MOL     0.1362
      2 C           6.9633   14.9967    4.5220 C.2       1 MOL     0.3092
      3 C           8.2429   14.5133    2.5923 C.ar      1 MOL     0.1404
      4 C           7.5484   14.6698    1.3864 C.ar      1 MOL     0.0468
      5 C           8.2050   15.0339    0.2156 C.ar      1 MOL     0.0037
      6 C           9.5807   15.2421    0.2366 C.ar      1 MOL     0.0009
      7 C          10.2915   15.0773    1.4246 C.ar      1 MOL     0.0131
      8 C           9.6375   14.7064    2.6197 C.ar      1 MOL     0.0397
      9 C          10.5078   14.5215    3.8500 C.2       1 MOL     0.0752
     10 O           6.7101   16.1715    4.3241 O.2       1 MOL    -0.2507
     11 O           7.5536   14.1486    3.7243 O.3       1 MOL    -0.4254
     12 O           9.9486   14.1525    4.9242 O.co2     1 MOL    -0.5445
     13 O          11.7493   14.7429    3.6931 O.co2     1 MOL    -0.5445
     14 H           6.1419   14.9721    6.5186 H         1 MOL     0.0342
     15 H           7.5582   13.8738    6.3046 H         1 MOL     0.0342
     16 H           5.9477   13.4246    5.6183 H         1 MOL     0.0342
     17 H           6.4827   14.5082    1.3793 H         1 MOL     0.0654
     18 H           7.6410   15.1552   -0.6962 H         1 MOL     0.0619
     19 H          10.0894   15.5305   -0.6695 H         1 MOL     0.0618
     20 H          11.3622   15.2374    1.4227 H         1 MOL     0.0625
@<TRIPOS>BOND
     1    1    2 1 
     2    1   14 1 
     3    1   15 1 
     4    1   16 1 
     5    2   10 2 
     6    2   11 1 
     7    3    4 ar
     8    3    8 ar
     9    3   11 1 
    10    4    5 ar
    11    4   17 1 
    12    5    6 ar
    13    5   18 1 
    14    6    7 ar
    15    6   19 1 
    16    7    8 ar
    17    7   20 1 
    18    8    9 1 
    19    9   12 ar
    20    9   13 ar
@<TRIPOS>SUBSTRUCTURE
1 MOL         1
@<TRIPOS>MOLECULE
query molecule
   20    20     1     0     0
SMALL
NO_CHARGE

@<TRIPOS>ATOM
      1 C          11.5962   17.9157   -1.2752 C.3       1 MOL     0.1362
      2 C          11.8180   16.6922   -0.3932 C.2       1 MOL     0.3092
      3 C          10.7354   15.7524    1.4829 C.ar      1 MOL     0.1404
      4 C          11.6994   15.6312    2.5047 C.ar      1 MOL     0.0468
      5 C          11.5293   14.7089    3.5379 C.ar      1 MOL     0.0037
      6 C          10.3908   13.9036    3.5657 C.ar      1 MOL     0.0009
      7 C           9.4323   14.0179    2.5596 C.ar      1 MOL     0.0131
      8 C           9.5926   14.9294    1.4969 C.ar      1 MOL     0.0397
      9 C           8.5001   14.9626    0.4369 C.2       1 MOL     0.0752
     10 O          12.7036   15.8764   -0.5364 O.2       1 MOL    -0.2507
     11 O          10.8996   16.7071    0.5170 O.3       1 MOL    -0.4254
     12 O           8.6348   15.7744   -0.5261 O.co2     1 MOL    -0.5445
     13 O           7.5308   14.1561    0.6030 O.co2     1 MOL    -0.5445
     14 H          12.3631   17.9721   -2.0720 H         1 MOL     0.0342
     15 H          11.6470   18.8380   -0.6594 H         1 MOL     0.0342
     16 H          10.5917   17.8647   -1.7457 H         1 MOL     0.0342
     17 H          12.5800   16.2588    2.4950 H         1 MOL     0.0654
     18 H          12.2726   14.6187    4.3168 H         1 MOL     0.0619
     19 H          10.2519   13.1911    4.3656 H         1 MOL     0.0618
     20 H           8.5496   13.3933    2.5961 H         1 MOL     0.0625
@<TRIPOS>BOND
     1    1    2 1 
     2    1   14 1 
     3    1   15 1 
     4    1   16 1 
     5    2   10 2 
     6    2   11 1 
     7    3    4 ar
     8    3    8 ar
     9    3   11 1 
    10    4    5 ar
    11    4   17 1 
    12    5    6 ar
    13    5   18 1 
    14    6    7 ar
    15    6   19 1 
    16    7    8 ar
    17    7   20 1 
    18    8    9 1 
    19    9   12 ar
    20    9   13 ar
@<TRIPOS>SUBSTRUCTURE
1 MOL         1
@<TRIPOS>MOLECULE
query molecule
   20    20     1     0     0
SMALL
NO_CHARGE

@<TRIPOS>ATOM
      1 C          13.0792   15.8788    3.9130 C.3       1 MOL     0.1362
      2 C          11.7745   16.2088    3.2117 C.2       1 MOL     0.3092
      3 C          10.3140   15.1345    1.7136 C.ar      1 MOL     0.1404
      4 C          10.4882   15.6095    0.3975 C.ar      1 MOL     0.0468
      5 C           9.4416   15.5715   -0.5176 C.ar      1 MOL     0.0037
      6 C           8.2099   15.0469   -0.1311 C.ar      1 MOL     0.0009
      7 C           8.0320   14.5580    1.1673 C.ar      1 MOL     0.0131
      8 C           9.0746   14.6150    2.1165 C.ar      1 MOL     0.0397
      9 C           8.7892   14.1117    3.5240 C.2       1 MOL     0.0752
     10 O          11.2059   17.2886    3.2629 O.2       1 MOL    -0.2507
     11 O          11.3990   15.1439    2.5560 O.3       1 MOL    -0.4254
     12 O           7.7963   13.3406    3.6485 O.co2     1 MOL    -0.5445
     13 O           9.5535   14.4896    4.4628 O.co2     1 MOL    -0.5445
     14 H          13.4788   16.7727    4.4307 H         1 MOL     0.0342
     15 H          13.8233   15.5299    3.1665 H         1 MOL     0.0342
     16 H          12.9136   15.0714    4.6554 H         1 MOL     0.0342
     17 H          11.4485   16.0079    0.1010 H         1 MOL     0.0654
     18 H           9.5871   15.9415   -1.5206 H         1 MOL     0.0619
     19 H           7.3982   15.0063   -0.8429 H         1 MOL     0.0618
     20 H           7.0719   14.1454    1.4455 H         1 MOL     0.0625
@<TRIPOS>BOND
     1    1    2 1 
     2    1   14 1 
     3    1   15 1 
     4    1   16 1 
     5    2   10 2 
     6    2   11 1 
     7    3    4 ar
     8    3    8 ar
     9    3   11 1 
    10    4    5 ar
    11    4   17 1 
    12    5    6 ar
    13    5   18 1 
    14    6    7 ar
    15    6   19 1 
    16    7    8 ar
    17    7   20 1 
    18    8    9 1 
    19    9   12 ar
    20    9   13 ar
@<TRIPOS>SUBSTRUCTURE
1 MOL         1
@<TRIPOS>MOLECULE
query molecule
   20    20     1     0     0
SMALL
NO_CHARGE

@<TRIPOS>ATOM
      1 C           8.2587   14.3085    1.4755 C.3       1 MOL     0.1362
      2 C           9.7467   14.4933    1.7511 C.2       1 MOL     0.3092
      3 C          11.2598   16.2840    1.9900 C.ar      1 MOL     0.1404
      4 C          11.6261   16.6124    3.3076 C.ar      1 MOL     0.0468
      5 C          12.8901   17.1266    3.5913 C.ar      1 MOL     0.0037
      6 C          13.8109   17.3072    2.5592 C.ar      1 MOL     0.0009
      7 C          13.4547   16.9672    1.2526 C.ar      1 MOL     0.0131
      8 C          12.1768   16.4678    0.9456 C.ar      1 MOL     0.0397
      9 C          11.8670   16.1635   -0.5030 C.2       1 MOL     0.0752
     10 O          10.5403   13.5862    1.9230 O.2       1 MOL    -0.2507
     11 O           9.9974   15.7869    1.7599 O.3       1 MOL    -0.4254
     12 O          10.6745   15.9137   -0.8352 O.co2     1 MOL    -0.5445
     13 O          12.8712   16.1716   -1.2692 O.co2     1 MOL    -0.5445
     14 H           8.0009   13.2307    1.4557 H         1 MOL     0.0342
     15 H           7.9881   14.7652    0.5014 H         1 MOL     0.0342
     16 H           7.6732   14.8029    2.2776 H         1 MOL     0.0342
     17 H          10.9166   16.4606    4.1088 H         1 MOL     0.0654
     18 H          13.1534   17.3798    4.6066 H         1 MOL     0.0619
     19 H          14.7890   17.7087    2.7750 H         1 MOL     0.0618
     20 H          14.1824   17.1029    0.4602 H         1 MOL     0.0625
@<TRIPOS>BOND
     1    1    2 1 
     2    1   14 1 
     3    1   15 1 
     4    1   16 1 
     5    2   10 2 
     6    2   11 1 
     7    3    4 ar
     8    3    8 ar
     9    3   11 1 
    10    4    5 ar
    11    4   17 1 
    12    5    6 ar
    13    5   18 1 
    14    6    7 ar
    15    6   19 1 
    16    7    8 ar
    17    7   20 1 
    18    8    9 1 
    19    9   12 ar
    20    9   13 ar
@<TRIPOS>SUBSTRUCTURE
1 MOL         1
@<TRIPOS>MOLECULE
query molecule
   20    20     1     0     0
SMALL
NO_CHARGE

@<TRIPOS>ATOM
      1 C          18.0050   20.1139    5.9552 C.3       1 MOL     0.1362
      2 C          18.7319   19.6260    7.2023 C.2       1 MOL     0.3092
      3 C          18.1164   18.4290    9.1401 C.ar      1 MOL     0.1404
      4 C          18.9440   17.3088    9.3537 C.ar      1 MOL     0.0468
      5 C          19.0945   16.7660   10.6318 C.ar      1 MOL     0.0037
      6 C          18.4070   17.3285   11.7069 C.ar      1 MOL     0.0009
      7 C          17.6022   18.4477   11.5038 C.ar      1 MOL     0.0131
      8 C          17.4660   19.0296   10.2300 C.ar      1 MOL     0.0397
      9 C          16.6127   20.2684   10.1361 C.2       1 MOL     0.0752
     10 O          19.8751   19.9169    7.4980 O.2       1 MOL    -0.2507
     11 O          17.9150   18.8785    7.8645 O.3       1 MOL    -0.4254
     12 O          16.0799   20.6723   11.2135 O.co2     1 MOL    -0.5445
     13 O          16.4543   20.8155    9.0026 O.co2     1 MOL    -0.5445
     14 H          18.6696   20.7646    5.3520 H         1 MOL     0.0342
     15 H          17.1090   20.6976    6.2549 H         1 MOL     0.0342
     16 H          17.6787   19.2553    5.3337 H         1 MOL     0.0342
     17 H          19.4676   16.8523    8.5246 H         1 MOL     0.0654
     18 H          19.7364   15.9107   10.7914 H         1 MOL     0.0619
     19 H          18.5008   16.8987   12.6937 H         1 MOL     0.0618
     20 H          17.0738   18.8779   12.3441 H         1 MOL     0.0625
@<TRIPOS>BOND
     1    1    2 1 
     2    1   14 1 
     3    1   15 1 
     4    1   16 1 
     5    2   10 2 
     6    2   11 1 
     7    3    4 ar
     8    3    8 ar
     9    3   11 1 
    10    4    5 ar
    11    4   17 1 
    12    5    6 ar
    13    5   18 1 
    14    6    7 ar
    15    6   19 1 
    16    7    8 ar
    17    7   20 1 
    18    8    9 1 
    19    9   12 ar
    20    9   13 ar
@<TRIPOS>SUBSTRUCTURE
1 MOL         1
@<TRIPOS>MOLECULE
query molecule
   20    20     1     0     0
SMALL
NO_CHARGE

@<TRIPOS>ATOM
      1 C           9.7162   26.0567   -8.1271 C.3       1 MOL     0.1362
      2 C           9.9575   26.6818   -6.7592 C.2       1 MOL     0.3092
      3 C          11.5509   26.4448   -5.0431 C.ar      1 MOL     0.1404
      4 C          12.0043   27.6855   -4.5771 C.ar      1 MOL     0.0468
      5 C          12.4749   27.8245   -3.2663 C.ar      1 MOL     0.0037
      6 C          12.4827   26.7315   -2.4051 C.ar      1 MOL     0.0009
      7 C          12.0321   25.4983   -2.8545 C.ar      1 MOL     0.0131
      8 C          11.5759   25.3379   -4.1807 C.ar      1 MOL     0.0397
      9 C          11.2129   23.9316   -4.6140 C.2       1 MOL     0.0752
     10 O           9.1572   27.3935   -6.1782 O.2       1 MOL    -0.2507
     11 O          11.1294   26.3019   -6.3387 O.3       1 MOL    -0.4254
     12 O          11.4974   23.0281   -3.7662 O.co2     1 MOL    -0.5445
     13 O          10.7088   23.7413   -5.7574 O.co2     1 MOL    -0.5445
     14 H           8.7091   26.3368   -8.4989 H         1 MOL     0.0342
     15 H           9.7705   24.9506   -8.0476 H         1 MOL     0.0342
     16 H          10.4795   26.4039   -8.8502 H         1 MOL     0.0342
     17 H          11.9956   28.5414   -5.2367 H         1 MOL     0.0654
     18 H          12.8316   28.7853   -2.9235 H         1 MOL     0.0619
     19 H          12.8392   26.8422   -1.3873 H         1 MOL     0.0618
     20 H          12.0432   24.6465   -2.1879 H         1 MOL     0.0625
@<TRIPOS>BOND
     1    1    2 1 
     2    1   14 1 
     3    1   15 1 
     4    1   16 1 
     5    2   10 2 
     6    2   11 1 
     7    3    4 ar
     8    3    8 ar
     9    3   11 1 
    10    4    5 ar
    11    4   17 1 
    12    5    6 ar
    13    5   18 1 
    14    6    7 ar
    15    6   19 1 
    16    7    8 ar
    17    7   20 1 
    18    8    9 1 
    19    9   12 ar
    20    9   13 ar
@<TRIPOS>SUBSTRUCTURE
1 MOL         1
@<TRIPOS>MOLECULE
query molecule
   20    20     1     0     0
SMALL
NO_CHARGE

@<TRIPOS>ATOM
      1 C          10.6093   10.9548    4.0680 C.3       1 MOL     0.1362
      2 C           9.3332   11.7843    4.0831 C.2       1 MOL     0.3092
      3 C           8.6458   14.0063    3.8940 C.ar      1 MOL     0.1404
      4 C           8.0385   14.4000    5.1005 C.ar      1 MOL     0.0468
      5 C           6.9758   15.2898    5.0921 C.ar      1 MOL     0.0037
      6 C           6.5119   15.7945    3.8831 C.ar      1 MOL     0.0009
      7 C           7.1071   15.4146    2.6875 C.ar      1 MOL     0.0131
      8 C           8.1976   14.5278    2.6741 C.ar      1 MOL     0.0397
      9 C           8.8171   14.2031    1.3319 C.2       1 MOL     0.0752
     10 O           8.2052   11.3313    4.1971 O.2       1 MOL    -0.2507
     11 O           9.6669   13.0728    3.9480 O.3       1 MOL    -0.4254
     12 O           9.8674   13.4975    1.3232 O.co2     1 MOL    -0.5445
     13 O           8.2247   14.6779    0.3145 O.co2     1 MOL    -0.5445
     14 H          10.3573    9.8748    4.0381 H         1 MOL     0.0342
     15 H          11.2102   11.1581    4.9778 H         1 MOL     0.0342
     16 H          11.2167   11.2052    3.1742 H         1 MOL     0.0342
     17 H           8.3969   13.9943    6.0358 H         1 MOL     0.0654
     18 H           6.5092   15.5813    6.0207 H         1 MOL     0.0619
     19 H           5.6816   16.4893    3.8758 H         1 MOL     0.0618
     20 H           6.7298   15.8095    1.7541 H         1 MOL     0.0625
@<TRIPOS>BOND
     1    1    2 1 
     2    1   14 1 
     3    1   15 1 
     4    1   16 1 
     5    2   10 2 
     6    2   11 1 
     7    3    4 ar
     8    3    8 ar
     9    3   11 1 
    10    4    5 ar
    11    4   17 1 
    12    5    6 ar
    13    5   18 1 
    14    6    7 ar
    15    6   19 1 
    16    7    8 ar
    17    7   20 1 
    18    8    9 1 
    19    9   12 ar
    20    9   13 ar
@<TRIPOS>SUBSTRUCTURE
1 MOL         1
@<TRIPOS>MOLECULE
query molecule
   20    20     1     0     0
SMALL
NO_CHARGE

@<TRIPOS>ATOM
      1 C          10.5588   27.5314   -8.1577 C.3       1 MOL     0.1362
      2 C          10.3044   27.1104   -6.7133 C.2       1 MOL     0.3092
      3 C          11.5809   26.2234   -4.9311 C.ar      1 MOL     0.1404
      4 C          11.9558   27.1528   -3.9512 C.ar      1 MOL     0.0468
      5 C          12.1315   26.7717   -2.6244 C.ar      1 MOL     0.0037
      6 C          11.9378   25.4423   -2.2586 C.ar      1 MOL     0.0009
      7 C          11.5764   24.5025   -3.2227 C.ar      1 MOL     0.0131
      8 C          11.3964   24.8744   -4.5730 C.ar      1 MOL     0.0397
      9 C          11.0386   23.7685   -5.5489 C.2       1 MOL     0.0752
     10 O           9.2219   27.1996   -6.1622 O.2       1 MOL    -0.2507
     11 O          11.4220   26.6424   -6.2297 O.3       1 MOL    -0.4254
     12 O          11.3478   23.9247   -6.7657 O.co2     1 MOL    -0.5445
     13 O          10.4605   22.7526   -5.0511 O.co2     1 MOL    -0.5445
     14 H           9.6168   27.9241   -8.5916 H         1 MOL     0.0342
     15 H          10.9047   26.6725   -8.7711 H         1 MOL     0.0342
     16 H          11.3246   28.3306   -8.1879 H         1 MOL     0.0342
     17 H          12.1032   28.1804   -4.2412 H         1 MOL     0.0654
     18 H          12.4122   27.5118   -1.8903 H         1 MOL     0.0619
     19 H          12.0670   25.1493   -1.2298 H         1 MOL     0.0618
     20 H          11.4362   23.4719   -2.9243 H         1 MOL     0.0625
@<TRIPOS>BOND
     1    1    2 1 
     2    1   14 1 
     3    1   15 1 
     4    1   16 1 
     5    2   10 2 
     6    2   11 1 
     7    3    4 ar
     8    3    8 ar
     9    3   11 1 
    10    4    5 ar
    11    4   17 1 
    12    5    6 ar
    13    5   18 1 
    14    6    7 ar
    15    6   19 1 
    16    7    8 ar
    17    7   20 1 
    18    8    9 1 
    19    9   12 ar
    20    9   13 ar
@<TRIPOS>SUBSTRUCTURE
1 MOL         1
@<TRIPOS>MOLECULE
query molecule
   20    20     1     0     0
SMALL
NO_CHARGE

@<TRIPOS>ATOM
      1 C           7.4608   33.8263   15.5901 C.3       1 MOL     0.1362
      2 C           7.0476   32.5100   14.9494 C.2       1 MOL     0.3092
      3 C           5.4037   30.9059   15.4096 C.ar      1 MOL     0.1404
      4 C           4.1823   31.1634   14.7517 C.ar      1 MOL     0.0468
      5 C           3.2946   30.1300   14.4726 C.ar      1 MOL     0.0037
      6 C           3.6170   28.8255   14.8395 C.ar      1 MOL     0.0009
      7 C           4.8394   28.5622   15.4576 C.ar      1 MOL     0.0131
      8 C           5.7635   29.5917   15.7430 C.ar      1 MOL     0.0397
      9 C           7.0831   29.2068   16.3888 C.2       1 MOL     0.0752
     10 O           7.4543   32.0898   13.8826 O.2       1 MOL    -0.2507
     11 O           6.1846   31.9762   15.7338 O.3       1 MOL    -0.4254
     12 O           7.4208   27.9739   16.3601 O.co2     1 MOL    -0.5445
     13 O           7.8070   30.1365   16.8682 O.co2     1 MOL    -0.5445
     14 H           8.1531   34.3740   14.9180 H         1 MOL     0.0342
     15 H           7.9629   33.6421   16.5599 H         1 MOL     0.0342
     16 H           6.5631   34.4571   15.7605 H         1 MOL     0.0342
     17 H           3.9310   32.1771   14.4725 H         1 MOL     0.0654
     18 H           2.3580   30.3417   13.9806 H         1 MOL     0.0619
     19 H           2.9200   28.0241   14.6444 H         1 MOL     0.0618
     20 H           5.0814   27.5422   15.7273 H         1 MOL     0.0625
@<TRIPOS>BOND
     1    1    2 1 
     2    1   14 1 
     3    1   15 1 
     4    1   16 1 
     5    2   10 2 
     6    2   11 1 
     7    3    4 ar
     8    3    8 ar
     9    3   11 1 
    10    4    5 ar
    11    4   17 1 
    12    5    6 ar
    13    5   18 1 
    14    6    7 ar
    15    6   19 1 
    16    7    8 ar
    17    7   20 1 
    18    8    9 1 
    19    9   12 ar
    20    9   13 ar
@<TRIPOS>SUBSTRUCTURE
1 MOL         1
@<TRIPOS>MOLECULE
query molecule
   20    20     1     0     0
SMALL
NO_CHARGE

@<TRIPOS>ATOM
      1 C           6.6744   14.8709   13.5218 C.3       1 MOL     0.1362
      2 C           6.8074   15.0363   12.0131 C.2       1 MOL     0.3092
      3 C           6.4732   13.6769   10.1098 C.ar      1 MOL     0.1404
      4 C           7.6387   13.7408    9.3210 C.ar      1 MOL     0.0468
      5 C           7.5800   13.5357    7.9417 C.ar      1 MOL     0.0037
      6 C           6.3567   13.2664    7.3324 C.ar      1 MOL     0.0009
      7 C           5.2051   13.1829    8.1097 C.ar      1 MOL     0.0131
      8 C           5.2420   13.3662    9.5046 C.ar      1 MOL     0.0397
      9 C           3.9310   13.1779   10.2518 C.2       1 MOL     0.0752
     10 O           7.0829   16.0866   11.4616 O.2       1 MOL    -0.2507
     11 O           6.5694   13.8802   11.4628 O.3       1 MOL    -0.4254
     12 O           2.9584   12.6767    9.6043 O.co2     1 MOL    -0.5445
     13 O           3.9051   13.5262   11.4695 O.co2     1 MOL    -0.5445
     14 H           6.8991   15.8293   14.0317 H         1 MOL     0.0342
     15 H           7.3781   14.0938   13.8839 H         1 MOL     0.0342
     16 H           5.6389   14.5623   13.7759 H         1 MOL     0.0342
     17 H           8.5920   13.9562    9.7859 H         1 MOL     0.0654
     18 H           8.4811   13.5843    7.3476 H         1 MOL     0.0619
     19 H           6.3018   13.1168    6.2653 H         1 MOL     0.0618
     20 H           4.2562   12.9744    7.6348 H         1 MOL     0.0625
@<TRIPOS>BOND
     1    1    2 1 
     2    1   14 1 
     3    1   15 1 
     4    1   16 1 
     5    2   10 2 
     6    2   11 1 
     7    3    4 ar
     8    3    8 ar
     9    3   11 1 
    10    4    5 ar
    11    4   17 1 
    12    5    6 ar
    13    5   18 1 
    14    6    7 ar
    15    6   19 1 
    16    7    8 ar
    17    7   20 1 
    18    8    9 1 
    19    9   12 ar
    20    9   13 ar
@<TRIPOS>SUBSTRUCTURE
1 MOL         1
@<TRIPOS>MOLECULE
query molecule
   20    20     1     0     0
SMALL
NO_CHARGE

@<TRIPOS>ATOM
      1 C           5.3952   13.8718   11.3874 C.3       1 MOL     0.1362
      2 C           6.6899   14.3954   10.7739 C.2       1 MOL     0.3092
      3 C           8.8889   14.7707   11.5371 C.ar      1 MOL     0.1404
      4 C           9.7514   13.7533   11.0767 C.ar      1 MOL     0.0468
      5 C          11.1323   13.9475   11.0403 C.ar      1 MOL     0.0037
      6 C          11.6716   15.1567   11.4682 C.ar      1 MOL     0.0009
      7 C          10.8208   16.1782   11.8911 C.ar      1 MOL     0.0131
      8 C           9.4196   16.0183   11.8810 C.ar      1 MOL     0.0397
      9 C           8.5910   17.2385   12.2226 C.2       1 MOL     0.0752
     10 O           6.8372   14.6717    9.6013 O.2       1 MOL    -0.2507
     11 O           7.5697   14.4727   11.7148 O.3       1 MOL    -0.4254
     12 O           7.4674   17.3766   11.6594 O.co2     1 MOL    -0.5445
     13 O           9.1239   18.0640   13.0185 O.co2     1 MOL    -0.5445
     14 H           4.6159   13.7609   10.6067 H         1 MOL     0.0342
     15 H           5.0254   14.5571   12.1753 H         1 MOL     0.0342
     16 H           5.5836   12.8760   11.8434 H         1 MOL     0.0342
     17 H           9.3387   12.8051   10.7614 H         1 MOL     0.0654
     18 H          11.7811   13.1594   10.6868 H         1 MOL     0.0619
     19 H          12.7412   15.3039   11.4741 H         1 MOL     0.0618
     20 H          11.2465   17.1178   12.2137 H         1 MOL     0.0625
@<TRIPOS>BOND
     1    1    2 1 
     2    1   14 1 
     3    1   15 1 
     4    1   16 1 
     5    2   10 2 
     6    2   11 1 
     7    3    4 ar
     8    3    8 ar
     9    3   11 1 
    10    4    5 ar
    11    4   17 1 
    12    5    6 ar
    13    5   18 1 
    14    6    7 ar
    15    6   19 1 
    16    7    8 ar
    17    7   20 1 
    18    8    9 1 
    19    9   12 ar
    20    9   13 ar
@<TRIPOS>SUBSTRUCTURE
1 MOL         1
@<TRIPOS>MOLECULE
query molecule
   20    20     1     0     0
SMALL
NO_CHARGE

@<TRIPOS>ATOM
      1 C          17.5512   19.8915   11.7530 C.3       1 MOL     0.1362
      2 C          17.1598   19.9092   10.2787 C.2       1 MOL     0.3092
      3 C          18.1669   19.2259    8.2527 C.ar      1 MOL     0.1404
      4 C          18.0675   20.2981    7.3494 C.ar      1 MOL     0.0468
      5 C          18.1435   20.0879    5.9737 C.ar      1 MOL     0.0037
      6 C          18.3288   18.7973    5.4801 C.ar      1 MOL     0.0009
      7 C          18.4325   17.7243    6.3691 C.ar      1 MOL     0.0131
      8 C          18.3292   17.9176    7.7625 C.ar      1 MOL     0.0397
      9 C          18.3662   16.6917    8.6640 C.2       1 MOL     0.0752
     10 O          16.0886   20.2965    9.8593 O.2       1 MOL    -0.2507
     11 O          18.1600   19.4684    9.5978 O.3       1 MOL    -0.4254
     12 O          18.5240   15.5791    8.0716 O.co2     1 MOL    -0.5445
     13 O          18.2152   16.8531    9.9116 O.co2     1 MOL    -0.5445
     14 H          16.7822   20.4208   12.3530 H         1 MOL     0.0342
     15 H          18.5310   20.3899   11.9022 H         1 MOL     0.0342
     16 H          17.6239   18.8441   12.1128 H         1 MOL     0.0342
     17 H          17.9406   21.3028    7.7294 H         1 MOL     0.0654
     18 H          18.0651   20.9209    5.2918 H         1 MOL     0.0619
     19 H          18.3901   18.6252    4.4158 H         1 MOL     0.0618
     20 H          18.5767   16.7241    5.9793 H         1 MOL     0.0625
@<TRIPOS>BOND
     1    1    2 1 
     2    1   14 1 
     3    1   15 1 
     4    1   16 1 
     5    2   10 2 
     6    2   11 1 
     7    3    4 ar
     8    3    8 ar
     9    3   11 1 
    10    4    5 ar
    11    4   17 1 
    12    5    6 ar
    13    5   18 1 
    14    6    7 ar
    15    6   19 1 
    16    7    8 ar
    17    7   20 1 
    18    8    9 1 
    19    9   12 ar
    20    9   13 ar
@<TRIPOS>SUBSTRUCTURE
1 MOL         1
@<TRIPOS>MOLECULE
query molecule
   20    20     1     0     0
SMALL
NO_CHARGE

@<TRIPOS>ATOM
      1 C          13.4144   29.5211   -2.0290 C.3       1 MOL     0.1362
      2 C          13.4969   28.4730   -3.1284 C.2       1 MOL     0.3092
      3 C          11.9407   27.0967   -4.2172 C.ar      1 MOL     0.1404
      4 C          11.7146   27.5169   -5.5416 C.ar      1 MOL     0.0468
      5 C          11.1814   26.6445   -6.4906 C.ar      1 MOL     0.0037
      6 C          10.8670   25.3343   -6.1322 C.ar      1 MOL     0.0009
      7 C          11.1085   24.9039   -4.8317 C.ar      1 MOL     0.0131
      8 C          11.6705   25.7689   -3.8637 C.ar      1 MOL     0.0397
      9 C          11.9551   25.1990   -2.4978 C.2       1 MOL     0.0752
     10 O          14.5117   28.1735   -3.7309 O.2       1 MOL    -0.2507
     11 O          12.3308   28.0106   -3.2947 O.3       1 MOL    -0.4254
     12 O          11.4955   24.0331   -2.3301 O.co2     1 MOL    -0.5445
     13 O          12.6095   25.8684   -1.6506 O.co2     1 MOL    -0.5445
     14 H          14.4109   29.9658   -1.8382 H         1 MOL     0.0342
     15 H          13.0400   29.0599   -1.0914 H         1 MOL     0.0342
     16 H          12.7134   30.3284   -2.3298 H         1 MOL     0.0342
     17 H          11.9470   28.5351   -5.8227 H         1 MOL     0.0654
     18 H          11.0094   26.9885   -7.5003 H         1 MOL     0.0619
     19 H          10.4408   24.6638   -6.8630 H         1 MOL     0.0618
     20 H          10.8740   23.8808   -4.5612 H         1 MOL     0.0625
@<TRIPOS>BOND
     1    1    2 1 
     2    1   14 1 
     3    1   15 1 
     4    1   16 1 
     5    2   10 2 
     6    2   11 1 
     7    3    4 ar
     8    3    8 ar
     9    3   11 1 
    10    4    5 ar
    11    4   17 1 
    12    5    6 ar
    13    5   18 1 
    14    6    7 ar
    15    6   19 1 
    16    7    8 ar
    17    7   20 1 
    18    8    9 1 
    19    9   12 ar
    20    9   13 ar
@<TRIPOS>SUBSTRUCTURE
1 MOL         1
@<TRIPOS>MOLECULE
query molecule
   20    20     1     0     0
SMALL
NO_CHARGE

@<TRIPOS>ATOM
      1 C          -3.8426    7.2483   -0.2938 C.3       1 MOL     0.1362
      2 C          -3.4346    8.6279   -0.7912 C.2       1 MOL     0.3092
      3 C          -3.3322   10.8166    0.0738 C.ar      1 MOL     0.1404
      4 C          -4.1586   11.5988   -0.7595 C.ar      1 MOL     0.0468
      5 C          -3.9318   12.9633   -0.9006 C.ar      1 MOL     0.0037
      6 C          -2.8811   13.5620   -0.2274 C.ar      1 MOL     0.0009
      7 C          -2.0736   12.7967    0.5991 C.ar      1 MOL     0.0131
      8 C          -2.2852   11.4205    0.7779 C.ar      1 MOL     0.0397
      9 C          -1.3416   10.7202    1.7329 C.2       1 MOL     0.0752
     10 O          -3.0474    8.8691   -1.9223 O.2       1 MOL    -0.2507
     11 O          -3.5962    9.4746    0.1962 O.3       1 MOL    -0.4254
     12 O          -1.3288    9.4564    1.7321 O.co2     1 MOL    -0.5445
     13 O          -0.5993   11.4691    2.4457 O.co2     1 MOL    -0.5445
     14 H          -3.7538    6.5042   -1.1108 H         1 MOL     0.0342
     15 H          -4.8981    7.2778    0.0500 H         1 MOL     0.0342
     16 H          -3.1997    6.9351    0.5534 H         1 MOL     0.0342
     17 H          -4.9739   11.1342   -1.2959 H         1 MOL     0.0654
     18 H          -4.5697   13.5554   -1.5409 H         1 MOL     0.0619
     19 H          -2.6954   14.6197   -0.3404 H         1 MOL     0.0618
     20 H          -1.2635   13.2776    1.1347 H         1 MOL     0.0625
@<TRIPOS>BOND
     1    1    2 1 
     2    1   14 1 
     3    1   15 1 
     4    1   16 1 
     5    2   10 2 
     6    2   11 1 
     7    3    4 ar
     8    3    8 ar
     9    3   11 1 
    10    4    5 ar
    11    4   17 1 
    12    5    6 ar
    13    5   18 1 
    14    6    7 ar
    15    6   19 1 
    16    7    8 ar
    17    7   20 1 
    18    8    9 1 
    19    9   12 ar
    20    9   13 ar
@<TRIPOS>SUBSTRUCTURE
1 MOL         1
@<TRIPOS>MOLECULE
query molecule
   20    20     1     0     0
SMALL
NO_CHARGE

@<TRIPOS>ATOM
      1 C           0.6425   21.4214   12.3862 C.3       1 MOL     0.1362
      2 C          -0.0135   21.7723   11.0620 C.2       1 MOL     0.3092
      3 C          -1.7150   23.2178   10.3331 C.ar      1 MOL     0.1404
      4 C          -2.6687   22.4661    9.6218 C.ar      1 MOL     0.0468
      5 C          -3.4623   23.0660    8.6451 C.ar      1 MOL     0.0037
      6 C          -3.3117   24.4240    8.3716 C.ar      1 MOL     0.0009
      7 C          -2.3699   25.1716    9.0766 C.ar      1 MOL     0.0131
      8 C          -1.5445   24.5853   10.0533 C.ar      1 MOL     0.0397
      9 C          -0.4912   25.4638   10.7247 C.2       1 MOL     0.0752
     10 O           0.3333   21.3446    9.9725 O.2       1 MOL    -0.2507
     11 O          -0.9816   22.6017   11.3169 O.3       1 MOL    -0.4254
     12 O           0.3298   24.8950   11.5089 O.co2     1 MOL    -0.5445
     13 O          -0.4859   26.6955   10.4128 O.co2     1 MOL    -0.5445
     14 H           1.4144   20.6388   12.2486 H         1 MOL     0.0342
     15 H          -0.1243   21.0502   13.0971 H         1 MOL     0.0342
     16 H           1.1187   22.3279   12.8151 H         1 MOL     0.0342
     17 H          -2.7890   21.4138    9.8364 H         1 MOL     0.0654
     18 H          -4.1930   22.4800    8.1076 H         1 MOL     0.0619
     19 H          -3.9237   24.8925    7.6159 H         1 MOL     0.0618
     20 H          -2.2654   26.2246    8.8570 H         1 MOL     0.0625
@<TRIPOS>BOND
     1    1    2 1 
     2    1   14 1 
     3    1   15 1 
     4    1   16 1 
     5    2   10 2 
     6    2   11 1 
     7    3    4 ar
     8    3    8 ar
     9    3   11 1 
    10    4    5 ar
    11    4   17 1 
    12    5    6 ar
    13    5   18 1 
    14    6    7 ar
    15    6   19 1 
    16    7    8 ar
    17    7   20 1 
    18    8    9 1 
    19    9   12 ar
    20    9   13 ar
@<TRIPOS>SUBSTRUCTURE
1 MOL         1
@<TRIPOS>MOLECULE
query molecule
   20    20     1     0     0
SMALL
NO_CHARGE

@<TRIPOS>ATOM
      1 C          13.4054   29.4952   -2.1057 C.3       1 MOL     0.1362
      2 C          13.4688   28.0752   -2.6539 C.2       1 MOL     0.3092
      3 C          11.9479   26.5074   -3.5260 C.ar      1 MOL     0.1404
      4 C          11.9554   25.3419   -2.7418 C.ar      1 MOL     0.0468
      5 C          11.5800   24.1181   -3.2947 C.ar      1 MOL     0.0037
      6 C          11.2064   24.0355   -4.6315 C.ar      1 MOL     0.0009
      7 C          11.1961   25.1856   -5.4158 C.ar      1 MOL     0.0131
      8 C          11.5801   26.4333   -4.8820 C.ar      1 MOL     0.0397
      9 C          11.5682   27.6204   -5.8299 C.2       1 MOL     0.0752
     10 O          14.4943   27.4254   -2.7763 O.2       1 MOL    -0.2507
     11 O          12.2612   27.7054   -2.9437 O.3       1 MOL    -0.4254
     12 O          11.9581   28.7421   -5.3910 O.co2     1 MOL    -0.5445
     13 O          11.1621   27.3840   -7.0108 O.co2     1 MOL    -0.5445
     14 H          14.4084   29.8234   -1.7655 H         1 MOL     0.0342
     15 H          12.7024   29.5384   -1.2482 H         1 MOL     0.0342
     16 H          13.0485   30.1892   -2.8945 H         1 MOL     0.0342
     17 H          12.2406   25.3925   -1.7008 H         1 MOL     0.0654
     18 H          11.5873   23.2269   -2.6827 H         1 MOL     0.0619
     19 H          10.9124   23.0892   -5.0561 H         1 MOL     0.0618
     20 H          10.8887   25.1213   -6.4507 H         1 MOL     0.0625
@<TRIPOS>BOND
     1    1    2 1 
     2    1   14 1 
     3    1   15 1 
     4    1   16 1 
     5    2   10 2 
     6    2   11 1 
     7    3    4 ar
     8    3    8 ar
     9    3   11 1 
    10    4    5 ar
    11    4   17 1 
    12    5    6 ar
    13    5   18 1 
    14    6    7 ar
    15    6   19 1 
    16    7    8 ar
    17    7   20 1 
    18    8    9 1 
    19    9   12 ar
    20    9   13 ar
@<TRIPOS>SUBSTRUCTURE
1 MOL         1
@<TRIPOS>MOLECULE
query molecule
   20    20     1     0     0
SMALL
NO_CHARGE

@<TRIPOS>ATOM
      1 C           1.5358   11.1136  -13.0269 C.3       1 MOL     0.1362
      2 C           1.9594   12.4587  -12.4431 C.2       1 MOL     0.3092
      3 C           1.7735   13.5825  -10.3759 C.ar      1 MOL     0.1404
      4 C           2.9532   14.2646  -10.0415 C.ar      1 MOL     0.0468
      5 C           2.9060   15.4703   -9.3460 C.ar      1 MOL     0.0037
      6 C           1.6739   16.0104   -8.9811 C.ar      1 MOL     0.0009
      7 C           0.4937   15.3399   -9.3035 C.ar      1 MOL     0.0131
      8 C           0.5303   14.1064   -9.9754 C.ar      1 MOL     0.0397
      9 C          -0.7768   13.3788  -10.2257 C.2       1 MOL     0.0752
     10 O           2.3289   13.4062  -13.1156 O.2       1 MOL    -0.2507
     11 O           1.8315   12.4107  -11.1149 O.3       1 MOL    -0.4254
     12 O          -0.7292   12.1185  -10.3503 O.co2     1 MOL    -0.5445
     13 O          -1.8172   14.1016  -10.2738 O.co2     1 MOL    -0.5445
     14 H           1.6424   11.1321  -14.1310 H         1 MOL     0.0342
     15 H           0.4701   10.9222  -12.7780 H         1 MOL     0.0342
     16 H           2.1540   10.2929  -12.6144 H         1 MOL     0.0342
     17 H           3.9085   13.8514  -10.3333 H         1 MOL     0.0654
     18 H           3.8219   15.9879   -9.1018 H         1 MOL     0.0619
     19 H           1.6337   16.9484   -8.4469 H         1 MOL     0.0618
     20 H          -0.4590   15.7644   -9.0179 H         1 MOL     0.0625
@<TRIPOS>BOND
     1    1    2 1 
     2    1   14 1 
     3    1   15 1 
     4    1   16 1 
     5    2   10 2 
     6    2   11 1 
     7    3    4 ar
     8    3    8 ar
     9    3   11 1 
    10    4    5 ar
    11    4   17 1 
    12    5    6 ar
    13    5   18 1 
    14    6    7 ar
    15    6   19 1 
    16    7    8 ar
    17    7   20 1 
    18    8    9 1 
    19    9   12 ar
    20    9   13 ar
@<TRIPOS>SUBSTRUCTURE
1 MOL         1
@<TRIPOS>MOLECULE
query molecule
   20    20     1     0     0
SMALL
NO_CHARGE

@<TRIPOS>ATOM
      1 C          -2.7970   13.6383   -0.7558 C.3       1 MOL     0.1362
      2 C          -3.1868   12.5783    0.2598 C.2       1 MOL     0.3092
      3 C          -2.6430   10.3240    0.6772 C.ar      1 MOL     0.1404
      4 C          -3.4763    9.4015    0.0091 C.ar      1 MOL     0.0468
      5 C          -3.7501    8.1550    0.5704 C.ar      1 MOL     0.0037
      6 C          -3.1835    7.8120    1.7977 C.ar      1 MOL     0.0009
      7 C          -2.3519    8.7184    2.4597 C.ar      1 MOL     0.0131
      8 C          -2.0743    9.9875    1.9164 C.ar      1 MOL     0.0397
      9 C          -1.1797   10.9216    2.7092 C.2       1 MOL     0.0752
     10 O          -4.0688   12.7059    1.0902 O.2       1 MOL    -0.2507
     11 O          -2.4063   11.5379    0.0748 O.3       1 MOL    -0.4254
     12 O          -0.6897   11.9111    2.0930 O.co2     1 MOL    -0.5445
     13 O          -0.9930   10.6607    3.9374 O.co2     1 MOL    -0.5445
     14 H          -3.4545   14.5251   -0.6575 H         1 MOL     0.0342
     15 H          -2.8948   13.2308   -1.7834 H         1 MOL     0.0342
     16 H          -1.7452   13.9485   -0.5933 H         1 MOL     0.0342
     17 H          -3.9138    9.6562   -0.9464 H         1 MOL     0.0654
     18 H          -4.3992    7.4573    0.0609 H         1 MOL     0.0619
     19 H          -3.3958    6.8466    2.2340 H         1 MOL     0.0618
     20 H          -1.9124    8.4297    3.4041 H         1 MOL     0.0625
@<TRIPOS>BOND
     1    1    2 1 
     2    1   14 1 
     3    1   15 1 
     4    1   16 1 
     5    2   10 2 
     6    2   11 1 
     7    3    4 ar
     8    3    8 ar
     9    3   11 1 
    10    4    5 ar
    11    4   17 1 
    12    5    6 ar
    13    5   18 1 
    14    6    7 ar
    15    6   19 1 
    16    7    8 ar
    17    7   20 1 
    18    8    9 1 
    19    9   12 ar
    20    9   13 ar
@<TRIPOS>SUBSTRUCTURE
1 MOL         1
@<TRIPOS>MOLECULE
query molecule
   20    20     1     0     0
SMALL
NO_CHARGE

@<TRIPOS>ATOM
      1 C          11.3812   25.2200   -9.0129 C.3       1 MOL     0.1362
      2 C          11.6049   24.6246   -7.6202 C.2       1 MOL     0.3092
      3 C          11.2083   25.2966   -5.3843 C.ar      1 MOL     0.1404
      4 C          11.2016   24.1009   -4.6534 C.ar      1 MOL     0.0468
      5 C          11.5814   24.0868   -3.3134 C.ar      1 MOL     0.0037
      6 C          11.9554   25.2650   -2.6750 C.ar      1 MOL     0.0009
      7 C          11.9578   26.4655   -3.3813 C.ar      1 MOL     0.0131
      8 C          11.5808   26.4968   -4.7402 C.ar      1 MOL     0.0397
      9 C          11.6035   27.8357   -5.4562 C.2       1 MOL     0.0752
     10 O          12.3416   23.6749   -7.4026 O.2       1 MOL    -0.2507
     11 O          10.8987   25.2976   -6.7294 O.3       1 MOL    -0.4254
     12 O          11.0269   27.9253   -6.5795 O.co2     1 MOL    -0.5445
     13 O          12.2120   28.7708   -4.8510 O.co2     1 MOL    -0.5445
     14 H          11.9476   24.6296   -9.7660 H         1 MOL     0.0342
     15 H          11.7546   26.2658   -9.0464 H         1 MOL     0.0342
     16 H          10.3097   25.2140   -9.2926 H         1 MOL     0.0342
     17 H          10.9130   23.1796   -5.1392 H         1 MOL     0.0654
     18 H          11.5801   23.1557   -2.7648 H         1 MOL     0.0619
     19 H          12.2472   25.2474   -1.6359 H         1 MOL     0.0618
     20 H          12.2507   27.3785   -2.8786 H         1 MOL     0.0625
@<TRIPOS>BOND
     1    1    2 1 
     2    1   14 1 
     3    1   15 1 
     4    1   16 1 
     5    2   10 2 
     6    2   11 1 
     7    3    4 ar
     8    3    8 ar
     9    3   11 1 
    10    4    5 ar
    11    4   17 1 
    12    5    6 ar
    13    5   18 1 
    14    6    7 ar
    15    6   19 1 
    16    7    8 ar
    17    7   20 1 
    18    8    9 1 
    19    9   12 ar
    20    9   13 ar
@<TRIPOS>SUBSTRUCTURE
1 MOL         1
@<TRIPOS>MOLECULE
query molecule
   20    20     1     0     0
SMALL
NO_CHARGE

@<TRIPOS>ATOM
      1 C          17.9970   19.5983   13.9934 C.3       1 MOL     0.1362
      2 C          18.6107   19.5052   12.6043 C.2       1 MOL     0.3092
      3 C          18.1858   18.4094   10.5647 C.ar      1 MOL     0.1404
      4 C          19.0468   17.3125   10.3595 C.ar      1 MOL     0.0468
      5 C          19.4848   16.9848    9.0765 C.ar      1 MOL     0.0037
      6 C          19.0644   17.7476    7.9883 C.ar      1 MOL     0.0009
      7 C          18.1880   18.8137    8.1841 C.ar      1 MOL     0.0131
      8 C          17.7159   19.1510    9.4681 C.ar      1 MOL     0.0397
      9 C          16.7112   20.2893    9.5666 C.2       1 MOL     0.0752
     10 O          19.6490   20.0552   12.2683 O.2       1 MOL    -0.2507
     11 O          17.8312   18.7445   11.8558 O.3       1 MOL    -0.4254
     12 O          16.4514   20.8957    8.4795 O.co2     1 MOL    -0.5445
     13 O          16.1866   20.5499   10.6913 O.co2     1 MOL    -0.5445
     14 H          18.6883   20.1110   14.6921 H         1 MOL     0.0342
     15 H          17.7825   18.5811   14.3814 H         1 MOL     0.0342
     16 H          17.0480   20.1709   13.9414 H         1 MOL     0.0342
     17 H          19.3854   16.7216   11.2001 H         1 MOL     0.0654
     18 H          20.1524   16.1486    8.9266 H         1 MOL     0.0619
     19 H          19.4192   17.5110    6.9964 H         1 MOL     0.0618
     20 H          17.8591   19.3908    7.3310 H         1 MOL     0.0625
@<TRIPOS>BOND
     1    1    2 1 
     2    1   14 1 
     3    1   15 1 
     4    1   16 1 
     5    2   10 2 
     6    2   11 1 
     7    3    4 ar
     8    3    8 ar
     9    3   11 1 
    10    4    5 ar
    11    4   17 1 
    12    5    6 ar
    13    5   18 1 
    14    6    7 ar
    15    6   19 1 
    16    7    8 ar
    17    7   20 1 
    18    8    9 1 
    19    9   12 ar
    20    9   13 ar
@<TRIPOS>SUBSTRUCTURE
1 MOL         1
@<TRIPOS>MOLECULE
query molecule
   20    20     1     0     0
SMALL
NO_CHARGE

@<TRIPOS>ATOM
      1 C          21.6429    7.9971    1.9676 C.3       1 MOL     0.1362
      2 C          22.3030    7.7551    0.6169 C.2       1 MOL     0.3092
      3 C          23.8305    8.8194   -0.8242 C.ar      1 MOL     0.1404
      4 C          24.8587    7.9150   -1.1526 C.ar      1 MOL     0.0468
      5 C          25.4615    7.9511   -2.4082 C.ar      1 MOL     0.0037
      6 C          25.0379    8.8857   -3.3515 C.ar      1 MOL     0.0009
      7 C          24.0293    9.7916   -3.0272 C.ar      1 MOL     0.0131
      8 C          23.4421    9.8026   -1.7490 C.ar      1 MOL     0.0397
      9 C          22.4583   10.9227   -1.4566 C.2       1 MOL     0.0752
     10 O          22.0207    6.8328   -0.1366 O.2       1 MOL    -0.2507
     11 O          23.2049    8.7024    0.4113 O.3       1 MOL    -0.4254
     12 O          22.1157   11.6719   -2.4282 O.co2     1 MOL    -0.5445
     13 O          22.0662   11.0624   -0.2571 O.co2     1 MOL    -0.5445
     14 H          20.5461    7.8502    1.8808 H         1 MOL     0.0342
     15 H          21.8388    9.0363    2.3034 H         1 MOL     0.0342
     16 H          22.0397    7.2927    2.7262 H         1 MOL     0.0342
     17 H          25.1800    7.1799   -0.4272 H         1 MOL     0.0654
     18 H          26.2482    7.2529   -2.6520 H         1 MOL     0.0619
     19 H          25.4905    8.9075   -4.3317 H         1 MOL     0.0618
     20 H          23.7034   10.5127   -3.7646 H         1 MOL     0.0625
@<TRIPOS>BOND
     1    1    2 1 
     2    1   14 1 
     3    1   15 1 
     4    1   16 1 
     5    2   10 2 
     6    2   11 1 
     7    3    4 ar
     8    3    8 ar
     9    3   11 1 
    10    4    5 ar
    11    4   17 1 
    12    5    6 ar
    13    5   18 1 
    14    6    7 ar
    15    6   19 1 
    16    7    8 ar
    17    7   20 1 
    18    8    9 1 
    19    9   12 ar
    20    9   13 ar
@<TRIPOS>SUBSTRUCTURE
1 MOL         1
@<TRIPOS>MOLECULE
query molecule
   20    20     1     0     0
SMALL
NO_CHARGE

@<TRIPOS>ATOM
      1 C          -3.2388    6.7777    0.5913 C.3       1 MOL     0.1362
      2 C          -3.5955    8.2172    0.9483 C.2       1 MOL     0.3092
      3 C          -3.1195   10.3727    0.1269 C.ar      1 MOL     0.1404
      4 C          -4.1625   10.8671   -0.6837 C.ar      1 MOL     0.0468
      5 C          -4.3692   12.2361   -0.8149 C.ar      1 MOL     0.0037
      6 C          -3.5383   13.1336   -0.1513 C.ar      1 MOL     0.0009
      7 C          -2.5253   12.6432    0.6681 C.ar      1 MOL     0.0131
      8 C          -2.3057   11.2635    0.8395 C.ar      1 MOL     0.0397
      9 C          -1.1783   10.8421    1.7635 C.2       1 MOL     0.0752
     10 O          -4.4035    8.5381    1.8005 O.2       1 MOL    -0.2507
     11 O          -2.9106    9.0132    0.1634 O.3       1 MOL    -0.4254
     12 O          -0.6533   11.7530    2.4745 O.co2     1 MOL    -0.5445
     13 O          -0.7957    9.6369    1.7196 O.co2     1 MOL    -0.5445
     14 H          -3.4136    6.1097    1.4589 H         1 MOL     0.0342
     15 H          -2.1761    6.7079    0.2849 H         1 MOL     0.0342
     16 H          -3.8753    6.4319   -0.2514 H         1 MOL     0.0342
     17 H          -4.8081   10.1745   -1.2068 H         1 MOL     0.0654
     18 H          -5.1748   12.6028   -1.4333 H         1 MOL     0.0619
     19 H          -3.6821   14.1972   -0.2662 H         1 MOL     0.0618
     20 H          -1.8846   13.3458    1.1854 H         1 MOL     0.0625
@<TRIPOS>BOND
     1    1    2 1 
     2    1   14 1 
     3    1   15 1 
     4    1   16 1 
     5    2   10 2 
     6    2   11 1 
     7    3    4 ar
     8    3    8 ar
     9    3   11 1 
    10    4    5 ar
    11    4   17 1 
    12    5    6 ar
    13    5   18 1 
    14    6    7 ar
    15    6   19 1 
    16    7    8 ar
    17    7   20 1 
    18    8    9 1 
    19    9   12 ar
    20    9   13 ar
@<TRIPOS>SUBSTRUCTURE
1 MOL         1
@<TRIPOS>MOLECULE
query molecule
   20    20     1     0     0
SMALL
NO_CHARGE

@<TRIPOS>ATOM
      1 C           6.7206   14.6740    5.7003 C.3       1 MOL     0.1362
      2 C           6.9984   13.2665    6.1989 C.2       1 MOL     0.3092
      3 C           6.3015   12.0204    8.0885 C.ar      1 MOL     0.1404
      4 C           7.1629   10.9114    8.0195 C.ar      1 MOL     0.0468
      5 C           6.7929    9.6800    8.5538 C.ar      1 MOL     0.0037
      6 C           5.5586    9.5442    9.1886 C.ar      1 MOL     0.0009
      7 C           4.7161   10.6434    9.3079 C.ar      1 MOL     0.0131
      8 C           5.0850   11.9053    8.7923 C.ar      1 MOL     0.0397
      9 C           4.1357   13.0578    9.0690 C.2       1 MOL     0.0752
     10 O           7.4545   12.3879    5.4852 O.2       1 MOL    -0.2507
     11 O           6.6242   13.1921    7.4475 O.3       1 MOL    -0.4254
     12 O           4.5283   14.2176    8.7615 O.co2     1 MOL    -0.5445
     13 O           3.0141   12.7583    9.5987 O.co2     1 MOL    -0.5445
     14 H           7.0175   14.7703    4.6377 H         1 MOL     0.0342
     15 H           7.2824   15.4138    6.3063 H         1 MOL     0.0342
     16 H           5.6337   14.8910    5.7890 H         1 MOL     0.0342
     17 H           8.1161   11.0125    7.5233 H         1 MOL     0.0654
     18 H           7.4588    8.8345    8.4733 H         1 MOL     0.0619
     19 H           5.2619    8.5865    9.5918 H         1 MOL     0.0618
     20 H           3.7682   10.5370    9.8201 H         1 MOL     0.0625
@<TRIPOS>BOND
     1    1    2 1 
     2    1   14 1 
     3    1   15 1 
     4    1   16 1 
     5    2   10 2 
     6    2   11 1 
     7    3    4 ar
     8    3    8 ar
     9    3   11 1 
    10    4    5 ar
    11    4   17 1 
    12    5    6 ar
    13    5   18 1 
    14    6    7 ar
    15    6   19 1 
    16    7    8 ar
    17    7   20 1 
    18    8    9 1 
    19    9   12 ar
    20    9   13 ar
@<TRIPOS>SUBSTRUCTURE
1 MOL         1
@<TRIPOS>MOLECULE
query molecule
   20    20     1     0     0
SMALL
NO_CHARGE

@<TRIPOS>ATOM
      1 C           0.3286   29.6392   -3.5275 C.3       1 MOL     0.1362
      2 C          -0.7964   28.6286   -3.6944 C.2       1 MOL     0.3092
      3 C          -1.0777   26.2944   -3.8592 C.ar      1 MOL     0.1404
      4 C          -1.8730   25.7323   -2.8417 C.ar      1 MOL     0.0468
      5 C          -2.6698   24.6163   -3.0815 C.ar      1 MOL     0.0037
      6 C          -2.6701   24.0431   -4.3507 C.ar      1 MOL     0.0009
      7 C          -1.8693   24.5728   -5.3603 C.ar      1 MOL     0.0131
      8 C          -1.0720   25.7116   -5.1357 C.ar      1 MOL     0.0397
      9 C          -0.2697   26.2255   -6.3158 C.2       1 MOL     0.0752
     10 O          -1.9604   28.9206   -3.9012 O.2       1 MOL    -0.2507
     11 O          -0.3051   27.4066   -3.5724 O.3       1 MOL    -0.4254
     12 O           0.3317   27.3319   -6.1953 O.co2     1 MOL    -0.5445
     13 O          -0.2685   25.4883   -7.3507 O.co2     1 MOL    -0.5445
     14 H          -0.0681   30.6713   -3.6169 H         1 MOL     0.0342
     15 H           1.0992   29.4806   -4.3083 H         1 MOL     0.0342
     16 H           0.7982   29.5206   -2.5295 H         1 MOL     0.0342
     17 H          -1.8725   26.1792   -1.8564 H         1 MOL     0.0654
     18 H          -3.2763   24.1996   -2.2947 H         1 MOL     0.0619
     19 H          -3.2838   23.1793   -4.5497 H         1 MOL     0.0618
     20 H          -1.8637   24.1039   -6.3347 H         1 MOL     0.0625
@<TRIPOS>BOND
     1    1    2 1 
     2    1   14 1 
     3    1   15 1 
     4    1   16 1 
     5    2   10 2 
     6    2   11 1 
     7    3    4 ar
     8    3    8 ar
     9    3   11 1 
    10    4    5 ar
    11    4   17 1 
    12    5    6 ar
    13    5   18 1 
    14    6    7 ar
    15    6   19 1 
    16    7    8 ar
    17    7   20 1 
    18    8    9 1 
    19    9   12 ar
    20    9   13 ar
@<TRIPOS>SUBSTRUCTURE
1 MOL         1
@<TRIPOS>MOLECULE
query molecule
   20    20     1     0     0
SMALL
NO_CHARGE

@<TRIPOS>ATOM
      1 C          -2.3792   16.9123   -8.9575 C.3       1 MOL     0.1362
      2 C          -0.9898   16.6412   -9.5239 C.2       1 MOL     0.3092
      3 C           0.8002   15.1631   -9.1430 C.ar      1 MOL     0.1404
      4 C           1.9092   15.8559   -8.6160 C.ar      1 MOL     0.0468
      5 C           3.2080   15.4214   -8.8666 C.ar      1 MOL     0.0037
      6 C           3.4172   14.3086   -9.6649 C.ar      1 MOL     0.0009
      7 C           2.3243   13.6188  -10.1825 C.ar      1 MOL     0.0131
      8 C           1.0056   14.0102   -9.8983 C.ar      1 MOL     0.0397
      9 C          -0.1022   13.1085  -10.3875 C.2       1 MOL     0.0752
     10 O          -0.4739   17.2787  -10.4256 O.2       1 MOL    -0.2507
     11 O          -0.4627   15.6350   -8.8594 O.3       1 MOL    -0.4254
     12 O           0.2819   12.0470  -10.9664 O.co2     1 MOL    -0.5445
     13 O          -1.2994   13.4435  -10.1608 O.co2     1 MOL    -0.5445
     14 H          -2.5218   18.0020   -8.7977 H         1 MOL     0.0342
     15 H          -2.5055   16.3897   -7.9871 H         1 MOL     0.0342
     16 H          -3.1521   16.5496   -9.6634 H         1 MOL     0.0342
     17 H           1.7516   16.7341   -8.0045 H         1 MOL     0.0654
     18 H           4.0489   15.9538   -8.4465 H         1 MOL     0.0619
     19 H           4.4226   13.9780   -9.8811 H         1 MOL     0.0618
     20 H           2.4978   12.7512  -10.8059 H         1 MOL     0.0625
@<TRIPOS>BOND
     1    1    2 1 
     2    1   14 1 
     3    1   15 1 
     4    1   16 1 
     5    2   10 2 
     6    2   11 1 
     7    3    4 ar
     8    3    8 ar
     9    3   11 1 
    10    4    5 ar
    11    4   17 1 
    12    5    6 ar
    13    5   18 1 
    14    6    7 ar
    15    6   19 1 
    16    7    8 ar
    17    7   20 1 
    18    8    9 1 
    19    9   12 ar
    20    9   13 ar
@<TRIPOS>SUBSTRUCTURE
1 MOL         1
@<TRIPOS>MOLECULE
query molecule
   20    20     1     0     0
SMALL
NO_CHARGE

@<TRIPOS>ATOM
      1 C           0.3295   29.6497   -3.5579 C.3       1 MOL     0.1362
      2 C          -0.7891   28.6298   -3.7140 C.2       1 MOL     0.3092
      3 C          -1.0765   26.2967   -3.8777 C.ar      1 MOL     0.1404
      4 C          -1.8233   25.7222   -2.8298 C.ar      1 MOL     0.0468
      5 C          -2.6324   24.6100   -3.0482 C.ar      1 MOL     0.0037
      6 C          -2.6751   24.0466   -4.3200 C.ar      1 MOL     0.0009
      7 C          -1.9406   24.5964   -5.3614 C.ar      1 MOL     0.0131
      8 C          -1.1424   25.7352   -5.1599 C.ar      1 MOL     0.0397
      9 C          -0.4233   26.2670   -6.3805 C.2       1 MOL     0.0752
     10 O          -1.9577   28.9197   -3.8976 O.2       1 MOL    -0.2507
     11 O          -0.2896   27.4056   -3.6129 O.3       1 MOL    -0.4254
     12 O          -0.6109   25.6318   -7.4658 O.co2     1 MOL    -0.5445
     13 O           0.3027   27.2943   -6.2392 O.co2     1 MOL    -0.5445
     14 H          -0.0848   30.6754   -3.6425 H         1 MOL     0.0342
     15 H           1.0851   29.5061   -4.3596 H         1 MOL     0.0342
     16 H           0.8273   29.5394   -2.5746 H         1 MOL     0.0342
     17 H          -1.7719   26.1575   -1.8403 H         1 MOL     0.0654
     18 H          -3.2174   24.1923   -2.2447 H         1 MOL     0.0619
     19 H          -3.2850   23.1724   -4.5021 H         1 MOL     0.0618
     20 H          -1.9893   24.1524   -6.3459 H         1 MOL     0.0625
@<TRIPOS>BOND
     1    1    2 1 
     2    1   14 1 
     3    1   15 1 
     4    1   16 1 
     5    2   10 2 
     6    2   11 1 
     7    3    4 ar
     8    3    8 ar
     9    3   11 1 
    10    4    5 ar
    11    4   17 1 
    12    5    6 ar
    13    5   18 1 
    14    6    7 ar
    15    6   19 1 
    16    7    8 ar
    17    7   20 1 
    18    8    9 1 
    19    9   12 ar
    20    9   13 ar
@<TRIPOS>SUBSTRUCTURE
1 MOL         1
@<TRIPOS>MOLECULE
query molecule
   20    20     1     0     0
SMALL
NO_CHARGE

@<TRIPOS>ATOM
      1 C          -8.3395   22.5548    2.9574 C.3       1 MOL     0.1362
      2 C          -9.2345   23.1904    1.8873 C.2       1 MOL     0.3092
      3 C          -8.6084   21.5205    0.2918 C.ar      1 MOL     0.1404
      4 C          -9.1092   20.2253    0.5111 C.ar      1 MOL     0.0468
      5 C          -8.4754   19.1116   -0.0462 C.ar      1 MOL     0.0037
      6 C          -7.3318   19.2767   -0.8276 C.ar      1 MOL     0.0009
      7 C          -6.8224   20.5564   -1.0435 C.ar      1 MOL     0.0131
      8 C          -7.4455   21.6885   -0.4809 C.ar      1 MOL     0.0397
      9 C          -6.8125   23.0386   -0.7442 C.2       1 MOL     0.0752
     10 O          -9.8489   24.2393    2.0954 O.2       1 MOL    -0.2507
     11 O          -9.2816   22.5739    0.7667 O.3       1 MOL    -0.4254
     12 O          -7.3052   24.0483   -0.1602 O.co2     1 MOL    -0.5445
     13 O          -5.8256   23.0544   -1.5459 O.co2     1 MOL    -0.5445
     14 H          -8.5115   23.0789    3.9242 H         1 MOL     0.0342
     15 H          -7.2708   22.6564    2.6884 H         1 MOL     0.0342
     16 H          -8.5865   21.4830    3.0898 H         1 MOL     0.0342
     17 H          -9.9997   20.0899    1.1084 H         1 MOL     0.0654
     18 H          -8.8737   18.1224    0.1238 H         1 MOL     0.0619
     19 H          -6.8418   18.4192   -1.2637 H         1 MOL     0.0618
     20 H          -5.9391   20.6828   -1.6486 H         1 MOL     0.0625
@<TRIPOS>BOND
     1    1    2 1 
     2    1   14 1 
     3    1   15 1 
     4    1   16 1 
     5    2   10 2 
     6    2   11 1 
     7    3    4 ar
     8    3    8 ar
     9    3   11 1 
    10    4    5 ar
    11    4   17 1 
    12    5    6 ar
    13    5   18 1 
    14    6    7 ar
    15    6   19 1 
    16    7    8 ar
    17    7   20 1 
    18    8    9 1 
    19    9   12 ar
    20    9   13 ar
@<TRIPOS>SUBSTRUCTURE
1 MOL         1
@<TRIPOS>MOLECULE
query molecule
   20    20     1     0     0
SMALL
NO_CHARGE

@<TRIPOS>ATOM
      1 C          11.6263   13.9061   11.0310 C.3       1 MOL     0.1362
      2 C          11.1477   15.0894   11.8543 C.2       1 MOL     0.3092
      3 C           9.6134   15.5266   13.5743 C.ar      1 MOL     0.1404
      4 C          10.0319   15.4214   14.9130 C.ar      1 MOL     0.0468
      5 C           9.5818   16.3306   15.8683 C.ar      1 MOL     0.0037
      6 C           8.7186   17.3581   15.4873 C.ar      1 MOL     0.0009
      7 C           8.2736   17.4461   14.1650 C.ar      1 MOL     0.0131
      8 C           8.6755   16.5039   13.2005 C.ar      1 MOL     0.0397
      9 C           8.0560   16.5592   11.8170 C.2       1 MOL     0.0752
     10 O          11.5973   16.2196   11.7736 O.2       1 MOL    -0.2507
     11 O          10.1595   14.6670   12.6392 O.3       1 MOL    -0.4254
     12 O           7.5454   17.6591   11.4746 O.co2     1 MOL    -0.5445
     13 O           8.0674   15.5081   11.1110 O.co2     1 MOL    -0.5445
     14 H          12.4696   14.2109   10.3804 H         1 MOL     0.0342
     15 H          10.7982   13.5274   10.3968 H         1 MOL     0.0342
     16 H          11.9616   13.0911   11.7045 H         1 MOL     0.0342
     17 H          10.7142   14.6338   15.2026 H         1 MOL     0.0654
     18 H           9.9038   16.2449   16.8957 H         1 MOL     0.0619
     19 H           8.3916   18.0804   16.2202 H         1 MOL     0.0618
     20 H           7.5982   18.2431   13.8863 H         1 MOL     0.0625
@<TRIPOS>BOND
     1    1    2 1 
     2    1   14 1 
     3    1   15 1 
     4    1   16 1 
     5    2   10 2 
     6    2   11 1 
     7    3    4 ar
     8    3    8 ar
     9    3   11 1 
    10    4    5 ar
    11    4   17 1 
    12    5    6 ar
    13    5   18 1 
    14    6    7 ar
    15    6   19 1 
    16    7    8 ar
    17    7   20 1 
    18    8    9 1 
    19    9   12 ar
    20    9   13 ar
@<TRIPOS>SUBSTRUCTURE
1 MOL         1
@<TRIPOS>MOLECULE
query molecule
   20    20     1     0     0
SMALL
NO_CHARGE

@<TRIPOS>ATOM
      1 C          23.9641    5.7344  -14.5712 C.3       1 MOL     0.1362
      2 C          23.8069    6.7864  -13.4802 C.2       1 MOL     0.3092
      3 C          22.6984    8.8519  -13.2434 C.ar      1 MOL     0.1404
      4 C          23.6383    9.8383  -12.8900 C.ar      1 MOL     0.0468
      5 C          23.2441   10.9875  -12.2122 C.ar      1 MOL     0.0037
      6 C          21.8984   11.1716  -11.8963 C.ar      1 MOL     0.0009
      7 C          20.9551   10.1968  -12.2404 C.ar      1 MOL     0.0131
      8 C          21.3446    9.0049  -12.8912 C.ar      1 MOL     0.0397
      9 C          20.2899    7.9422  -13.1786 C.2       1 MOL     0.0752
     10 O          24.2535    6.6948  -12.3555 O.2       1 MOL    -0.2507
     11 O          23.1254    7.7760  -13.9843 O.3       1 MOL    -0.4254
     12 O          19.0802    8.2800  -12.9760 O.co2     1 MOL    -0.5445
     13 O          20.6735    6.7967  -13.5691 O.co2     1 MOL    -0.5445
     14 H          24.5948    4.8976  -14.2100 H         1 MOL     0.0342
     15 H          24.4461    6.1872  -15.4631 H         1 MOL     0.0342
     16 H          22.9725    5.3370  -14.8692 H         1 MOL     0.0342
     17 H          24.6770    9.6966  -13.1551 H         1 MOL     0.0654
     18 H          23.9814   11.7290  -11.9417 H         1 MOL     0.0619
     19 H          21.5967   12.0725  -11.3809 H         1 MOL     0.0618
     20 H          19.9160   10.3687  -11.9917 H         1 MOL     0.0625
@<TRIPOS>BOND
     1    1    2 1 
     2    1   14 1 
     3    1   15 1 
     4    1   16 1 
     5    2   10 2 
     6    2   11 1 
     7    3    4 ar
     8    3    8 ar
     9    3   11 1 
    10    4    5 ar
    11    4   17 1 
    12    5    6 ar
    13    5   18 1 
    14    6    7 ar
    15    6   19 1 
    16    7    8 ar
    17    7   20 1 
    18    8    9 1 
    19    9   12 ar
    20    9   13 ar
@<TRIPOS>SUBSTRUCTURE
1 MOL         1
@<TRIPOS>MOLECULE
query molecule
   20    20     1     0     0
SMALL
NO_CHARGE

@<TRIPOS>ATOM
      1 C          11.5793   24.4422   -3.6702 C.3       1 MOL     0.1362
      2 C          11.1497   24.0853   -5.0897 C.2       1 MOL     0.3092
      3 C          11.4627   24.9492   -7.2600 C.ar      1 MOL     0.1404
      4 C          12.3292   24.0669   -7.9336 C.ar      1 MOL     0.0468
      5 C          12.3485   23.9915   -9.3227 C.ar      1 MOL     0.0037
      6 C          11.4846   24.7914  -10.0657 C.ar      1 MOL     0.0009
      7 C          10.6015   25.6469   -9.4085 C.ar      1 MOL     0.0131
      8 C          10.5673   25.7290   -7.9990 C.ar      1 MOL     0.0397
      9 C           9.5448   26.6700   -7.4016 C.2       1 MOL     0.0752
     10 O          10.5481   23.0710   -5.4004 O.2       1 MOL    -0.2507
     11 O          11.5587   25.0401   -5.8926 O.3       1 MOL    -0.4254
     12 O           8.7276   27.2038   -8.2142 O.co2     1 MOL    -0.5445
     13 O           9.5752   26.8519   -6.1522 O.co2     1 MOL    -0.5445
     14 H          10.9063   23.9601   -2.9325 H         1 MOL     0.0342
     15 H          11.5441   25.5408   -3.5231 H         1 MOL     0.0342
     16 H          12.6170   24.0916   -3.4911 H         1 MOL     0.0342
     17 H          13.0036   23.4475   -7.3559 H         1 MOL     0.0654
     18 H          13.0311   23.3190   -9.8187 H         1 MOL     0.0619
     19 H          11.4960   24.7460  -11.1439 H         1 MOL     0.0618
     20 H           9.9271   26.2609   -9.9916 H         1 MOL     0.0625
@<TRIPOS>BOND
     1    1    2 1 
     2    1   14 1 
     3    1   15 1 
     4    1   16 1 
     5    2   10 2 
     6    2   11 1 
     7    3    4 ar
     8    3    8 ar
     9    3   11 1 
    10    4    5 ar
    11    4   17 1 
    12    5    6 ar
    13    5   18 1 
    14    6    7 ar
    15    6   19 1 
    16    7    8 ar
    17    7   20 1 
    18    8    9 1 
    19    9   12 ar
    20    9   13 ar
@<TRIPOS>SUBSTRUCTURE
1 MOL         1
@<TRIPOS>MOLECULE
query molecule
   20    20     1     0     0
SMALL
NO_CHARGE

@<TRIPOS>ATOM
      1 C           2.0633   27.7520   16.4977 C.3       1 MOL     0.1362
      2 C           3.0717   28.2365   15.4641 C.2       1 MOL     0.3092
      3 C           4.7243   29.9094   15.3338 C.ar      1 MOL     0.1404
      4 C           4.3247   30.9352   14.4607 C.ar      1 MOL     0.0468
      5 C           5.2693   31.7300   13.8234 C.ar      1 MOL     0.0037
      6 C           6.6260   31.5237   14.0634 C.ar      1 MOL     0.0009
      7 C           7.0347   30.5036   14.9259 C.ar      1 MOL     0.0131
      8 C           6.0920   29.6612   15.5528 C.ar      1 MOL     0.0397
      9 C           6.5934   28.5147   16.4234 C.2       1 MOL     0.0752
     10 O           3.1921   27.7841   14.3440 O.2       1 MOL    -0.2507
     11 O           3.7599   29.1999   16.0082 O.3       1 MOL    -0.4254
     12 O           7.8300   28.5365   16.7233 O.co2     1 MOL    -0.5445
     13 O           5.7698   27.6172   16.7802 O.co2     1 MOL    -0.5445
     14 H           1.4120   26.9682   16.0622 H         1 MOL     0.0342
     15 H           1.4311   28.6002   16.8322 H         1 MOL     0.0342
     16 H           2.5894   27.3333   17.3811 H         1 MOL     0.0342
     17 H           3.2714   31.1075   14.2943 H         1 MOL     0.0654
     18 H           4.9440   32.5119   13.1498 H         1 MOL     0.0619
     19 H           7.3533   32.1544   13.5734 H         1 MOL     0.0618
     20 H           8.0931   30.3623   15.1020 H         1 MOL     0.0625
@<TRIPOS>BOND
     1    1    2 1 
     2    1   14 1 
     3    1   15 1 
     4    1   16 1 
     5    2   10 2 
     6    2   11 1 
     7    3    4 ar
     8    3    8 ar
     9    3   11 1 
    10    4    5 ar
    11    4   17 1 
    12    5    6 ar
    13    5   18 1 
    14    6    7 ar
    15    6   19 1 
    16    7    8 ar
    17    7   20 1 
    18    8    9 1 
    19    9   12 ar
    20    9   13 ar
@<TRIPOS>SUBSTRUCTURE
1 MOL         1
@<TRIPOS>MOLECULE
query molecule
   20    20     1     0     0
SMALL
NO_CHARGE

@<TRIPOS>ATOM
      1 C           4.7312   10.3372    9.6137 C.3       1 MOL     0.1362
      2 C           3.4967   11.0905    9.1012 C.2       1 MOL     0.3092
      3 C           4.4079   13.1027   10.0539 C.ar      1 MOL     0.1404
      4 C           4.1178   13.2707   11.4254 C.ar      1 MOL     0.0468
      5 C           5.0056   13.9411   12.2609 C.ar      1 MOL     0.0037
      6 C           6.1970   14.4455   11.7422 C.ar      1 MOL     0.0009
      7 C           6.4840   14.2902   10.3859 C.ar      1 MOL     0.0131
      8 C           5.5888   13.6306    9.5152 C.ar      1 MOL     0.0397
      9 C           5.9869   13.5430    8.0554 C.2       1 MOL     0.0752
     10 O           2.5702   10.5113    8.5363 O.2       1 MOL    -0.2507
     11 O           3.5113   12.4135    9.2885 O.3       1 MOL    -0.4254
     12 O           7.1040   14.0637    7.7501 O.co2     1 MOL    -0.5445
     13 O           5.2067   12.9625    7.2462 O.co2     1 MOL    -0.5445
     14 H           4.4338    9.3626   10.0486 H         1 MOL     0.0342
     15 H           5.2417   10.9390   10.3933 H         1 MOL     0.0342
     16 H           5.4417   10.1578    8.7802 H         1 MOL     0.0342
     17 H           3.1954   12.8763   11.8277 H         1 MOL     0.0654
     18 H           4.7739   14.0649   13.3078 H         1 MOL     0.0619
     19 H           6.8949   14.9555   12.3901 H         1 MOL     0.0618
     20 H           7.4138   14.6828    9.9947 H         1 MOL     0.0625
@<TRIPOS>BOND
     1    1    2 1 
     2    1   14 1 
     3    1   15 1 
     4    1   16 1 
     5    2   10 2 
     6    2   11 1 
     7    3    4 ar
     8    3    8 ar
     9    3   11 1 
    10    4    5 ar
    11    4   17 1 
    12    5    6 ar
    13    5   18 1 
    14    6    7 ar
    15    6   19 1 
    16    7    8 ar
    17    7   20 1 
    18    8    9 1 
    19    9   12 ar
    20    9   13 ar
@<TRIPOS>SUBSTRUCTURE
1 MOL         1
@<TRIPOS>MOLECULE
query molecule
   20    20     1     0     0
SMALL
NO_CHARGE

@<TRIPOS>ATOM
      1 C          11.5783   24.7236   -3.2108 C.3       1 MOL     0.1362
      2 C          11.3045   25.7726   -4.2852 C.2       1 MOL     0.3092
      3 C          10.2234   25.7885   -6.3888 C.ar      1 MOL     0.1404
      4 C           9.2494   26.7861   -6.5248 C.ar      1 MOL     0.0468
      5 C           8.9613   27.3521   -7.7616 C.ar      1 MOL     0.0037
      6 C           9.6481   26.9182   -8.8916 C.ar      1 MOL     0.0009
      7 C          10.6113   25.9167   -8.7785 C.ar      1 MOL     0.0131
      8 C          10.9118   25.3324   -7.5289 C.ar      1 MOL     0.0397
      9 C          11.9531   24.2271   -7.5200 C.2       1 MOL     0.0752
     10 O          11.8149   26.8784   -4.2973 O.2       1 MOL    -0.2507
     11 O          10.4723   25.2546   -5.1470 O.3       1 MOL    -0.4254
     12 O          12.2115   23.6628   -6.4171 O.co2     1 MOL    -0.5445
     13 O          12.4772   23.9461   -8.6430 O.co2     1 MOL    -0.5445
     14 H          12.2912   25.1409   -2.4715 H         1 MOL     0.0342
     15 H          12.0164   23.8025   -3.6510 H         1 MOL     0.0342
     16 H          10.6365   24.4641   -2.6896 H         1 MOL     0.0342
     17 H           8.7229   27.1176   -5.6439 H         1 MOL     0.0654
     18 H           8.2116   28.1248   -7.8331 H         1 MOL     0.0619
     19 H           9.4298   27.3612   -9.8504 H         1 MOL     0.0618
     20 H          11.1324   25.5861   -9.6681 H         1 MOL     0.0625
@<TRIPOS>BOND
     1    1    2 1 
     2    1   14 1 
     3    1   15 1 
     4    1   16 1 
     5    2   10 2 
     6    2   11 1 
     7    3    4 ar
     8    3    8 ar
     9    3   11 1 
    10    4    5 ar
    11    4   17 1 
    12    5    6 ar
    13    5   18 1 
    14    6    7 ar
    15    6   19 1 
    16    7    8 ar
    17    7   20 1 
    18    8    9 1 
    19    9   12 ar
    20    9   13 ar
@<TRIPOS>SUBSTRUCTURE
1 MOL         1
@<TRIPOS>MOLECULE
query molecule
   20    20     1     0     0
SMALL
NO_CHARGE

@<TRIPOS>ATOM
      1 C          20.8426   24.8556   13.2850 C.3       1 MOL     0.1362
      2 C          21.3150   26.2931   13.1982 C.2       1 MOL     0.3092
      3 C          23.3419   27.4884   13.2133 C.ar      1 MOL     0.1404
      4 C          23.9709   27.7251   11.9776 C.ar      1 MOL     0.0468
      5 C          24.6856   28.8990   11.7498 C.ar      1 MOL     0.0037
      6 C          24.7809   29.8554   12.7587 C.ar      1 MOL     0.0009
      7 C          24.1693   29.6226   13.9900 C.ar      1 MOL     0.0131
      8 C          23.4510   28.4345   14.2381 C.ar      1 MOL     0.0397
      9 C          22.8270   28.2753   15.6081 C.2       1 MOL     0.0752
     10 O          20.5800   27.2558   13.0140 O.2       1 MOL    -0.2507
     11 O          22.6260   26.3206   13.3701 O.3       1 MOL    -0.4254
     12 O          22.8694   29.2937   16.3602 O.co2     1 MOL    -0.5445
     13 O          22.2186   27.1972   15.8820 O.co2     1 MOL    -0.5445
     14 H          20.0688   24.7463   14.0711 H         1 MOL     0.0342
     15 H          21.6964   24.1884   13.5232 H         1 MOL     0.0342
     16 H          20.4088   24.5437   12.3119 H         1 MOL     0.0342
     17 H          23.8894   26.9878   11.1906 H         1 MOL     0.0654
     18 H          25.1556   29.0688   10.7929 H         1 MOL     0.0619
     19 H          25.3252   30.7720   12.5853 H         1 MOL     0.0618
     20 H          24.2513   30.3688   14.7697 H         1 MOL     0.0625
@<TRIPOS>BOND
     1    1    2 1 
     2    1   14 1 
     3    1   15 1 
     4    1   16 1 
     5    2   10 2 
     6    2   11 1 
     7    3    4 ar
     8    3    8 ar
     9    3   11 1 
    10    4    5 ar
    11    4   17 1 
    12    5    6 ar
    13    5   18 1 
    14    6    7 ar
    15    6   19 1 
    16    7    8 ar
    17    7   20 1 
    18    8    9 1 
    19    9   12 ar
    20    9   13 ar
@<TRIPOS>SUBSTRUCTURE
1 MOL         1
@<TRIPOS>MOLECULE
query molecule
   20    20     1     0     0
SMALL
NO_CHARGE

@<TRIPOS>ATOM
      1 C          -3.0401   22.3000    6.3924 C.3       1 MOL     0.1362
      2 C          -3.2236   23.6178    7.1417 C.2       1 MOL     0.3092
      3 C          -2.7917   24.3834    9.3456 C.ar      1 MOL     0.1404
      4 C          -3.6476   25.5002    9.4197 C.ar      1 MOL     0.0468
      5 C          -3.3677   26.5631   10.2792 C.ar      1 MOL     0.0037
      6 C          -2.2301   26.5196   11.0857 C.ar      1 MOL     0.0009
      7 C          -1.4074   25.3961   11.0601 C.ar      1 MOL     0.0131
      8 C          -1.6936   24.2996   10.2234 C.ar      1 MOL     0.0397
      9 C          -0.7949   23.0765   10.3590 C.2       1 MOL     0.0752
     10 O          -3.5022   24.6793    6.6018 O.2       1 MOL    -0.2507
     11 O          -3.0294   23.3982    8.4156 O.3       1 MOL    -0.4254
     12 O          -1.1340   22.0269    9.7367 O.co2     1 MOL    -0.5445
     13 O           0.2341   23.2185   11.0959 O.co2     1 MOL    -0.5445
     14 H          -3.2035   22.4509    5.3067 H         1 MOL     0.0342
     15 H          -3.7329   21.5231    6.7639 H         1 MOL     0.0342
     16 H          -1.9972   21.9510    6.5458 H         1 MOL     0.0342
     17 H          -4.5261   25.5443    8.7872 H         1 MOL     0.0654
     18 H          -4.0219   27.4223   10.3076 H         1 MOL     0.0619
     19 H          -1.9925   27.3493   11.7331 H         1 MOL     0.0618
     20 H          -0.5403   25.3536   11.7041 H         1 MOL     0.0625
@<TRIPOS>BOND
     1    1    2 1 
     2    1   14 1 
     3    1   15 1 
     4    1   16 1 
     5    2   10 2 
     6    2   11 1 
     7    3    4 ar
     8    3    8 ar
     9    3   11 1 
    10    4    5 ar
    11    4   17 1 
    12    5    6 ar
    13    5   18 1 
    14    6    7 ar
    15    6   19 1 
    16    7    8 ar
    17    7   20 1 
    18    8    9 1 
    19    9   12 ar
    20    9   13 ar
@<TRIPOS>SUBSTRUCTURE
1 MOL         1
@<TRIPOS>MOLECULE
query molecule
   20    20     1     0     0
SMALL
NO_CHARGE

@<TRIPOS>ATOM
      1 C          -7.0825   22.3829   -4.0890 C.3       1 MOL     0.1362
      2 C          -6.7618   22.2116   -2.6131 C.2       1 MOL     0.3092
      3 C          -7.5385   20.9992   -0.7660 C.ar      1 MOL     0.1404
      4 C          -6.9442   19.7377   -0.5425 C.ar      1 MOL     0.0468
      5 C          -6.7772   19.2532    0.7528 C.ar      1 MOL     0.0037
      6 C          -7.2115   20.0173    1.8364 C.ar      1 MOL     0.0009
      7 C          -7.8152   21.2566    1.6184 C.ar      1 MOL     0.0131
      8 C          -7.9862   21.7704    0.3170 C.ar      1 MOL     0.0397
      9 C          -8.6566   23.1268    0.2019 C.2       1 MOL     0.0752
     10 O          -5.8264   22.7503   -2.0424 O.2       1 MOL    -0.2507
     11 O          -7.6741   21.4234   -2.0728 O.3       1 MOL    -0.4254
     12 O          -9.1392   23.6346    1.2637 O.co2     1 MOL    -0.5445
     13 O          -8.6983   23.6444   -0.9460 O.co2     1 MOL    -0.5445
     14 H          -7.1962   23.4630   -4.3217 H         1 MOL     0.0342
     15 H          -8.0317   21.8663   -4.3361 H         1 MOL     0.0342
     16 H          -6.2643   21.9679   -4.7102 H         1 MOL     0.0342
     17 H          -6.6139   19.1437   -1.3843 H         1 MOL     0.0654
     18 H          -6.3125   18.2929    0.9167 H         1 MOL     0.0619
     19 H          -7.0836   19.6480    2.8429 H         1 MOL     0.0618
     20 H          -8.1567   21.8371    2.4652 H         1 MOL     0.0625
@<TRIPOS>BOND
     1    1    2 1 
     2    1   14 1 
     3    1   15 1 
     4    1   16 1 
     5    2   10 2 
     6    2   11 1 
     7    3    4 ar
     8    3    8 ar
     9    3   11 1 
    10    4    5 ar
    11    4   17 1 
    12    5    6 ar
    13    5   18 1 
    14    6    7 ar
    15    6   19 1 
    16    7    8 ar
    17    7   20 1 
    18    8    9 1 
    19    9   12 ar
    20    9   13 ar
@<TRIPOS>SUBSTRUCTURE
1 MOL         1
@<TRIPOS>MOLECULE
query molecule
   20    20     1     0     0
SMALL
NO_CHARGE

@<TRIPOS>ATOM
      1 C          21.7051   11.2929   -3.4965 C.3       1 MOL     0.1362
      2 C          22.4122   10.7334   -2.2616 C.2       1 MOL     0.3092
      3 C          23.5741    8.7541   -1.7313 C.ar      1 MOL     0.1404
      4 C          22.8415    8.0344   -0.7667 C.ar      1 MOL     0.0468
      5 C          23.4526    7.0742    0.0372 C.ar      1 MOL     0.0037
      6 C          24.8160    6.8270   -0.1034 C.ar      1 MOL     0.0009
      7 C          25.5576    7.5661   -1.0215 C.ar      1 MOL     0.0131
      8 C          24.9553    8.5518   -1.8313 C.ar      1 MOL     0.0397
      9 C          25.8714    9.3228   -2.7575 C.2       1 MOL     0.0752
     10 O          22.4585   11.3000   -1.1891 O.2       1 MOL    -0.2507
     11 O          22.9067    9.5860   -2.5838 O.3       1 MOL    -0.4254
     12 O          27.1083    9.0523   -2.6579 O.co2     1 MOL    -0.5445
     13 O          25.3511   10.1713   -3.5363 O.co2     1 MOL    -0.5445
     14 H          20.7052   11.6816   -3.2264 H         1 MOL     0.0342
     15 H          21.5887   10.4899   -4.2580 H         1 MOL     0.0342
     16 H          22.3059   12.1122   -3.9370 H         1 MOL     0.0342
     17 H          21.7804    8.2165   -0.6550 H         1 MOL     0.0654
     18 H          22.8741    6.5215    0.7622 H         1 MOL     0.0619
     19 H          25.2969    6.0714    0.4985 H         1 MOL     0.0618
     20 H          26.6189    7.3800   -1.1182 H         1 MOL     0.0625
@<TRIPOS>BOND
     1    1    2 1 
     2    1   14 1 
     3    1   15 1 
     4    1   16 1 
     5    2   10 2 
     6    2   11 1 
     7    3    4 ar
     8    3    8 ar
     9    3   11 1 
    10    4    5 ar
    11    4   17 1 
    12    5    6 ar
    13    5   18 1 
    14    6    7 ar
    15    6   19 1 
    16    7    8 ar
    17    7   20 1 
    18    8    9 1 
    19    9   12 ar
    20    9   13 ar
@<TRIPOS>SUBSTRUCTURE
1 MOL         1
@<TRIPOS>MOLECULE
query molecule
   20    20     1     0     0
SMALL
NO_CHARGE

@<TRIPOS>ATOM
      1 C          -2.7566   24.6363   -2.3066 C.3       1 MOL     0.1362
      2 C          -2.3667   24.5964   -3.7917 C.2       1 MOL     0.3092
      3 C          -0.7272   25.5377   -5.2274 C.ar      1 MOL     0.1404
      4 C          -0.2127   24.5629   -6.1075 C.ar      1 MOL     0.0468
      5 C           0.1346   24.9003   -7.4198 C.ar      1 MOL     0.0037
      6 C          -0.0057   26.2167   -7.8592 C.ar      1 MOL     0.0009
      7 C          -0.4590   27.1947   -6.9745 C.ar      1 MOL     0.0131
      8 C          -0.8049   26.8765   -5.6443 C.ar      1 MOL     0.0397
      9 C          -1.2246   28.0252   -4.7452 C.2       1 MOL     0.0752
     10 O          -3.0720   24.0989   -4.6560 O.2       1 MOL    -0.2507
     11 O          -1.1643   25.1661   -3.9693 O.3       1 MOL    -0.4254
     12 O          -1.3128   29.1590   -5.3053 O.co2     1 MOL    -0.5445
     13 O          -1.4457   27.7884   -3.5267 O.co2     1 MOL    -0.5445
     14 H          -3.6839   24.0478   -2.1265 H         1 MOL     0.0342
     15 H          -2.9489   25.6803   -1.9829 H         1 MOL     0.0342
     16 H          -1.9504   24.2086   -1.6761 H         1 MOL     0.0342
     17 H          -0.0888   23.5403   -5.7812 H         1 MOL     0.0654
     18 H           0.5092   24.1514   -8.1030 H         1 MOL     0.0619
     19 H           0.2414   26.4874   -8.8753 H         1 MOL     0.0618
     20 H          -0.5416   28.2172   -7.3120 H         1 MOL     0.0625
@<TRIPOS>BOND
     1    1    2 1 
     2    1   14 1 
     3    1   15 1 
     4    1   16 1 
     5    2   10 2 
     6    2   11 1 
     7    3    4 ar
     8    3    8 ar
     9    3   11 1 
    10    4    5 ar
    11    4   17 1 
    12    5    6 ar
    13    5   18 1 
    14    6    7 ar
    15    6   19 1 
    16    7    8 ar
    17    7   20 1 
    18    8    9 1 
    19    9   12 ar
    20    9   13 ar
@<TRIPOS>SUBSTRUCTURE
1 MOL         1
@<TRIPOS>MOLECULE
query molecule
   20    20     1     0     0
SMALL
NO_CHARGE

@<TRIPOS>ATOM
      1 C          22.7372   12.8614    1.4176 C.3       1 MOL     0.1362
      2 C          22.6157   11.5794    0.6032 C.2       1 MOL     0.3092
      3 C          23.5954   10.7399   -1.3546 C.ar      1 MOL     0.1404
      4 C          24.8277   10.1593   -0.9732 C.ar      1 MOL     0.0468
      5 C          25.3570    9.0734   -1.6619 C.ar      1 MOL     0.0037
      6 C          24.6512    8.5409   -2.7338 C.ar      1 MOL     0.0009
      7 C          23.4358    9.1103   -3.1110 C.ar      1 MOL     0.0131
      8 C          22.9048   10.2386   -2.4579 C.ar      1 MOL     0.0397
      9 C          21.6647   10.8523   -3.0633 C.2       1 MOL     0.0752
     10 O          22.1771   10.5260    1.0320 O.2       1 MOL    -0.2507
     11 O          23.1284   11.8083   -0.6066 O.3       1 MOL    -0.4254
     12 O          21.3920   12.0454   -2.7745 O.co2     1 MOL    -0.5445
     13 O          20.9898   10.1263   -3.8528 O.co2     1 MOL    -0.5445
     14 H          21.7656   13.1678    1.8482 H         1 MOL     0.0342
     15 H          23.1250   13.6766    0.7725 H         1 MOL     0.0342
     16 H          23.4616   12.6957    2.2444 H         1 MOL     0.0342
     17 H          25.3654   10.5659   -0.1269 H         1 MOL     0.0654
     18 H          26.3030    8.6502   -1.3605 H         1 MOL     0.0619
     19 H          25.0470    7.6913   -3.2691 H         1 MOL     0.0618
     20 H          22.8969    8.6835   -3.9476 H         1 MOL     0.0625
@<TRIPOS>BOND
     1    1    2 1 
     2    1   14 1 
     3    1   15 1 
     4    1   16 1 
     5    2   10 2 
     6    2   11 1 
     7    3    4 ar
     8    3    8 ar
     9    3   11 1 
    10    4    5 ar
    11    4   17 1 
    12    5    6 ar
    13    5   18 1 
    14    6    7 ar
    15    6   19 1 
    16    7    8 ar
    17    7   20 1 
    18    8    9 1 
    19    9   12 ar
    20    9   13 ar
@<TRIPOS>SUBSTRUCTURE
1 MOL         1
@<TRIPOS>MOLECULE
query molecule
   20    20     1     0     0
SMALL
NO_CHARGE

@<TRIPOS>ATOM
      1 C          -0.2679   18.3614  -13.5228 C.3       1 MOL     0.1362
      2 C           0.9298   17.6526  -12.8963 C.2       1 MOL     0.3092
      3 C           1.2310   16.0597  -11.1808 C.ar      1 MOL     0.1404
      4 C           1.2838   16.5666   -9.8660 C.ar      1 MOL     0.0468
      5 C           1.9857   15.8996   -8.8666 C.ar      1 MOL     0.0037
      6 C           2.6499   14.7151   -9.1588 C.ar      1 MOL     0.0009
      7 C           2.6124   14.2176  -10.4589 C.ar      1 MOL     0.0131
      8 C           1.9163   14.8799  -11.4929 C.ar      1 MOL     0.0397
      9 C           1.9509   14.2697  -12.8855 C.2       1 MOL     0.0752
     10 O           2.0904   17.9341  -13.1104 O.2       1 MOL    -0.2507
     11 O           0.4655   16.7304  -12.0968 O.3       1 MOL    -0.4254
     12 O           2.5703   13.1615  -13.0044 O.co2     1 MOL    -0.5445
     13 O           1.3739   14.8827  -13.8364 O.co2     1 MOL    -0.5445
     14 H           0.0817   19.1744  -14.1907 H         1 MOL     0.0342
     15 H          -0.9120   18.8011  -12.7310 H         1 MOL     0.0342
     16 H          -0.8710   17.6434  -14.1134 H         1 MOL     0.0342
     17 H           0.7684   17.4880   -9.6289 H         1 MOL     0.0654
     18 H           2.0179   16.3015   -7.8661 H         1 MOL     0.0619
     19 H           3.1837   14.1812   -8.3884 H         1 MOL     0.0618
     20 H           3.1217   13.2892  -10.6810 H         1 MOL     0.0625
@<TRIPOS>BOND
     1    1    2 1 
     2    1   14 1 
     3    1   15 1 
     4    1   16 1 
     5    2   10 2 
     6    2   11 1 
     7    3    4 ar
     8    3    8 ar
     9    3   11 1 
    10    4    5 ar
    11    4   17 1 
    12    5    6 ar
    13    5   18 1 
    14    6    7 ar
    15    6   19 1 
    16    7    8 ar
    17    7   20 1 
    18    8    9 1 
    19    9   12 ar
    20    9   13 ar
@<TRIPOS>SUBSTRUCTURE
1 MOL         1
@<TRIPOS>MOLECULE
query molecule
   20    20     1     0     0
SMALL
NO_CHARGE

@<TRIPOS>ATOM
      1 C           2.3990   15.4222   -8.3984 C.3       1 MOL     0.1362
      2 C           2.6293   15.0356   -9.8342 C.2       1 MOL     0.3092
      3 C           1.4380   14.9967  -11.8454 C.ar      1 MOL     0.1404
      4 C           1.4598   16.1549  -12.6482 C.ar      1 MOL     0.0468
      5 C           1.4791   16.0566  -14.0370 C.ar      1 MOL     0.0037
      6 C           1.4715   14.7978  -14.6363 C.ar      1 MOL     0.0009
      7 C           1.4360   13.6470  -13.8444 C.ar      1 MOL     0.0131
      8 C           1.3917   13.7257  -12.4371 C.ar      1 MOL     0.0397
      9 C           1.2754   12.4264  -11.6537 C.2       1 MOL     0.0752
     10 O           3.6994   14.6671  -10.2823 O.2       1 MOL    -0.2507
     11 O           1.4821   15.1563  -10.4746 O.3       1 MOL    -0.4254
     12 O           0.8722   12.4842  -10.4502 O.co2     1 MOL    -0.5445
     13 O           1.5827   11.3593  -12.2724 O.co2     1 MOL    -0.5445
     14 H           3.2970   15.1688   -7.7962 H         1 MOL     0.0342
     15 H           1.5260   14.8743   -7.9877 H         1 MOL     0.0342
     16 H           2.2098   16.5114   -8.3207 H         1 MOL     0.0342
     17 H           1.4687   17.1296  -12.1803 H         1 MOL     0.0654
     18 H           1.5102   16.9492  -14.6438 H         1 MOL     0.0619
     19 H           1.5047   14.7136  -15.7126 H         1 MOL     0.0618
     20 H           1.4362   12.6765  -14.3229 H         1 MOL     0.0625
@<TRIPOS>BOND
     1    1    2 1 
     2    1   14 1 
     3    1   15 1 
     4    1   16 1 
     5    2   10 2 
     6    2   11 1 
     7    3    4 ar
     8    3    8 ar
     9    3   11 1 
    10    4    5 ar
    11    4   17 1 
    12    5    6 ar
    13    5   18 1 
    14    6    7 ar
    15    6   19 1 
    16    7    8 ar
    17    7   20 1 
    18    8    9 1 
    19    9   12 ar
    20    9   13 ar
@<TRIPOS>SUBSTRUCTURE
1 MOL         1
@<TRIPOS>MOLECULE
query molecule
   20    20     1     0     0
SMALL
NO_CHARGE

@<TRIPOS>ATOM
      1 C           8.0210   28.1854   -6.8991 C.3       1 MOL     0.1362
      2 C           8.5263   26.8039   -7.2877 C.2       1 MOL     0.3092
      3 C          10.6406   25.8440   -7.6723 C.ar      1 MOL     0.1404
      4 C          10.8387   25.8828   -9.0723 C.ar      1 MOL     0.0468
      5 C          11.6989   24.9896   -9.7035 C.ar      1 MOL     0.0037
      6 C          12.3783   24.0430   -8.9437 C.ar      1 MOL     0.0009
      7 C          12.1818   23.9979   -7.5661 C.ar      1 MOL     0.0131
      8 C          11.3085   24.8862   -6.9059 C.ar      1 MOL     0.0397
      9 C          11.1961   24.7262   -5.4065 C.2       1 MOL     0.0752
     10 O           7.8219   25.9208   -7.7269 O.2       1 MOL    -0.2507
     11 O           9.8205   26.7927   -7.1168 O.3       1 MOL    -0.4254
     12 O          10.4643   25.5473   -4.7862 O.co2     1 MOL    -0.5445
     13 O          11.8629   23.7801   -4.8826 O.co2     1 MOL    -0.5445
     14 H           7.2942   28.5564   -7.6496 H         1 MOL     0.0342
     15 H           8.8750   28.8938   -6.8515 H         1 MOL     0.0342
     16 H           7.5312   28.1522   -5.9052 H         1 MOL     0.0342
     17 H          10.3135   26.6220   -9.6625 H         1 MOL     0.0654
     18 H          11.8389   25.0328  -10.7726 H         1 MOL     0.0619
     19 H          13.0537   23.3487   -9.4197 H         1 MOL     0.0618
     20 H          12.7189   23.2590   -6.9840 H         1 MOL     0.0625
@<TRIPOS>BOND
     1    1    2 1 
     2    1   14 1 
     3    1   15 1 
     4    1   16 1 
     5    2   10 2 
     6    2   11 1 
     7    3    4 ar
     8    3    8 ar
     9    3   11 1 
    10    4    5 ar
    11    4   17 1 
    12    5    6 ar
    13    5   18 1 
    14    6    7 ar
    15    6   19 1 
    16    7    8 ar
    17    7   20 1 
    18    8    9 1 
    19    9   12 ar
    20    9   13 ar
@<TRIPOS>SUBSTRUCTURE
1 MOL         1
@<TRIPOS>MOLECULE
query molecule
   20    20     1     0     0
SMALL
NO_CHARGE

@<TRIPOS>ATOM
      1 C          -1.1462   30.4109   -5.7839 C.3       1 MOL     0.1362
      2 C          -1.5022   29.0146   -6.2801 C.2       1 MOL     0.3092
      3 C          -0.5532   26.8621   -6.1476 C.ar      1 MOL     0.1404
      4 C          -0.2121   26.3006   -7.3930 C.ar      1 MOL     0.0468
      5 C          -0.2069   24.9159   -7.5742 C.ar      1 MOL     0.0037
      6 C          -0.5517   24.0797   -6.5134 C.ar      1 MOL     0.0009
      7 C          -0.8931   24.6364   -5.2816 C.ar      1 MOL     0.0131
      8 C          -0.9022   26.0263   -5.0733 C.ar      1 MOL     0.0397
      9 C          -1.2801   26.5357   -3.6958 C.2       1 MOL     0.0752
     10 O          -2.5494   28.7112   -6.8181 O.2       1 MOL    -0.2507
     11 O          -0.4982   28.2266   -5.9883 O.3       1 MOL    -0.4254
     12 O          -1.4478   27.7824   -3.5290 O.co2     1 MOL    -0.5445
     13 O          -1.4089   25.6581   -2.7854 O.co2     1 MOL    -0.5445
     14 H          -1.9545   31.1277   -6.0318 H         1 MOL     0.0342
     15 H          -0.2017   30.7551   -6.2513 H         1 MOL     0.0342
     16 H          -1.0115   30.3914   -4.6814 H         1 MOL     0.0342
     17 H           0.0536   26.9471   -8.2176 H         1 MOL     0.0654
     18 H           0.0634   24.4931   -8.5304 H         1 MOL     0.0619
     19 H          -0.5532   23.0083   -6.6447 H         1 MOL     0.0618
     20 H          -1.1553   23.9786   -4.4628 H         1 MOL     0.0625
@<TRIPOS>BOND
     1    1    2 1 
     2    1   14 1 
     3    1   15 1 
     4    1   16 1 
     5    2   10 2 
     6    2   11 1 
     7    3    4 ar
     8    3    8 ar
     9    3   11 1 
    10    4    5 ar
    11    4   17 1 
    12    5    6 ar
    13    5   18 1 
    14    6    7 ar
    15    6   19 1 
    16    7    8 ar
    17    7   20 1 
    18    8    9 1 
    19    9   12 ar
    20    9   13 ar
@<TRIPOS>SUBSTRUCTURE
1 MOL         1
@<TRIPOS>MOLECULE
query molecule
   20    20     1     0     0
SMALL
NO_CHARGE

@<TRIPOS>ATOM
      1 C          11.5799   23.8745   -3.8185 C.3       1 MOL     0.1362
      2 C          11.1855   24.2680   -5.2367 C.2       1 MOL     0.3092
      3 C          10.2260   26.2151   -6.1500 C.ar      1 MOL     0.1404
      4 C           9.3233   25.9208   -7.1813 C.ar      1 MOL     0.0468
      5 C           8.9971   26.8741   -8.1480 C.ar      1 MOL     0.0037
      6 C           9.5803   28.1392   -8.0961 C.ar      1 MOL     0.0009
      7 C          10.5089   28.4278   -7.1007 C.ar      1 MOL     0.0131
      8 C          10.8608   27.4698   -6.1310 C.ar      1 MOL     0.0397
      9 C          11.9175   27.8765   -5.1202 C.2       1 MOL     0.0752
     10 O          11.5531   23.6934   -6.2440 O.2       1 MOL    -0.2507
     11 O          10.4492   25.3143   -5.1499 O.3       1 MOL    -0.4254
     12 O          12.6204   28.8872   -5.4336 O.co2     1 MOL    -0.5445
     13 O          12.0200   27.2032   -4.0543 O.co2     1 MOL    -0.5445
     14 H          11.4732   22.7819   -3.6737 H         1 MOL     0.0342
     15 H          10.9380   24.4037   -3.0837 H         1 MOL     0.0342
     16 H          12.6382   24.1578   -3.6288 H         1 MOL     0.0342
     17 H           8.8640   24.9447   -7.2319 H         1 MOL     0.0654
     18 H           8.2951   26.6373   -8.9340 H         1 MOL     0.0619
     19 H           9.3183   28.8916   -8.8247 H         1 MOL     0.0618
     20 H          10.9684   29.4067   -7.0675 H         1 MOL     0.0625
@<TRIPOS>BOND
     1    1    2 1 
     2    1   14 1 
     3    1   15 1 
     4    1   16 1 
     5    2   10 2 
     6    2   11 1 
     7    3    4 ar
     8    3    8 ar
     9    3   11 1 
    10    4    5 ar
    11    4   17 1 
    12    5    6 ar
    13    5   18 1 
    14    6    7 ar
    15    6   19 1 
    16    7    8 ar
    17    7   20 1 
    18    8    9 1 
    19    9   12 ar
    20    9   13 ar
@<TRIPOS>SUBSTRUCTURE
1 MOL         1
@<TRIPOS>MOLECULE
query molecule
   20    20     1     0     0
SMALL
NO_CHARGE

@<TRIPOS>ATOM
      1 C           3.0059   17.0638   14.6411 C.3       1 MOL     0.1362
      2 C           4.1898   18.0034   14.4098 C.2       1 MOL     0.3092
      3 C           6.5283   17.9270   14.7266 C.ar      1 MOL     0.1404
      4 C           6.8204   18.6975   15.8743 C.ar      1 MOL     0.0468
      5 C           8.0558   19.3179   16.0283 C.ar      1 MOL     0.0037
      6 C           9.0208   19.1647   15.0412 C.ar      1 MOL     0.0009
      7 C           8.7450   18.4139   13.9008 C.ar      1 MOL     0.0131
      8 C           7.4913   17.7956   13.7215 C.ar      1 MOL     0.0397
      9 C           7.2955   17.0446   12.4290 C.2       1 MOL     0.0752
     10 O           4.0807   19.1772   14.0984 O.2       1 MOL    -0.2507
     11 O           5.2950   17.3244   14.6499 O.3       1 MOL    -0.4254
     12 O           6.3438   16.2219   12.3710 O.co2     1 MOL    -0.5445
     13 O           8.0799   17.3180   11.4718 O.co2     1 MOL    -0.5445
     14 H           2.0554   17.6221   14.5132 H         1 MOL     0.0342
     15 H           3.0442   16.6665   15.6787 H         1 MOL     0.0342
     16 H           3.0292   16.2149   13.9289 H         1 MOL     0.0342
     17 H           6.0700   18.8091   16.6449 H         1 MOL     0.0654
     18 H           8.2616   19.9086   16.9062 H         1 MOL     0.0619
     19 H           9.9878   19.6295   15.1595 H         1 MOL     0.0618
     20 H           9.5080   18.3014   13.1420 H         1 MOL     0.0625
@<TRIPOS>BOND
     1    1    2 1 
     2    1   14 1 
     3    1   15 1 
     4    1   16 1 
     5    2   10 2 
     6    2   11 1 
     7    3    4 ar
     8    3    8 ar
     9    3   11 1 
    10    4    5 ar
    11    4   17 1 
    12    5    6 ar
    13    5   18 1 
    14    6    7 ar
    15    6   19 1 
    16    7    8 ar
    17    7   20 1 
    18    8    9 1 
    19    9   12 ar
    20    9   13 ar
@<TRIPOS>SUBSTRUCTURE
1 MOL         1
@<TRIPOS>MOLECULE
query molecule
   20    20     1     0     0
SMALL
NO_CHARGE

@<TRIPOS>ATOM
      1 C          -7.3945   19.5484    3.5311 C.3       1 MOL     0.1362
      2 C          -6.8266   19.5815    2.1175 C.2       1 MOL     0.3092
      3 C          -7.5219   20.3820    0.0088 C.ar      1 MOL     0.1404
      4 C          -7.4103   19.3141   -0.8996 C.ar      1 MOL     0.0468
      5 C          -7.2307   19.5502   -2.2598 C.ar      1 MOL     0.0037
      6 C          -7.1695   20.8603   -2.7339 C.ar      1 MOL     0.0009
      7 C          -7.2832   21.9257   -1.8420 C.ar      1 MOL     0.0131
      8 C          -7.4513   21.7042   -0.4600 C.ar      1 MOL     0.0397
      9 C          -7.5514   22.9227    0.4372 C.2       1 MOL     0.0752
     10 O          -5.7221   19.1734    1.8034 O.2       1 MOL    -0.2507
     11 O          -7.7298   20.1097    1.3379 O.3       1 MOL    -0.4254
     12 O          -7.6763   22.7447    1.6848 O.co2     1 MOL    -0.5445
     13 O          -7.5003   24.0478   -0.1509 O.co2     1 MOL    -0.5445
     14 H          -6.7071   19.0019    4.2077 H         1 MOL     0.0342
     15 H          -8.3803   19.0381    3.5312 H         1 MOL     0.0342
     16 H          -7.5314   20.5804    3.9159 H         1 MOL     0.0342
     17 H          -7.4682   18.2979   -0.5364 H         1 MOL     0.0654
     18 H          -7.1430   18.7218   -2.9454 H         1 MOL     0.0619
     19 H          -7.0402   21.0457   -3.7892 H         1 MOL     0.0618
     20 H          -7.2447   22.9384   -2.2212 H         1 MOL     0.0625
@<TRIPOS>BOND
     1    1    2 1 
     2    1   14 1 
     3    1   15 1 
     4    1   16 1 
     5    2   10 2 
     6    2   11 1 
     7    3    4 ar
     8    3    8 ar
     9    3   11 1 
    10    4    5 ar
    11    4   17 1 
    12    5    6 ar
    13    5   18 1 
    14    6    7 ar
    15    6   19 1 
    16    7    8 ar
    17    7   20 1 
    18    8    9 1 
    19    9   12 ar
    20    9   13 ar
@<TRIPOS>SUBSTRUCTURE
1 MOL         1
@<TRIPOS>MOLECULE
query molecule
   20    20     1     0     0
SMALL
NO_CHARGE

@<TRIPOS>ATOM
      1 C          27.8874    7.6144  -10.9260 C.3       1 MOL     0.1362
      2 C          26.5965    8.3946  -10.7031 C.2       1 MOL     0.3092
      3 C          25.0351    9.5282  -12.0668 C.ar      1 MOL     0.1404
      4 C          24.0679    8.7578  -12.7481 C.ar      1 MOL     0.0468
      5 C          22.7874    9.2602  -12.9827 C.ar      1 MOL     0.0037
      6 C          22.4495   10.5347  -12.5292 C.ar      1 MOL     0.0009
      7 C          23.4009   11.2949  -11.8539 C.ar      1 MOL     0.0131
      8 C          24.7098   10.8171  -11.6352 C.ar      1 MOL     0.0397
      9 C          25.6764   11.7571  -10.9543 C.2       1 MOL     0.0752
     10 O          26.0009    8.4404   -9.6386 O.2       1 MOL    -0.2507
     11 O          26.2640    8.9647  -11.8353 O.3       1 MOL    -0.4254
     12 O          26.9111   11.4966  -11.0267 O.co2     1 MOL    -0.5445
     13 O          25.1515   12.7515  -10.3711 O.co2     1 MOL    -0.5445
     14 H          28.1232    7.0043  -10.0296 H         1 MOL     0.0342
     15 H          28.7287    8.3071  -11.1253 H         1 MOL     0.0342
     16 H          27.7675    6.9349  -11.7960 H         1 MOL     0.0342
     17 H          24.3185    7.7624  -13.0887 H         1 MOL     0.0654
     18 H          22.0621    8.6606  -13.5122 H         1 MOL     0.0619
     19 H          21.4605   10.9268  -12.7088 H         1 MOL     0.0618
     20 H          23.1372   12.2885  -11.5111 H         1 MOL     0.0625
@<TRIPOS>BOND
     1    1    2 1 
     2    1   14 1 
     3    1   15 1 
     4    1   16 1 
     5    2   10 2 
     6    2   11 1 
     7    3    4 ar
     8    3    8 ar
     9    3   11 1 
    10    4    5 ar
    11    4   17 1 
    12    5    6 ar
    13    5   18 1 
    14    6    7 ar
    15    6   19 1 
    16    7    8 ar
    17    7   20 1 
    18    8    9 1 
    19    9   12 ar
    20    9   13 ar
@<TRIPOS>SUBSTRUCTURE
1 MOL         1
@<TRIPOS>MOLECULE
query molecule
   20    20     1     0     0
SMALL
NO_CHARGE

@<TRIPOS>ATOM
      1 C          19.1054   15.0123    3.8063 C.3       1 MOL     0.1362
      2 C          19.4455   16.3090    4.5257 C.2       1 MOL     0.3092
      3 C          18.3590   17.9220    5.8495 C.ar      1 MOL     0.1404
      4 C          18.8537   18.1029    7.1482 C.ar      1 MOL     0.0468
      5 C          18.8639   19.3752    7.7216 C.ar      1 MOL     0.0037
      6 C          18.3990   20.4740    6.9975 C.ar      1 MOL     0.0009
      7 C          17.9038   20.2958    5.7133 C.ar      1 MOL     0.0131
      8 C          17.8402   19.0178    5.1379 C.ar      1 MOL     0.0397
      9 C          17.1660   18.8521    3.7915 C.2       1 MOL     0.0752
     10 O          20.4989   16.9114    4.3990 O.2       1 MOL    -0.2507
     11 O          18.4037   16.6656    5.2705 O.3       1 MOL    -0.4254
     12 O          16.7508   17.6864    3.5089 O.co2     1 MOL    -0.5445
     13 O          17.0391   19.8904    3.0861 O.co2     1 MOL    -0.5445
     14 H          19.9686   14.6846    3.1897 H         1 MOL     0.0342
     15 H          18.2325   15.1680    3.1387 H         1 MOL     0.0342
     16 H          18.8635   14.2140    4.5357 H         1 MOL     0.0342
     17 H          19.2344   17.2550    7.6986 H         1 MOL     0.0654
     18 H          19.2394   19.5094    8.7255 H         1 MOL     0.0619
     19 H          18.4174   21.4599    7.4353 H         1 MOL     0.0618
     20 H          17.5381   21.1483    5.1581 H         1 MOL     0.0625
@<TRIPOS>BOND
     1    1    2 1 
     2    1   14 1 
     3    1   15 1 
     4    1   16 1 
     5    2   10 2 
     6    2   11 1 
     7    3    4 ar
     8    3    8 ar
     9    3   11 1 
    10    4    5 ar
    11    4   17 1 
    12    5    6 ar
    13    5   18 1 
    14    6    7 ar
    15    6   19 1 
    16    7    8 ar
    17    7   20 1 
    18    8    9 1 
    19    9   12 ar
    20    9   13 ar
@<TRIPOS>SUBSTRUCTURE
1 MOL         1
@<TRIPOS>MOLECULE
query molecule
   20    20     1     0     0
SMALL
NO_CHARGE

@<TRIPOS>ATOM
      1 C          -2.0658   32.0604   -6.4570 C.3       1 MOL     0.1362
      2 C          -2.2022   30.8609   -5.5267 C.2       1 MOL     0.3092
      3 C          -1.0339   28.8646   -5.0790 C.ar      1 MOL     0.1404
      4 C          -1.7294   27.7200   -5.5245 C.ar      1 MOL     0.0468
      5 C          -1.5616   26.4908   -4.8916 C.ar      1 MOL     0.0037
      6 C          -0.7111   26.3905   -3.7989 C.ar      1 MOL     0.0009
      7 C          -0.0309   27.5210   -3.3564 C.ar      1 MOL     0.0131
      8 C          -0.1701   28.7765   -3.9789 C.ar      1 MOL     0.0397
      9 C           0.6576   29.9274   -3.4193 C.2       1 MOL     0.0752
     10 O          -3.0987   30.7129   -4.7166 O.2       1 MOL    -0.2507
     11 O          -1.2057   30.0361   -5.7800 O.3       1 MOL    -0.4254
     12 O           0.5090   31.0652   -3.9566 O.co2     1 MOL    -0.5445
     13 O           1.4552   29.6620   -2.4596 O.co2     1 MOL    -0.5445
     14 H          -2.9173   32.7564   -6.3143 H         1 MOL     0.0342
     15 H          -2.0643   31.7076   -7.5102 H         1 MOL     0.0342
     16 H          -1.1199   32.6040   -6.2624 H         1 MOL     0.0342
     17 H          -2.3972   27.7928   -6.3727 H         1 MOL     0.0654
     18 H          -2.0962   25.6223   -5.2450 H         1 MOL     0.0619
     19 H          -0.5801   25.4435   -3.3001 H         1 MOL     0.0618
     20 H           0.6405   27.4299   -2.5106 H         1 MOL     0.0625
@<TRIPOS>BOND
     1    1    2 1 
     2    1   14 1 
     3    1   15 1 
     4    1   16 1 
     5    2   10 2 
     6    2   11 1 
     7    3    4 ar
     8    3    8 ar
     9    3   11 1 
    10    4    5 ar
    11    4   17 1 
    12    5    6 ar
    13    5   18 1 
    14    6    7 ar
    15    6   19 1 
    16    7    8 ar
    17    7   20 1 
    18    8    9 1 
    19    9   12 ar
    20    9   13 ar
@<TRIPOS>SUBSTRUCTURE
1 MOL         1
@<TRIPOS>MOLECULE
query molecule
   20    20     1     0     0
SMALL
NO_CHARGE

@<TRIPOS>ATOM
      1 C          -1.5566   22.9821   -7.3047 C.3       1 MOL     0.1362
      2 C          -0.6963   24.0965   -6.7213 C.2       1 MOL     0.3092
      3 C          -1.0956   26.2607   -5.8897 C.ar      1 MOL     0.1404
      4 C          -0.4971   27.3069   -6.6152 C.ar      1 MOL     0.0468
      5 C          -0.1713   28.5113   -5.9885 C.ar      1 MOL     0.0037
      6 C          -0.4373   28.6801   -4.6295 C.ar      1 MOL     0.0009
      7 C          -0.9951   27.6306   -3.9012 C.ar      1 MOL     0.0131
      8 C          -1.3233   26.4045   -4.5115 C.ar      1 MOL     0.0397
      9 C          -1.9205   25.3152   -3.6355 C.2       1 MOL     0.0752
     10 O           0.4827   24.0111   -6.4545 O.2       1 MOL    -0.2507
     11 O          -1.4774   25.1240   -6.5520 O.3       1 MOL    -0.4254
     12 O          -2.3844   24.2765   -4.1926 O.co2     1 MOL    -0.5445
     13 O          -1.9130   25.5471   -2.3876 O.co2     1 MOL    -0.5445
     14 H          -0.9187   22.1374   -7.6327 H         1 MOL     0.0342
     15 H          -2.1279   23.3615   -8.1769 H         1 MOL     0.0342
     16 H          -2.2718   22.6175   -6.5388 H         1 MOL     0.0342
     17 H          -0.2917   27.1822   -7.6696 H         1 MOL     0.0654
     18 H           0.2832   29.3117   -6.5544 H         1 MOL     0.0619
     19 H          -0.2113   29.6195   -4.1466 H         1 MOL     0.0618
     20 H          -1.1917   27.7683   -2.8460 H         1 MOL     0.0625
@<TRIPOS>BOND
     1    1    2 1 
     2    1   14 1 
     3    1   15 1 
     4    1   16 1 
     5    2   10 2 
     6    2   11 1 
     7    3    4 ar
     8    3    8 ar
     9    3   11 1 
    10    4    5 ar
    11    4   17 1 
    12    5    6 ar
    13    5   18 1 
    14    6    7 ar
    15    6   19 1 
    16    7    8 ar
    17    7   20 1 
    18    8    9 1 
    19    9   12 ar
    20    9   13 ar
@<TRIPOS>SUBSTRUCTURE
1 MOL         1
@<TRIPOS>MOLECULE
query molecule
   20    20     1     0     0
SMALL
NO_CHARGE

@<TRIPOS>ATOM
      1 C           6.7921   28.2303   -6.9683 C.3       1 MOL     0.1362
      2 C           7.5830   26.9682   -7.2772 C.2       1 MOL     0.3092
      3 C           9.8338   26.2751   -7.1411 C.ar      1 MOL     0.1404
      4 C          10.1486   25.5317   -5.9861 C.ar      1 MOL     0.0468
      5 C          11.1940   24.6133   -5.9814 C.ar      1 MOL     0.0037
      6 C          11.9550   24.4288   -7.1350 C.ar      1 MOL     0.0009
      7 C          11.6478   25.1559   -8.2840 C.ar      1 MOL     0.0131
      8 C          10.5761   26.0722   -8.3105 C.ar      1 MOL     0.0397
      9 C          10.3157   26.7697   -9.6311 C.2       1 MOL     0.0752
     10 O           7.0804   25.9137   -7.6502 O.2       1 MOL    -0.2507
     11 O           8.8382   27.2112   -7.0633 O.3       1 MOL    -0.4254
     12 O           9.3155   27.5409   -9.7123 O.co2     1 MOL    -0.5445
     13 O          11.1376   26.5150  -10.5667 O.co2     1 MOL    -0.5445
     14 H           5.7038   28.0239   -7.0196 H         1 MOL     0.0342
     15 H           7.0447   29.0271   -7.6963 H         1 MOL     0.0342
     16 H           7.0410   28.5860   -5.9469 H         1 MOL     0.0342
     17 H           9.5674   25.6773   -5.0848 H         1 MOL     0.0654
     18 H          11.4205   24.0511   -5.0903 H         1 MOL     0.0619
     19 H          12.7730   23.7297   -7.1385 H         1 MOL     0.0618
     20 H          12.2449   25.0116   -9.1748 H         1 MOL     0.0625
@<TRIPOS>BOND
     1    1    2 1 
     2    1   14 1 
     3    1   15 1 
     4    1   16 1 
     5    2   10 2 
     6    2   11 1 
     7    3    4 ar
     8    3    8 ar
     9    3   11 1 
    10    4    5 ar
    11    4   17 1 
    12    5    6 ar
    13    5   18 1 
    14    6    7 ar
    15    6   19 1 
    16    7    8 ar
    17    7   20 1 
    18    8    9 1 
    19    9   12 ar
    20    9   13 ar
@<TRIPOS>SUBSTRUCTURE
1 MOL         1
@<TRIPOS>MOLECULE
query molecule
   20    20     1     0     0
SMALL
NO_CHARGE

@<TRIPOS>ATOM
      1 C          21.9486   27.3565   -1.1948 C.3       1 MOL     0.1362
      2 C          20.7946   28.2340   -1.6598 C.2       1 MOL     0.3092
      3 C          18.4803   28.0182   -2.0351 C.ar      1 MOL     0.1404
      4 C          17.8483   28.7752   -1.0269 C.ar      1 MOL     0.0468
      5 C          16.5736   29.2969   -1.2176 C.ar      1 MOL     0.0037
      6 C          15.9045   29.0606   -2.4162 C.ar      1 MOL     0.0009
      7 C          16.5215   28.3113   -3.4173 C.ar      1 MOL     0.0131
      8 C          17.8239   27.7909   -3.2512 C.ar      1 MOL     0.0397
      9 C          18.4115   27.0137   -4.4168 C.2       1 MOL     0.0752
     10 O          20.8769   29.4356   -1.8600 O.2       1 MOL    -0.2507
     11 O          19.7193   27.4815   -1.7661 O.3       1 MOL    -0.4254
     12 O          19.6296   26.6719   -4.3631 O.co2     1 MOL    -0.5445
     13 O          17.6124   26.7587   -5.3717 O.co2     1 MOL    -0.5445
     14 H          22.7770   27.9915   -0.8170 H         1 MOL     0.0342
     15 H          22.3181   26.7338   -2.0333 H         1 MOL     0.0342
     16 H          21.6095   26.6920   -0.3722 H         1 MOL     0.0342
     17 H          18.3589   28.9436   -0.0890 H         1 MOL     0.0654
     18 H          16.1018   29.8766   -0.4386 H         1 MOL     0.0619
     19 H          14.9138   29.4609   -2.5699 H         1 MOL     0.0618
     20 H          15.9915   28.1357   -4.3451 H         1 MOL     0.0625
@<TRIPOS>BOND
     1    1    2 1 
     2    1   14 1 
     3    1   15 1 
     4    1   16 1 
     5    2   10 2 
     6    2   11 1 
     7    3    4 ar
     8    3    8 ar
     9    3   11 1 
    10    4    5 ar
    11    4   17 1 
    12    5    6 ar
    13    5   18 1 
    14    6    7 ar
    15    6   19 1 
    16    7    8 ar
    17    7   20 1 
    18    8    9 1 
    19    9   12 ar
    20    9   13 ar
@<TRIPOS>SUBSTRUCTURE
1 MOL         1
@<TRIPOS>MOLECULE
query molecule
   20    20     1     0     0
SMALL
NO_CHARGE

@<TRIPOS>ATOM
      1 C          24.8382    9.4094   -3.0796 C.3       1 MOL     0.1362
      2 C          23.5340    9.3084   -2.2989 C.2       1 MOL     0.3092
      3 C          22.8532    8.6471   -0.1325 C.ar      1 MOL     0.1404
      4 C          22.3668    9.8031    0.5103 C.ar      1 MOL     0.0468
      5 C          21.4574    9.7088    1.5609 C.ar      1 MOL     0.0037
      6 C          21.0111    8.4573    1.9792 C.ar      1 MOL     0.0009
      7 C          21.4652    7.3099    1.3315 C.ar      1 MOL     0.0131
      8 C          22.3825    7.3860    0.2615 C.ar      1 MOL     0.0397
      9 C          22.7880    6.0756   -0.3829 C.2       1 MOL     0.0752
     10 O          22.4503    9.6755   -2.7184 O.2       1 MOL    -0.2507
     11 O          23.8013    8.7890   -1.1213 O.3       1 MOL    -0.4254
     12 O          22.1790    5.0406    0.0191 O.co2     1 MOL    -0.5445
     13 O          23.6836    6.1075   -1.2750 O.co2     1 MOL    -0.5445
     14 H          24.6347    9.3906   -4.1691 H         1 MOL     0.0342
     15 H          25.5043    8.5627   -2.8205 H         1 MOL     0.0342
     16 H          25.3549   10.3579   -2.8274 H         1 MOL     0.0342
     17 H          22.7077   10.7763    0.1793 H         1 MOL     0.0654
     18 H          21.1017   10.6023    2.0484 H         1 MOL     0.0619
     19 H          20.3228    8.3734    2.8065 H         1 MOL     0.0618
     20 H          21.1177    6.3391    1.6602 H         1 MOL     0.0625
@<TRIPOS>BOND
     1    1    2 1 
     2    1   14 1 
     3    1   15 1 
     4    1   16 1 
     5    2   10 2 
     6    2   11 1 
     7    3    4 ar
     8    3    8 ar
     9    3   11 1 
    10    4    5 ar
    11    4   17 1 
    12    5    6 ar
    13    5   18 1 
    14    6    7 ar
    15    6   19 1 
    16    7    8 ar
    17    7   20 1 
    18    8    9 1 
    19    9   12 ar
    20    9   13 ar
@<TRIPOS>SUBSTRUCTURE
1 MOL         1
@<TRIPOS>MOLECULE
query molecule
   20    20     1     0     0
SMALL
NO_CHARGE

@<TRIPOS>ATOM
      1 C          -6.4143   19.5762    3.6887 C.3       1 MOL     0.1362
      2 C          -6.1457   21.0005    4.1649 C.2       1 MOL     0.3092
      3 C          -4.8631   22.0173    5.8644 C.ar      1 MOL     0.1404
      4 C          -5.6389   22.7218    6.8099 C.ar      1 MOL     0.0468
      5 C          -5.1112   23.8291    7.4803 C.ar      1 MOL     0.0037
      6 C          -3.8128   24.2516    7.2077 C.ar      1 MOL     0.0009
      7 C          -3.0501   23.5501    6.2850 C.ar      1 MOL     0.0131
      8 C          -3.5382   22.4157    5.6171 C.ar      1 MOL     0.0397
      9 C          -2.5812   21.6969    4.6907 C.2       1 MOL     0.0752
     10 O          -6.5487   22.0030    3.6065 O.2       1 MOL    -0.2507
     11 O          -5.4085   20.9283    5.2343 O.3       1 MOL    -0.4254
     12 O          -1.3735   22.0772    4.6996 O.co2     1 MOL    -0.5445
     13 O          -3.0481   20.7598    3.9777 O.co2     1 MOL    -0.5445
     14 H          -7.0629   19.5909    2.7886 H         1 MOL     0.0342
     15 H          -6.9210   18.9989    4.4890 H         1 MOL     0.0342
     16 H          -5.4583   19.0756    3.4353 H         1 MOL     0.0342
     17 H          -6.6475   22.4015    7.0289 H         1 MOL     0.0654
     18 H          -5.7105   24.3581    8.2076 H         1 MOL     0.0619
     19 H          -3.4050   25.1157    7.7090 H         1 MOL     0.0618
     20 H          -2.0354   23.8813    6.0733 H         1 MOL     0.0625
@<TRIPOS>BOND
     1    1    2 1 
     2    1   14 1 
     3    1   15 1 
     4    1   16 1 
     5    2   10 2 
     6    2   11 1 
     7    3    4 ar
     8    3    8 ar
     9    3   11 1 
    10    4    5 ar
    11    4   17 1 
    12    5    6 ar
    13    5   18 1 
    14    6    7 ar
    15    6   19 1 
    16    7    8 ar
    17    7   20 1 
    18    8    9 1 
    19    9   12 ar
    20    9   13 ar
@<TRIPOS>SUBSTRUCTURE
1 MOL         1
@<TRIPOS>MOLECULE
query molecule
   20    20     1     0     0
SMALL
NO_CHARGE

@<TRIPOS>ATOM
      1 C          23.6387    9.8043   -3.1484 C.3       1 MOL     0.1362
      2 C          22.7121   10.3164   -2.0577 C.2       1 MOL     0.3092
      3 C          22.4871    9.8226    0.2342 C.ar      1 MOL     0.1404
      4 C          21.9348    8.5531    0.5204 C.ar      1 MOL     0.0468
      5 C          21.2260    8.3274    1.6982 C.ar      1 MOL     0.0037
      6 C          21.0618    9.3646    2.6133 C.ar      1 MOL     0.0009
      7 C          21.6053   10.6208    2.3397 C.ar      1 MOL     0.0131
      8 C          22.3168   10.8691    1.1429 C.ar      1 MOL     0.0397
      9 C          22.8398   12.2721    0.9270 C.2       1 MOL     0.0752
     10 O          21.6849   10.9326   -2.2397 O.2       1 MOL    -0.2507
     11 O          23.2177    9.9391   -0.9156 O.3       1 MOL    -0.4254
     12 O          22.8342   13.0325    1.9463 O.co2     1 MOL    -0.5445
     13 O          23.2187   12.5859   -0.2327 O.co2     1 MOL    -0.5445
     14 H          23.1948    9.9891   -4.1452 H         1 MOL     0.0342
     15 H          23.7896    8.7037   -3.0269 H         1 MOL     0.0342
     16 H          24.6198   10.3057   -3.0815 H         1 MOL     0.0342
     17 H          22.0674    7.7425   -0.1861 H         1 MOL     0.0654
     18 H          20.8078    7.3525    1.9018 H         1 MOL     0.0619
     19 H          20.5135    9.1964    3.5282 H         1 MOL     0.0618
     20 H          21.4660   11.4220    3.0545 H         1 MOL     0.0625
@<TRIPOS>BOND
     1    1    2 1 
     2    1   14 1 
     3    1   15 1 
     4    1   16 1 
     5    2   10 2 
     6    2   11 1 
     7    3    4 ar
     8    3    8 ar
     9    3   11 1 
    10    4    5 ar
    11    4   17 1 
    12    5    6 ar
    13    5   18 1 
    14    6    7 ar
    15    6   19 1 
    16    7    8 ar
    17    7   20 1 
    18    8    9 1 
    19    9   12 ar
    20    9   13 ar
@<TRIPOS>SUBSTRUCTURE
1 MOL         1
@<TRIPOS>MOLECULE
query molecule
   20    20     1     0     0
SMALL
NO_CHARGE

@<TRIPOS>ATOM
      1 C           4.7392   19.0055   15.6805 C.3       1 MOL     0.1362
      2 C           4.4513   17.8813   14.7009 C.2       1 MOL     0.3092
      3 C           5.5372   15.9837   13.8184 C.ar      1 MOL     0.1404
      4 C           4.7026   14.8545   13.9208 C.ar      1 MOL     0.0468
      5 C           4.7391   13.8555   12.9472 C.ar      1 MOL     0.0037
      6 C           5.6165   13.9669   11.8685 C.ar      1 MOL     0.0009
      7 C           6.4741   15.0629   11.7842 C.ar      1 MOL     0.0131
      8 C           6.4513   16.0867   12.7526 C.ar      1 MOL     0.0397
      9 C           7.4082   17.2535   12.5699 C.2       1 MOL     0.0752
     10 O           3.4671   17.8479   13.9754 O.2       1 MOL    -0.2507
     11 O           5.4293   16.9901   14.7623 O.3       1 MOL    -0.4254
     12 O           7.4813   18.1032   13.5012 O.co2     1 MOL    -0.5445
     13 O           8.0467   17.2965   11.4742 O.co2     1 MOL    -0.5445
     14 H           3.8749   19.6967   15.7378 H         1 MOL     0.0342
     15 H           5.6311   19.5790   15.3474 H         1 MOL     0.0342
     16 H           4.9379   18.5939   16.6932 H         1 MOL     0.0342
     17 H           4.0201   14.7641   14.7550 H         1 MOL     0.0654
     18 H           4.0885   12.9968   13.0278 H         1 MOL     0.0619
     19 H           5.6329   13.2067   11.1015 H         1 MOL     0.0618
     20 H           7.1676   15.1330   10.9573 H         1 MOL     0.0625
@<TRIPOS>BOND
     1    1    2 1 
     2    1   14 1 
     3    1   15 1 
     4    1   16 1 
     5    2   10 2 
     6    2   11 1 
     7    3    4 ar
     8    3    8 ar
     9    3   11 1 
    10    4    5 ar
    11    4   17 1 
    12    5    6 ar
    13    5   18 1 
    14    6    7 ar
    15    6   19 1 
    16    7    8 ar
    17    7   20 1 
    18    8    9 1 
    19    9   12 ar
    20    9   13 ar
@<TRIPOS>SUBSTRUCTURE
1 MOL         1
@<TRIPOS>MOLECULE
query molecule
   20    20     1     0     0
SMALL
NO_CHARGE

@<TRIPOS>ATOM
      1 C          -3.6625   18.6864    9.8528 C.3       1 MOL     0.1362
      2 C          -4.1762   17.4038    9.1986 C.2       1 MOL     0.3092
      3 C          -4.2083   15.1021    9.7111 C.ar      1 MOL     0.1404
      4 C          -5.4382   14.7940   10.3402 C.ar      1 MOL     0.0468
      5 C          -6.0410   13.5494   10.1697 C.ar      1 MOL     0.0037
      6 C          -5.4261   12.5923    9.3641 C.ar      1 MOL     0.0009
      7 C          -4.2059   12.8831    8.7535 C.ar      1 MOL     0.0131
      8 C          -3.5650   14.1298    8.9345 C.ar      1 MOL     0.0397
      9 C          -2.2025   14.2904    8.2848 C.2       1 MOL     0.0752
     10 O          -4.9216   17.3710    8.2424 O.2       1 MOL    -0.2507
     11 O          -3.6947   16.3719    9.8769 O.3       1 MOL    -0.4254
     12 O          -1.4455   15.1999    8.7354 O.co2     1 MOL    -0.5445
     13 O          -1.9166   13.4702    7.3522 O.co2     1 MOL    -0.5445
     14 H          -4.1116   19.5715    9.3591 H         1 MOL     0.0342
     15 H          -2.5598   18.7386    9.7623 H         1 MOL     0.0342
     16 H          -3.9328   18.7009   10.9297 H         1 MOL     0.0342
     17 H          -5.9258   15.5372   10.9605 H         1 MOL     0.0654
     18 H          -6.9804   13.3265   10.6543 H         1 MOL     0.0619
     19 H          -5.8922   11.6290    9.2164 H         1 MOL     0.0618
     20 H          -3.7308   12.1270    8.1435 H         1 MOL     0.0625
@<TRIPOS>BOND
     1    1    2 1 
     2    1   14 1 
     3    1   15 1 
     4    1   16 1 
     5    2   10 2 
     6    2   11 1 
     7    3    4 ar
     8    3    8 ar
     9    3   11 1 
    10    4    5 ar
    11    4   17 1 
    12    5    6 ar
    13    5   18 1 
    14    6    7 ar
    15    6   19 1 
    16    7    8 ar
    17    7   20 1 
    18    8    9 1 
    19    9   12 ar
    20    9   13 ar
@<TRIPOS>SUBSTRUCTURE
1 MOL         1
@<TRIPOS>MOLECULE
query molecule
   20    20     1     0     0
SMALL
NO_CHARGE

@<TRIPOS>ATOM
      1 C          21.6340    1.7563   -1.8308 C.3       1 MOL     0.1362
      2 C          21.0230    3.1220   -1.5671 C.2       1 MOL     0.3092
      3 C          19.3369    3.9191   -0.1300 C.ar      1 MOL     0.1404
      4 C          19.8351    4.3604    1.1140 C.ar      1 MOL     0.0468
      5 C          19.1010    5.2445    1.9035 C.ar      1 MOL     0.0037
      6 C          17.8512    5.6837    1.4692 C.ar      1 MOL     0.0009
      7 C          17.3634    5.2685    0.2304 C.ar      1 MOL     0.0131
      8 C          18.1221    4.4252   -0.6085 C.ar      1 MOL     0.0397
      9 C          17.5642    4.1601   -1.9922 C.2       1 MOL     0.0752
     10 O          21.4293    4.1709   -2.0248 O.2       1 MOL    -0.2507
     11 O          20.0235    2.9449   -0.7888 O.3       1 MOL    -0.4254
     12 O          18.3705    3.7158   -2.8582 O.co2     1 MOL    -0.5445
     13 O          16.3417    4.4469   -2.1742 O.co2     1 MOL    -0.5445
     14 H          22.5220    1.8523   -2.4877 H         1 MOL     0.0342
     15 H          20.8841    1.1046   -2.3265 H         1 MOL     0.0342
     16 H          21.9435    1.2817   -0.8764 H         1 MOL     0.0342
     17 H          20.7890    3.9958    1.4671 H         1 MOL     0.0654
     18 H          19.4968    5.5787    2.8507 H         1 MOL     0.0619
     19 H          17.2693    6.3482    2.0903 H         1 MOL     0.0618
     20 H          16.3946    5.6198   -0.0983 H         1 MOL     0.0625
@<TRIPOS>BOND
     1    1    2 1 
     2    1   14 1 
     3    1   15 1 
     4    1   16 1 
     5    2   10 2 
     6    2   11 1 
     7    3    4 ar
     8    3    8 ar
     9    3   11 1 
    10    4    5 ar
    11    4   17 1 
    12    5    6 ar
    13    5   18 1 
    14    6    7 ar
    15    6   19 1 
    16    7    8 ar
    17    7   20 1 
    18    8    9 1 
    19    9   12 ar
    20    9   13 ar
@<TRIPOS>SUBSTRUCTURE
1 MOL         1
@<TRIPOS>MOLECULE
query molecule
   20    20     1     0     0
SMALL
NO_CHARGE

@<TRIPOS>ATOM
      1 C          20.6177   10.0063  -11.4879 C.3       1 MOL     0.1362
      2 C          21.5854   10.7571  -12.3949 C.2       1 MOL     0.3092
      3 C          23.8245   10.5245  -13.0969 C.ar      1 MOL     0.1404
      4 C          23.9595   10.0166  -14.4093 C.ar      1 MOL     0.0468
      5 C          25.0584   10.3509  -15.2039 C.ar      1 MOL     0.0037
      6 C          26.0358   11.2035  -14.6885 C.ar      1 MOL     0.0009
      7 C          25.8939   11.7320  -13.4034 C.ar      1 MOL     0.0131
      8 C          24.7891   11.4031  -12.5854 C.ar      1 MOL     0.0397
      9 C          24.7217   12.0469  -11.2140 C.2       1 MOL     0.0752
     10 O          21.3031   11.7498  -13.0431 O.2       1 MOL    -0.2507
     11 O          22.7385   10.1341  -12.3518 O.3       1 MOL    -0.4254
     12 O          25.5437   13.0029  -11.0269 O.co2     1 MOL    -0.5445
     13 O          23.8630   11.6615  -10.3675 O.co2     1 MOL    -0.5445
     14 H          19.8284   10.6864  -11.1114 H         1 MOL     0.0342
     15 H          21.1655    9.5762  -10.6232 H         1 MOL     0.0342
     16 H          20.1400    9.1779  -12.0512 H         1 MOL     0.0342
     17 H          23.1988    9.3601  -14.8077 H         1 MOL     0.0654
     18 H          25.1546    9.9509  -16.2015 H         1 MOL     0.0619
     19 H          26.9003   11.4529  -15.2874 H         1 MOL     0.0618
     20 H          26.6546   12.4060  -13.0300 H         1 MOL     0.0625
@<TRIPOS>BOND
     1    1    2 1 
     2    1   14 1 
     3    1   15 1 
     4    1   16 1 
     5    2   10 2 
     6    2   11 1 
     7    3    4 ar
     8    3    8 ar
     9    3   11 1 
    10    4    5 ar
    11    4   17 1 
    12    5    6 ar
    13    5   18 1 
    14    6    7 ar
    15    6   19 1 
    16    7    8 ar
    17    7   20 1 
    18    8    9 1 
    19    9   12 ar
    20    9   13 ar
@<TRIPOS>SUBSTRUCTURE
1 MOL         1
@<TRIPOS>MOLECULE
query molecule
   20    20     1     0     0
SMALL
NO_CHARGE

@<TRIPOS>ATOM
      1 C          -4.2514   34.6564    3.5708 C.3       1 MOL     0.1362
      2 C          -4.8338   34.0497    2.3030 C.2       1 MOL     0.3092
      3 C          -6.5918   32.6156    1.6647 C.ar      1 MOL     0.1404
      4 C          -7.5517   33.1970    0.8137 C.ar      1 MOL     0.0468
      5 C          -8.2186   32.4406   -0.1459 C.ar      1 MOL     0.0037
      6 C          -7.9344   31.0818   -0.2563 C.ar      1 MOL     0.0009
      7 C          -7.0057   30.4875    0.5954 C.ar      1 MOL     0.0131
      8 C          -6.3116   31.2447    1.5586 C.ar      1 MOL     0.0397
      9 C          -5.2958   30.5031    2.4063 C.2       1 MOL     0.0752
     10 O          -4.3350   34.1536    1.1969 O.2       1 MOL    -0.2507
     11 O          -5.9527   33.4105    2.6007 O.3       1 MOL    -0.4254
     12 O          -4.5450   31.1775    3.1689 O.co2     1 MOL    -0.5445
     13 O          -5.2806   29.2390    2.2772 O.co2     1 MOL    -0.5445
     14 H          -3.3164   35.2058    3.3375 H         1 MOL     0.0342
     15 H          -4.0257   33.8566    4.3043 H         1 MOL     0.0342
     16 H          -4.9793   35.3621    4.0210 H         1 MOL     0.0342
     17 H          -7.7708   34.2530    0.9000 H         1 MOL     0.0654
     18 H          -8.9474   32.8997   -0.7929 H         1 MOL     0.0619
     19 H          -8.4431   30.4850   -0.9964 H         1 MOL     0.0618
     20 H          -6.8112   29.4269    0.5121 H         1 MOL     0.0625
@<TRIPOS>BOND
     1    1    2 1 
     2    1   14 1 
     3    1   15 1 
     4    1   16 1 
     5    2   10 2 
     6    2   11 1 
     7    3    4 ar
     8    3    8 ar
     9    3   11 1 
    10    4    5 ar
    11    4   17 1 
    12    5    6 ar
    13    5   18 1 
    14    6    7 ar
    15    6   19 1 
    16    7    8 ar
    17    7   20 1 
    18    8    9 1 
    19    9   12 ar
    20    9   13 ar
@<TRIPOS>SUBSTRUCTURE
1 MOL         1
@<TRIPOS>MOLECULE
query molecule
   20    20     1     0     0
SMALL
NO_CHARGE

@<TRIPOS>ATOM
      1 C          -2.3086   24.8834   -2.8083 C.3       1 MOL     0.1362
      2 C          -1.5424   25.9230   -3.6109 C.2       1 MOL     0.3092
      3 C          -1.3512   26.5514   -5.8705 C.ar      1 MOL     0.1404
      4 C          -1.7987   27.8827   -6.0039 C.ar      1 MOL     0.0468
      5 C          -1.2968   28.6969   -7.0215 C.ar      1 MOL     0.0037
      6 C          -0.3400   28.1941   -7.9033 C.ar      1 MOL     0.0009
      7 C           0.1006   26.8792   -7.7751 C.ar      1 MOL     0.0131
      8 C          -0.4038   26.0350   -6.7692 C.ar      1 MOL     0.0397
      9 C           0.1165   24.6071   -6.7267 C.2       1 MOL     0.0752
     10 O          -0.7779   26.7471   -3.1407 O.2       1 MOL    -0.2507
     11 O          -1.8660   25.7682   -4.8655 O.3       1 MOL    -0.4254
     12 O           0.9245   24.2816   -7.6519 O.co2     1 MOL    -0.5445
     13 O          -0.2790   23.8544   -5.7888 O.co2     1 MOL    -0.5445
     14 H          -2.0663   24.9602   -1.7301 H         1 MOL     0.0342
     15 H          -2.0243   23.8718   -3.1647 H         1 MOL     0.0342
     16 H          -3.4032   25.0067   -2.9441 H         1 MOL     0.0342
     17 H          -2.5289   28.2866   -5.3165 H         1 MOL     0.0654
     18 H          -1.6416   29.7151   -7.1316 H         1 MOL     0.0619
     19 H           0.0619   28.8196   -8.6861 H         1 MOL     0.0618
     20 H           0.8483   26.4976   -8.4575 H         1 MOL     0.0625
@<TRIPOS>BOND
     1    1    2 1 
     2    1   14 1 
     3    1   15 1 
     4    1   16 1 
     5    2   10 2 
     6    2   11 1 
     7    3    4 ar
     8    3    8 ar
     9    3   11 1 
    10    4    5 ar
    11    4   17 1 
    12    5    6 ar
    13    5   18 1 
    14    6    7 ar
    15    6   19 1 
    16    7    8 ar
    17    7   20 1 
    18    8    9 1 
    19    9   12 ar
    20    9   13 ar
@<TRIPOS>SUBSTRUCTURE
1 MOL         1
@<TRIPOS>MOLECULE
query molecule
   20    20     1     0     0
SMALL
NO_CHARGE

@<TRIPOS>ATOM
      1 C          14.2050   28.9200   15.2456 C.3       1 MOL     0.1362
      2 C          13.5453   30.2307   15.6175 C.2       1 MOL     0.3092
      3 C          14.2991   32.4097   16.1174 C.ar      1 MOL     0.1404
      4 C          13.7676   32.9491   17.3054 C.ar      1 MOL     0.0468
      5 C          13.6324   34.3401   17.4634 C.ar      1 MOL     0.0037
      6 C          14.0292   35.1980   16.4347 C.ar      1 MOL     0.0009
      7 C          14.5309   34.6676   15.2525 C.ar      1 MOL     0.0131
      8 C          14.6630   33.2824   15.0766 C.ar      1 MOL     0.0397
      9 C          15.2141   32.8426   13.7425 C.2       1 MOL     0.0752
     10 O          12.3472   30.4248   15.5272 O.2       1 MOL    -0.2507
     11 O          14.4699   31.0576   15.9648 O.3       1 MOL    -0.4254
     12 O          15.6435   31.6585   13.6437 O.co2     1 MOL    -0.5445
     13 O          15.1824   33.7175   12.8229 O.co2     1 MOL    -0.5445
     14 H          13.4598   28.1480   14.9784 H         1 MOL     0.0342
     15 H          14.8280   28.5539   16.0842 H         1 MOL     0.0342
     16 H          14.8780   29.0692   14.3720 H         1 MOL     0.0342
     17 H          13.4458   32.3076   18.1135 H         1 MOL     0.0654
     18 H          13.2241   34.7559   18.3760 H         1 MOL     0.0619
     19 H          13.9519   36.2689   16.5552 H         1 MOL     0.0618
     20 H          14.8453   35.3325   14.4597 H         1 MOL     0.0625
@<TRIPOS>BOND
     1    1    2 1 
     2    1   14 1 
     3    1   15 1 
     4    1   16 1 
     5    2   10 2 
     6    2   11 1 
     7    3    4 ar
     8    3    8 ar
     9    3   11 1 
    10    4    5 ar
    11    4   17 1 
    12    5    6 ar
    13    5   18 1 
    14    6    7 ar
    15    6   19 1 
    16    7    8 ar
    17    7   20 1 
    18    8    9 1 
    19    9   12 ar
    20    9   13 ar
@<TRIPOS>SUBSTRUCTURE
1 MOL         1
@<TRIPOS>MOLECULE
query molecule
   20    20     1     0     0
SMALL
NO_CHARGE

@<TRIPOS>ATOM
      1 C          13.5157   28.2951   -3.6472 C.3       1 MOL     0.1362
      2 C          14.9651   28.7604   -3.7573 C.2       1 MOL     0.3092
      3 C          16.9496   28.1051   -2.6875 C.ar      1 MOL     0.1404
      4 C          16.9687   28.8100   -1.4672 C.ar      1 MOL     0.0468
      5 C          18.1688   29.0228   -0.7879 C.ar      1 MOL     0.0037
      6 C          19.3553   28.5421   -1.3303 C.ar      1 MOL     0.0009
      7 C          19.3427   27.8817   -2.5580 C.ar      1 MOL     0.0131
      8 C          18.1405   27.6731   -3.2683 C.ar      1 MOL     0.0397
      9 C          18.2589   26.9947   -4.6222 C.2       1 MOL     0.0752
     10 O          15.3211   29.8300   -4.2129 O.2       1 MOL    -0.2507
     11 O          15.7149   27.8354   -3.2137 O.3       1 MOL    -0.4254
     12 O          17.2411   27.0009   -5.3681 O.co2     1 MOL    -0.5445
     13 O          19.3922   26.4802   -4.9051 O.co2     1 MOL    -0.5445
     14 H          12.8320   29.0325   -4.1122 H         1 MOL     0.0342
     15 H          13.2527   28.2004   -2.5706 H         1 MOL     0.0342
     16 H          13.3834   27.3094   -4.1334 H         1 MOL     0.0342
     17 H          16.0464   29.1712   -1.0515 H         1 MOL     0.0654
     18 H          18.1611   29.5535    0.1506 H         1 MOL     0.0619
     19 H          20.2808   28.6883   -0.7971 H         1 MOL     0.0618
     20 H          20.2768   27.5264   -2.9716 H         1 MOL     0.0625
@<TRIPOS>BOND
     1    1    2 1 
     2    1   14 1 
     3    1   15 1 
     4    1   16 1 
     5    2   10 2 
     6    2   11 1 
     7    3    4 ar
     8    3    8 ar
     9    3   11 1 
    10    4    5 ar
    11    4   17 1 
    12    5    6 ar
    13    5   18 1 
    14    6    7 ar
    15    6   19 1 
    16    7    8 ar
    17    7   20 1 
    18    8    9 1 
    19    9   12 ar
    20    9   13 ar
@<TRIPOS>SUBSTRUCTURE
1 MOL         1
@<TRIPOS>MOLECULE
query molecule
   20    20     1     0     0
SMALL
NO_CHARGE

@<TRIPOS>ATOM
      1 C          -8.6874   21.8982    4.4399 C.3       1 MOL     0.1362
      2 C          -7.2296   21.7971    4.0114 C.2       1 MOL     0.3092
      3 C          -5.1781   21.5667    5.1300 C.ar      1 MOL     0.1404
      4 C          -4.7577   22.7149    5.8338 C.ar      1 MOL     0.0468
      5 C          -3.4102   23.0168    5.9806 C.ar      1 MOL     0.0037
      6 C          -2.4595   22.1781    5.4153 C.ar      1 MOL     0.0009
      7 C          -2.8675   21.0469    4.7144 C.ar      1 MOL     0.0131
      8 C          -4.2310   20.7074    4.5682 C.ar      1 MOL     0.0397
      9 C          -4.5450   19.4344    3.8112 C.2       1 MOL     0.0752
     10 O          -6.8064   22.1400    2.9223 O.2       1 MOL    -0.2507
     11 O          -6.5317   21.3544    5.0354 O.3       1 MOL    -0.4254
     12 O          -5.7435   19.0301    3.8262 O.co2     1 MOL    -0.5445
     13 O          -3.5743   18.8733    3.2160 O.co2     1 MOL    -0.5445
     14 H          -9.2992   22.3397    3.6273 H         1 MOL     0.0342
     15 H          -8.7624   22.5622    5.3299 H         1 MOL     0.0342
     16 H          -9.0859   20.9005    4.7054 H         1 MOL     0.0342
     17 H          -5.5036   23.3703    6.2652 H         1 MOL     0.0654
     18 H          -3.1058   23.8960    6.5253 H         1 MOL     0.0619
     19 H          -1.4085   22.3964    5.5210 H         1 MOL     0.0618
     20 H          -2.1139   20.4005    4.2752 H         1 MOL     0.0625
@<TRIPOS>BOND
     1    1    2 1 
     2    1   14 1 
     3    1   15 1 
     4    1   16 1 
     5    2   10 2 
     6    2   11 1 
     7    3    4 ar
     8    3    8 ar
     9    3   11 1 
    10    4    5 ar
    11    4   17 1 
    12    5    6 ar
    13    5   18 1 
    14    6    7 ar
    15    6   19 1 
    16    7    8 ar
    17    7   20 1 
    18    8    9 1 
    19    9   12 ar
    20    9   13 ar
@<TRIPOS>SUBSTRUCTURE
1 MOL         1
@<TRIPOS>MOLECULE
query molecule
   20    20     1     0     0
SMALL
NO_CHARGE

@<TRIPOS>ATOM
      1 C          -7.9156   22.7594    1.6880 C.3       1 MOL     0.1362
      2 C          -7.8508   22.8645    0.1698 C.2       1 MOL     0.3092
      3 C          -6.8796   21.6121   -1.5790 C.ar      1 MOL     0.1404
      4 C          -6.3107   22.5446   -2.4706 C.ar      1 MOL     0.0468
      5 C          -6.1341   22.2233   -3.8201 C.ar      1 MOL     0.0037
      6 C          -6.5354   20.9802   -4.2954 C.ar      1 MOL     0.0009
      7 C          -7.0929   20.0528   -3.4184 C.ar      1 MOL     0.0131
      8 C          -7.2512   20.3381   -2.0492 C.ar      1 MOL     0.0397
      9 C          -7.8002   19.2185   -1.1799 C.2       1 MOL     0.0752
     10 O          -8.4704   23.6781   -0.4953 O.2       1 MOL    -0.2507
     11 O          -7.0332   21.9523   -0.2623 O.3       1 MOL    -0.4254
     12 O          -8.0587   18.1185   -1.7568 O.co2     1 MOL    -0.5445
     13 O          -7.9532   19.4629    0.0547 O.co2     1 MOL    -0.5445
     14 H          -8.5817   23.5452    2.0974 H         1 MOL     0.0342
     15 H          -6.9006   22.8853    2.1211 H         1 MOL     0.0342
     16 H          -8.3077   21.7648    1.9792 H         1 MOL     0.0342
     17 H          -5.9941   23.5086   -2.1068 H         1 MOL     0.0654
     18 H          -5.6880   22.9421   -4.4905 H         1 MOL     0.0619
     19 H          -6.4193   20.7332   -5.3410 H         1 MOL     0.0618
     20 H          -7.4050   19.0861   -3.7933 H         1 MOL     0.0625
@<TRIPOS>BOND
     1    1    2 1 
     2    1   14 1 
     3    1   15 1 
     4    1   16 1 
     5    2   10 2 
     6    2   11 1 
     7    3    4 ar
     8    3    8 ar
     9    3   11 1 
    10    4    5 ar
    11    4   17 1 
    12    5    6 ar
    13    5   18 1 
    14    6    7 ar
    15    6   19 1 
    16    7    8 ar
    17    7   20 1 
    18    8    9 1 
    19    9   12 ar
    20    9   13 ar
@<TRIPOS>SUBSTRUCTURE
1 MOL         1
@<TRIPOS>MOLECULE
query molecule
   20    20     1     0     0
SMALL
NO_CHARGE

@<TRIPOS>ATOM
      1 C          24.1412   17.5439  -15.1243 C.3       1 MOL     0.1362
      2 C          24.5404   18.3306  -13.8818 C.2       1 MOL     0.3092
      3 C          23.7332   18.7355  -11.7128 C.ar      1 MOL     0.1404
      4 C          24.5674   18.2368  -10.6947 C.ar      1 MOL     0.0468
      5 C          24.6949   18.9204   -9.4868 C.ar      1 MOL     0.0037
      6 C          23.9931   20.1083   -9.2855 C.ar      1 MOL     0.0009
      7 C          23.1407   20.5921  -10.2805 C.ar      1 MOL     0.0131
      8 C          22.9853   19.9050  -11.5012 C.ar      1 MOL     0.0397
      9 C          22.0059   20.4520  -12.5253 C.2       1 MOL     0.0752
     10 O          25.4955   19.0819  -13.8183 O.2       1 MOL    -0.2507
     11 O          23.6678   18.0554  -12.9151 O.3       1 MOL    -0.4254
     12 O          21.3300   21.4672  -12.1623 O.co2     1 MOL    -0.5445
     13 O          21.8777   19.8564  -13.6382 O.co2     1 MOL    -0.5445
     14 H          24.8995   17.6889  -15.9205 H         1 MOL     0.0342
     15 H          23.1553   17.8835  -15.5014 H         1 MOL     0.0342
     16 H          24.0778   16.4648  -14.8754 H         1 MOL     0.0342
     17 H          25.1191   17.3202  -10.8529 H         1 MOL     0.0654
     18 H          25.3408   18.5335   -8.7122 H         1 MOL     0.0619
     19 H          24.1093   20.6495   -8.3581 H         1 MOL     0.0618
     20 H          22.5920   21.5077  -10.1051 H         1 MOL     0.0625
@<TRIPOS>BOND
     1    1    2 1 
     2    1   14 1 
     3    1   15 1 
     4    1   16 1 
     5    2   10 2 
     6    2   11 1 
     7    3    4 ar
     8    3    8 ar
     9    3   11 1 
    10    4    5 ar
    11    4   17 1 
    12    5    6 ar
    13    5   18 1 
    14    6    7 ar
    15    6   19 1 
    16    7    8 ar
    17    7   20 1 
    18    8    9 1 
    19    9   12 ar
    20    9   13 ar
@<TRIPOS>SUBSTRUCTURE
1 MOL         1
@<TRIPOS>MOLECULE
query molecule
   20    20     1     0     0
SMALL
NO_CHARGE

@<TRIPOS>ATOM
      1 C          -4.5177   11.3488    5.5571 C.3       1 MOL     0.1362
      2 C          -4.8469   12.6265    6.3188 C.2       1 MOL     0.3092
      3 C          -4.5318   13.4052    8.5224 C.ar      1 MOL     0.1404
      4 C          -5.7704   13.6266    9.1555 C.ar      1 MOL     0.0468
      5 C          -5.8797   14.5383   10.2060 C.ar      1 MOL     0.0037
      6 C          -4.7530   15.2371   10.6368 C.ar      1 MOL     0.0009
      7 C          -3.5288   15.0276   10.0063 C.ar      1 MOL     0.0131
      8 C          -3.3989   14.1253    8.9358 C.ar      1 MOL     0.0397
      9 C          -2.0282   13.9825    8.3100 C.2       1 MOL     0.0752
     10 O          -5.3740   13.6130    5.8401 O.2       1 MOL    -0.2507
     11 O          -4.4508   12.4534    7.5418 O.3       1 MOL    -0.4254
     12 O          -1.9107   13.1672    7.3512 O.co2     1 MOL    -0.5445
     13 O          -1.0894   14.6747    8.8119 O.co2     1 MOL    -0.5445
     14 H          -4.8435   11.4226    4.5010 H         1 MOL     0.0342
     15 H          -5.0307   10.4873    6.0335 H         1 MOL     0.0342
     16 H          -3.4226   11.1647    5.5834 H         1 MOL     0.0342
     17 H          -6.6475   13.0826    8.8337 H         1 MOL     0.0654
     18 H          -6.8315   14.7001   10.6904 H         1 MOL     0.0619
     19 H          -4.8292   15.9359   11.4564 H         1 MOL     0.0618
     20 H          -2.6584   15.5683   10.3531 H         1 MOL     0.0625
@<TRIPOS>BOND
     1    1    2 1 
     2    1   14 1 
     3    1   15 1 
     4    1   16 1 
     5    2   10 2 
     6    2   11 1 
     7    3    4 ar
     8    3    8 ar
     9    3   11 1 
    10    4    5 ar
    11    4   17 1 
    12    5    6 ar
    13    5   18 1 
    14    6    7 ar
    15    6   19 1 
    16    7    8 ar
    17    7   20 1 
    18    8    9 1 
    19    9   12 ar
    20    9   13 ar
@<TRIPOS>SUBSTRUCTURE
1 MOL         1
@<TRIPOS>MOLECULE
query molecule
   20    20     1     0     0
SMALL
NO_CHARGE

@<TRIPOS>ATOM
      1 C           6.8709   26.1575  -11.8161 C.3       1 MOL     0.1362
      2 C           7.5710   25.5314  -10.6181 C.2       1 MOL     0.3092
      3 C           9.0030   26.3005   -8.9070 C.ar      1 MOL     0.1404
      4 C          10.3176   25.7958   -9.0074 C.ar      1 MOL     0.0468
      5 C          11.1223   25.6724   -7.8722 C.ar      1 MOL     0.0037
      6 C          10.6252   26.0556   -6.6288 C.ar      1 MOL     0.0009
      7 C           9.3270   26.5501   -6.5260 C.ar      1 MOL     0.0131
      8 C           8.4897   26.6677   -7.6528 C.ar      1 MOL     0.0397
      9 C           7.0843   27.1903   -7.4314 C.2       1 MOL     0.0752
     10 O           7.4574   24.3682  -10.2787 O.2       1 MOL    -0.2507
     11 O           8.2695   26.4598  -10.0517 O.3       1 MOL    -0.4254
     12 O           6.3467   27.3701   -8.4441 O.co2     1 MOL    -0.5445
     13 O           6.7501   27.4163   -6.2274 O.co2     1 MOL    -0.5445
     14 H           6.2614   25.4081  -12.3586 H         1 MOL     0.0342
     15 H           7.6288   26.5757  -12.5118 H         1 MOL     0.0342
     16 H           6.2099   26.9844  -11.4808 H         1 MOL     0.0342
     17 H          10.7153   25.5041   -9.9715 H         1 MOL     0.0654
     18 H          12.1288   25.2899   -7.9570 H         1 MOL     0.0619
     19 H          11.2440   25.9740   -5.7488 H         1 MOL     0.0618
     20 H           8.9516   26.8517   -5.5592 H         1 MOL     0.0625
@<TRIPOS>BOND
     1    1    2 1 
     2    1   14 1 
     3    1   15 1 
     4    1   16 1 
     5    2   10 2 
     6    2   11 1 
     7    3    4 ar
     8    3    8 ar
     9    3   11 1 
    10    4    5 ar
    11    4   17 1 
    12    5    6 ar
    13    5   18 1 
    14    6    7 ar
    15    6   19 1 
    16    7    8 ar
    17    7   20 1 
    18    8    9 1 
    19    9   12 ar
    20    9   13 ar
@<TRIPOS>SUBSTRUCTURE
1 MOL         1
@<TRIPOS>MOLECULE
query molecule
   20    20     1     0     0
SMALL
NO_CHARGE

@<TRIPOS>ATOM
      1 C          18.2227   14.0242   10.6998 C.3       1 MOL     0.1362
      2 C          16.7773   14.4758   10.8606 C.2       1 MOL     0.3092
      3 C          14.6685   13.4277   10.6722 C.ar      1 MOL     0.1404
      4 C          13.8582   14.0324   11.6495 C.ar      1 MOL     0.0468
      5 C          12.4715   14.0623   11.5120 C.ar      1 MOL     0.0037
      6 C          11.8754   13.4645   10.4036 C.ar      1 MOL     0.0009
      7 C          12.6677   12.8413    9.4391 C.ar      1 MOL     0.0131
      8 C          14.0723   12.8167    9.5487 C.ar      1 MOL     0.0397
      9 C          14.8550   12.1257    8.4389 C.2       1 MOL     0.0752
     10 O          16.4273   15.6351   10.9878 O.2       1 MOL    -0.2507
     11 O          16.0293   13.4191   10.8261 O.3       1 MOL    -0.4254
     12 O          14.1713   11.6039    7.4968 O.co2     1 MOL    -0.5445
     13 O          16.1244   12.1144    8.5088 O.co2     1 MOL    -0.5445
     14 H          18.9060   14.8965   10.7281 H         1 MOL     0.0342
     15 H          18.3401   13.5103    9.7223 H         1 MOL     0.0342
     16 H          18.5001   13.3192   11.5088 H         1 MOL     0.0342
     17 H          14.3125   14.4888   12.5186 H         1 MOL     0.0654
     18 H          11.8595   14.5434   12.2600 H         1 MOL     0.0619
     19 H          10.8017   13.4837   10.2912 H         1 MOL     0.0618
     20 H          12.1919   12.3707    8.5892 H         1 MOL     0.0625
@<TRIPOS>BOND
     1    1    2 1 
     2    1   14 1 
     3    1   15 1 
     4    1   16 1 
     5    2   10 2 
     6    2   11 1 
     7    3    4 ar
     8    3    8 ar
     9    3   11 1 
    10    4    5 ar
    11    4   17 1 
    12    5    6 ar
    13    5   18 1 
    14    6    7 ar
    15    6   19 1 
    16    7    8 ar
    17    7   20 1 
    18    8    9 1 
    19    9   12 ar
    20    9   13 ar
@<TRIPOS>SUBSTRUCTURE
1 MOL         1
@<TRIPOS>MOLECULE
query molecule
   20    20     1     0     0
SMALL
NO_CHARGE

@<TRIPOS>ATOM
      1 C          11.2067   24.6691   -2.9145 C.3       1 MOL     0.1362
      2 C          12.3181   25.7029   -2.7738 C.2       1 MOL     0.3092
      3 C          12.6031   27.9719   -3.3531 C.ar      1 MOL     0.1404
      4 C          13.0844   28.6459   -2.2124 C.ar      1 MOL     0.0468
      5 C          13.7582   29.8630   -2.3344 C.ar      1 MOL     0.0037
      6 C          13.9391   30.4279   -3.5945 C.ar      1 MOL     0.0009
      7 C          13.4794   29.7611   -4.7262 C.ar      1 MOL     0.0131
      8 C          12.8298   28.5148   -4.6317 C.ar      1 MOL     0.0397
      9 C          12.4105   27.8504   -5.9346 C.2       1 MOL     0.0752
     10 O          13.4355   25.4581   -2.3580 O.2       1 MOL    -0.2507
     11 O          11.8632   26.8315   -3.1947 O.3       1 MOL    -0.4254
     12 O          12.7201   28.4703   -7.0009 O.co2     1 MOL    -0.5445
     13 O          11.7989   26.7425   -5.8748 O.co2     1 MOL    -0.5445
     14 H          11.5583   23.6765   -2.5660 H         1 MOL     0.0342
     15 H          10.9094   24.5882   -3.9809 H         1 MOL     0.0342
     16 H          10.3225   24.9693   -2.3176 H         1 MOL     0.0342
     17 H          12.9303   28.2247   -1.2276 H         1 MOL     0.0654
     18 H          14.1341   30.3689   -1.4567 H         1 MOL     0.0619
     19 H          14.4374   31.3804   -3.6946 H         1 MOL     0.0618
     20 H          13.6236   30.2042   -5.7021 H         1 MOL     0.0625
@<TRIPOS>BOND
     1    1    2 1 
     2    1   14 1 
     3    1   15 1 
     4    1   16 1 
     5    2   10 2 
     6    2   11 1 
     7    3    4 ar
     8    3    8 ar
     9    3   11 1 
    10    4    5 ar
    11    4   17 1 
    12    5    6 ar
    13    5   18 1 
    14    6    7 ar
    15    6   19 1 
    16    7    8 ar
    17    7   20 1 
    18    8    9 1 
    19    9   12 ar
    20    9   13 ar
@<TRIPOS>SUBSTRUCTURE
1 MOL         1
@<TRIPOS>MOLECULE
query molecule
   20    20     1     0     0
SMALL
NO_CHARGE

@<TRIPOS>ATOM
      1 C           1.0256   32.6348   -1.7380 C.3       1 MOL     0.1362
      2 C           0.6362   32.2310   -3.1581 C.2       1 MOL     0.3092
      3 C           0.9227   30.4049   -4.6318 C.ar      1 MOL     0.1404
      4 C           1.7380   30.8100   -5.7077 C.ar      1 MOL     0.0468
      5 C           1.6348   30.1911   -6.9522 C.ar      1 MOL     0.0037
      6 C           0.7301   29.1448   -7.1335 C.ar      1 MOL     0.0009
      7 C          -0.0739   28.7275   -6.0714 C.ar      1 MOL     0.0131
      8 C          -0.0093   29.3691   -4.8196 C.ar      1 MOL     0.0397
      9 C          -0.9631   28.8997   -3.7576 C.2       1 MOL     0.0752
     10 O           0.0120   32.9449   -3.9279 O.2       1 MOL    -0.2507
     11 O           1.1026   31.0111   -3.4012 O.3       1 MOL    -0.4254
     12 O          -1.1260   29.6779   -2.7759 O.co2     1 MOL    -0.5445
     13 O          -1.5533   27.7891   -3.9043 O.co2     1 MOL    -0.5445
     14 H           0.6693   33.6632   -1.5226 H         1 MOL     0.0342
     15 H           2.1291   32.6095   -1.6185 H         1 MOL     0.0342
     16 H           0.5692   31.9354   -1.0090 H         1 MOL     0.0342
     17 H           2.4529   31.6089   -5.5614 H         1 MOL     0.0654
     18 H           2.2561   30.5206   -7.7713 H         1 MOL     0.0619
     19 H           0.6486   28.6618   -8.0961 H         1 MOL     0.0618
     20 H          -0.7687   27.9111   -6.2165 H         1 MOL     0.0625
@<TRIPOS>BOND
     1    1    2 1 
     2    1   14 1 
     3    1   15 1 
     4    1   16 1 
     5    2   10 2 
     6    2   11 1 
     7    3    4 ar
     8    3    8 ar
     9    3   11 1 
    10    4    5 ar
    11    4   17 1 
    12    5    6 ar
    13    5   18 1 
    14    6    7 ar
    15    6   19 1 
    16    7    8 ar
    17    7   20 1 
    18    8    9 1 
    19    9   12 ar
    20    9   13 ar
@<TRIPOS>SUBSTRUCTURE
1 MOL         1
@<TRIPOS>MOLECULE
query molecule
   20    20     1     0     0
SMALL
NO_CHARGE

@<TRIPOS>ATOM
      1 C          14.6119   28.1716   -2.9798 C.3       1 MOL     0.1362
      2 C          16.0488   28.6841   -2.9883 C.2       1 MOL     0.3092
      3 C          18.1839   27.8806   -2.4109 C.ar      1 MOL     0.1404
      4 C          18.6579   28.4978   -1.2361 C.ar      1 MOL     0.0468
      5 C          20.0214   28.6553   -1.0143 C.ar      1 MOL     0.0037
      6 C          20.9345   28.2041   -1.9635 C.ar      1 MOL     0.0009
      7 C          20.4735   27.5974   -3.1308 C.ar      1 MOL     0.0131
      8 C          19.0941   27.4233   -3.3789 C.ar      1 MOL     0.0397
      9 C          18.7075   26.7256   -4.6731 C.2       1 MOL     0.0752
     10 O          16.3811   29.8020   -3.3288 O.2       1 MOL    -0.2507
     11 O          16.8270   27.7145   -2.5684 O.3       1 MOL    -0.4254
     12 O          17.4803   26.5872   -4.9234 O.co2     1 MOL    -0.5445
     13 O          19.6623   26.3041   -5.3969 O.co2     1 MOL    -0.5445
     14 H          13.9163   28.9760   -3.2942 H         1 MOL     0.0342
     15 H          14.3449   27.8423   -1.9567 H         1 MOL     0.0342
     16 H          14.5029   27.3124   -3.6740 H         1 MOL     0.0342
     17 H          17.9557   28.8514   -0.4965 H         1 MOL     0.0654
     18 H          20.3739   29.1201   -0.1036 H         1 MOL     0.0619
     19 H          21.9947   28.3258   -1.7944 H         1 MOL     0.0618
     20 H          21.1888   27.2517   -3.8602 H         1 MOL     0.0625
@<TRIPOS>BOND
     1    1    2 1 
     2    1   14 1 
     3    1   15 1 
     4    1   16 1 
     5    2   10 2 
     6    2   11 1 
     7    3    4 ar
     8    3    8 ar
     9    3   11 1 
    10    4    5 ar
    11    4   17 1 
    12    5    6 ar
    13    5   18 1 
    14    6    7 ar
    15    6   19 1 
    16    7    8 ar
    17    7   20 1 
    18    8    9 1 
    19    9   12 ar
    20    9   13 ar
@<TRIPOS>SUBSTRUCTURE
1 MOL         1
@<TRIPOS>MOLECULE
query molecule
   20    20     1     0     0
SMALL
NO_CHARGE

@<TRIPOS>ATOM
      1 C          18.7497   13.2077    6.3199 C.3       1 MOL     0.1362
      2 C          17.8871   13.6565    7.4898 C.2       1 MOL     0.3092
      3 C          16.1740   12.7742    8.8586 C.ar      1 MOL     0.1404
      4 C          16.6358   12.8545   10.1882 C.ar      1 MOL     0.0468
      5 C          15.7428   12.9621   11.2521 C.ar      1 MOL     0.0037
      6 C          14.3719   12.9721   11.0065 C.ar      1 MOL     0.0009
      7 C          13.9046   12.8817    9.6973 C.ar      1 MOL     0.0131
      8 C          14.7935   12.7950    8.6047 C.ar      1 MOL     0.0397
      9 C          14.1699   12.7658    7.2203 C.2       1 MOL     0.0752
     10 O          17.9587   14.7600    8.0039 O.2       1 MOL    -0.2507
     11 O          17.0972   12.6609    7.8391 O.3       1 MOL    -0.4254
     12 O          14.9421   12.7892    6.2179 O.co2     1 MOL    -0.5445
     13 O          12.9006   12.7486    7.1857 O.co2     1 MOL    -0.5445
     14 H          19.5989   13.9094    6.1847 H         1 MOL     0.0342
     15 H          18.1494   13.1917    5.3869 H         1 MOL     0.0342
     16 H          19.1493   12.1910    6.5082 H         1 MOL     0.0342
     17 H          17.6986   12.8375   10.3867 H         1 MOL     0.0654
     18 H          16.1113   13.0342   12.2643 H         1 MOL     0.0619
     19 H          13.6751   13.0489   11.8271 H         1 MOL     0.0618
     20 H          12.8381   12.8906    9.5153 H         1 MOL     0.0625
@<TRIPOS>BOND
     1    1    2 1 
     2    1   14 1 
     3    1   15 1 
     4    1   16 1 
     5    2   10 2 
     6    2   11 1 
     7    3    4 ar
     8    3    8 ar
     9    3   11 1 
    10    4    5 ar
    11    4   17 1 
    12    5    6 ar
    13    5   18 1 
    14    6    7 ar
    15    6   19 1 
    16    7    8 ar
    17    7   20 1 
    18    8    9 1 
    19    9   12 ar
    20    9   13 ar
@<TRIPOS>SUBSTRUCTURE
1 MOL         1
@<TRIPOS>MOLECULE
query molecule
   20    20     1     0     0
SMALL
NO_CHARGE

@<TRIPOS>ATOM
      1 C          21.0447   23.5431   17.4739 C.3       1 MOL     0.1362
      2 C          20.8982   24.2010   16.1075 C.2       1 MOL     0.3092
      3 C          22.4043   24.8111   14.3981 C.ar      1 MOL     0.1404
      4 C          22.6057   23.8422   13.3932 C.ar      1 MOL     0.0468
      5 C          23.1015   24.2062   12.1426 C.ar      1 MOL     0.0037
      6 C          23.3919   25.5426   11.8763 C.ar      1 MOL     0.0009
      7 C          23.1536   26.5113   12.8491 C.ar      1 MOL     0.0131
      8 C          22.6483   26.1593   14.1162 C.ar      1 MOL     0.0397
      9 C          22.4187   27.2737   15.0956 C.2       1 MOL     0.0752
     10 O          19.8246   24.4979   15.6119 O.2       1 MOL    -0.2507
     11 O          22.0739   24.3824   15.6483 O.3       1 MOL    -0.4254
     12 O          21.7069   27.0495   16.1223 O.co2     1 MOL    -0.5445
     13 O          22.8215   28.4369   14.7861 O.co2     1 MOL    -0.5445
     14 H          20.0456   23.3580   17.9173 H         1 MOL     0.0342
     15 H          21.6356   24.1800   18.1627 H         1 MOL     0.0342
     16 H          21.5677   22.5730   17.3517 H         1 MOL     0.0342
     17 H          22.3984   22.8014   13.6009 H         1 MOL     0.0654
     18 H          23.2631   23.4552   11.3840 H         1 MOL     0.0619
     19 H          23.7885   25.8248   10.9132 H         1 MOL     0.0618
     20 H          23.3677   27.5469   12.6267 H         1 MOL     0.0625
@<TRIPOS>BOND
     1    1    2 1 
     2    1   14 1 
     3    1   15 1 
     4    1   16 1 
     5    2   10 2 
     6    2   11 1 
     7    3    4 ar
     8    3    8 ar
     9    3   11 1 
    10    4    5 ar
    11    4   17 1 
    12    5    6 ar
    13    5   18 1 
    14    6    7 ar
    15    6   19 1 
    16    7    8 ar
    17    7   20 1 
    18    8    9 1 
    19    9   12 ar
    20    9   13 ar
@<TRIPOS>SUBSTRUCTURE
1 MOL         1
@<TRIPOS>MOLECULE
query molecule
   20    20     1     0     0
SMALL
NO_CHARGE

@<TRIPOS>ATOM
      1 C           0.6424   32.4914   -4.7347 C.3       1 MOL     0.1362
      2 C           1.7111   31.4420   -4.9984 C.2       1 MOL     0.3092
      3 C           3.5396   31.1890   -6.4670 C.ar      1 MOL     0.1404
      4 C           3.3602   30.1729   -7.4279 C.ar      1 MOL     0.0468
      5 C           4.4524   29.4625   -7.9230 C.ar      1 MOL     0.0037
      6 C           5.7332   29.7494   -7.4564 C.ar      1 MOL     0.0009
      7 C           5.9141   30.7646   -6.5198 C.ar      1 MOL     0.0131
      8 C           4.8320   31.5142   -6.0216 C.ar      1 MOL     0.0397
      9 C           5.1408   32.6202   -5.0248 C.2       1 MOL     0.0752
     10 O           1.8318   30.4142   -4.3593 O.2       1 MOL    -0.2507
     11 O           2.4328   31.8498   -6.0003 O.3       1 MOL    -0.4254
     12 O           4.1528   33.2638   -4.5600 O.co2     1 MOL    -0.5445
     13 O           6.3510   32.7771   -4.6714 O.co2     1 MOL    -0.5445
     14 H          -0.0472   32.1523   -3.9365 H         1 MOL     0.0342
     15 H           0.0647   32.6638   -5.6666 H         1 MOL     0.0342
     16 H           1.1217   33.4420   -4.4259 H         1 MOL     0.0342
     17 H           2.3654   29.9434   -7.7859 H         1 MOL     0.0654
     18 H           4.3056   28.6933   -8.6661 H         1 MOL     0.0619
     19 H           6.5826   29.1932   -7.8226 H         1 MOL     0.0618
     20 H           6.9097   30.9817   -6.1584 H         1 MOL     0.0625
@<TRIPOS>BOND
     1    1    2 1 
     2    1   14 1 
     3    1   15 1 
     4    1   16 1 
     5    2   10 2 
     6    2   11 1 
     7    3    4 ar
     8    3    8 ar
     9    3   11 1 
    10    4    5 ar
    11    4   17 1 
    12    5    6 ar
    13    5   18 1 
    14    6    7 ar
    15    6   19 1 
    16    7    8 ar
    17    7   20 1 
    18    8    9 1 
    19    9   12 ar
    20    9   13 ar
@<TRIPOS>SUBSTRUCTURE
1 MOL         1
@<TRIPOS>MOLECULE
query molecule
   20    20     1     0     0
SMALL
NO_CHARGE

@<TRIPOS>ATOM
      1 C           5.5101    6.8547    4.5188 C.3       1 MOL     0.1362
      2 C           6.6983    7.5315    3.8550 C.2       1 MOL     0.3092
      3 C           8.9619    7.0207    3.4898 C.ar      1 MOL     0.1404
      4 C           9.8076    7.5382    4.4904 C.ar      1 MOL     0.0468
      5 C          11.1338    7.8506    4.2115 C.ar      1 MOL     0.0037
      6 C          11.6375    7.6347    2.9310 C.ar      1 MOL     0.0009
      7 C          10.7988    7.1394    1.9318 C.ar      1 MOL     0.0131
      8 C           9.4404    6.8445    2.1860 C.ar      1 MOL     0.0397
      9 C           8.5666    6.3835    1.0244 C.2       1 MOL     0.0752
     10 O           6.7051    8.6719    3.4298 O.2       1 MOL    -0.2507
     11 O           7.6834    6.6765    3.8478 O.3       1 MOL    -0.4254
     12 O           9.0963    6.4228   -0.1315 O.co2     1 MOL    -0.5445
     13 O           7.3737    6.0303    1.2740 O.co2     1 MOL    -0.5445
     14 H           4.6739    7.5758    4.6225 H         1 MOL     0.0342
     15 H           5.8058    6.5059    5.5311 H         1 MOL     0.0342
     16 H           5.1711    5.9848    3.9235 H         1 MOL     0.0342
     17 H           9.4147    7.6878    5.4865 H         1 MOL     0.0654
     18 H          11.7644    8.2544    4.9886 H         1 MOL     0.0619
     19 H          12.6728    7.8523    2.7190 H         1 MOL     0.0618
     20 H          11.2050    6.9790    0.9403 H         1 MOL     0.0625
@<TRIPOS>BOND
     1    1    2 1 
     2    1   14 1 
     3    1   15 1 
     4    1   16 1 
     5    2   10 2 
     6    2   11 1 
     7    3    4 ar
     8    3    8 ar
     9    3   11 1 
    10    4    5 ar
    11    4   17 1 
    12    5    6 ar
    13    5   18 1 
    14    6    7 ar
    15    6   19 1 
    16    7    8 ar
    17    7   20 1 
    18    8    9 1 
    19    9   12 ar
    20    9   13 ar
@<TRIPOS>SUBSTRUCTURE
1 MOL         1
@<TRIPOS>MOLECULE
query molecule
   20    20     1     0     0
SMALL
NO_CHARGE

@<TRIPOS>ATOM
      1 C          26.4450   17.9818   -6.5195 C.3       1 MOL     0.1362
      2 C          25.9100   17.6853   -5.1266 C.2       1 MOL     0.3092
      3 C          24.7396   18.9406   -3.5112 C.ar      1 MOL     0.1404
      4 C          25.1857   18.6001   -2.2221 C.ar      1 MOL     0.0468
      5 C          24.3489   18.7653   -1.1147 C.ar      1 MOL     0.0037
      6 C          23.0562   19.2645   -1.2827 C.ar      1 MOL     0.0009
      7 C          22.6074   19.5949   -2.5587 C.ar      1 MOL     0.0131
      8 C          23.4370   19.4434   -3.6871 C.ar      1 MOL     0.0397
      9 C          22.8585   19.8524   -5.0278 C.2       1 MOL     0.0752
     10 O          25.8264   16.5680   -4.6537 O.2       1 MOL    -0.2507
     11 O          25.5796   18.8107   -4.5851 O.3       1 MOL    -0.4254
     12 O          23.5020   19.5933   -6.0860 O.co2     1 MOL    -0.5445
     13 O          21.7244   20.4178   -4.9782 O.co2     1 MOL    -0.5445
     14 H          27.3348   17.3591   -6.7367 H         1 MOL     0.0342
     15 H          26.7171   19.0535   -6.5959 H         1 MOL     0.0342
     16 H          25.6557   17.7591   -7.2659 H         1 MOL     0.0342
     17 H          26.1811   18.2037   -2.0802 H         1 MOL     0.0654
     18 H          24.6948   18.4953   -0.1276 H         1 MOL     0.0619
     19 H          22.4046   19.3925   -0.4315 H         1 MOL     0.0618
     20 H          21.6070   19.9848   -2.6896 H         1 MOL     0.0625
@<TRIPOS>BOND
     1    1    2 1 
     2    1   14 1 
     3    1   15 1 
     4    1   16 1 
     5    2   10 2 
     6    2   11 1 
     7    3    4 ar
     8    3    8 ar
     9    3   11 1 
    10    4    5 ar
    11    4   17 1 
    12    5    6 ar
    13    5   18 1 
    14    6    7 ar
    15    6   19 1 
    16    7    8 ar
    17    7   20 1 
    18    8    9 1 
    19    9   12 ar
    20    9   13 ar
@<TRIPOS>SUBSTRUCTURE
1 MOL         1
@<TRIPOS>MOLECULE
query molecule
   20    20     1     0     0
SMALL
NO_CHARGE

@<TRIPOS>ATOM
      1 C          20.1347    5.8183  -15.5896 C.3       1 MOL     0.1362
      2 C          20.6046    6.5884  -14.3598 C.2       1 MOL     0.3092
      3 C          20.1809    8.7108  -13.3979 C.ar      1 MOL     0.1404
      4 C          20.1392    8.6609  -11.9987 C.ar      1 MOL     0.0468
      5 C          20.5787    9.7526  -11.2458 C.ar      1 MOL     0.0037
      6 C          21.0622   10.9033  -11.8733 C.ar      1 MOL     0.0009
      7 C          21.0856   10.9601  -13.2635 C.ar      1 MOL     0.0131
      8 C          20.6405    9.8773  -14.0399 C.ar      1 MOL     0.0397
      9 C          20.6910   10.0168  -15.5514 C.2       1 MOL     0.0752
     10 O          21.5639    6.2945  -13.6649 O.2       1 MOL    -0.2507
     11 O          19.7642    7.6094  -14.1468 O.3       1 MOL    -0.4254
     12 O          20.0787    9.1619  -16.2530 O.co2     1 MOL    -0.5445
     13 O          21.3688   10.9970  -15.9927 O.co2     1 MOL    -0.5445
     14 H          20.7888    4.9359  -15.7432 H         1 MOL     0.0342
     15 H          20.2086    6.4670  -16.4883 H         1 MOL     0.0342
     16 H          19.0871    5.4728  -15.4844 H         1 MOL     0.0342
     17 H          19.7644    7.7825  -11.4948 H         1 MOL     0.0654
     18 H          20.5586    9.7047  -10.1637 H         1 MOL     0.0619
     19 H          21.3945   11.7417  -11.2818 H         1 MOL     0.0618
     20 H          21.4472   11.8588  -13.7453 H         1 MOL     0.0625
@<TRIPOS>BOND
     1    1    2 1 
     2    1   14 1 
     3    1   15 1 
     4    1   16 1 
     5    2   10 2 
     6    2   11 1 
     7    3    4 ar
     8    3    8 ar
     9    3   11 1 
    10    4    5 ar
    11    4   17 1 
    12    5    6 ar
    13    5   18 1 
    14    6    7 ar
    15    6   19 1 
    16    7    8 ar
    17    7   20 1 
    18    8    9 1 
    19    9   12 ar
    20    9   13 ar
@<TRIPOS>SUBSTRUCTURE
1 MOL         1
@<TRIPOS>MOLECULE
query molecule
   20    20     1     0     0
SMALL
NO_CHARGE

@<TRIPOS>ATOM
      1 C          25.0483   30.4733   13.4162 C.3       1 MOL     0.1362
      2 C          24.0847   29.4204   12.8970 C.2       1 MOL     0.3092
      3 C          23.9787   27.0773   12.7255 C.ar      1 MOL     0.1404
      4 C          24.6361   26.4502   11.6454 C.ar      1 MOL     0.0468
      5 C          24.1230   25.2865   11.0782 C.ar      1 MOL     0.0037
      6 C          22.9314   24.7556   11.5646 C.ar      1 MOL     0.0009
      7 C          22.2751   25.3664   12.6324 C.ar      1 MOL     0.0131
      8 C          22.8097   26.5166   13.2536 C.ar      1 MOL     0.0397
      9 C          22.0793   27.0450   14.4699 C.2       1 MOL     0.0752
     10 O          23.0625   29.6623   12.2769 O.2       1 MOL    -0.2507
     11 O          24.5390   28.2289   13.2374 O.3       1 MOL    -0.4254
     12 O          21.0874   26.3501   14.8624 O.co2     1 MOL    -0.5445
     13 O          22.4685   28.1209   15.0151 O.co2     1 MOL    -0.5445
     14 H          25.2506   31.2251   12.6259 H         1 MOL     0.0342
     15 H          26.0055   29.9894   13.7011 H         1 MOL     0.0342
     16 H          24.6262   30.9865   14.3031 H         1 MOL     0.0342
     17 H          25.5527   26.8759   11.2588 H         1 MOL     0.0654
     18 H          24.6447   24.8016   10.2667 H         1 MOL     0.0619
     19 H          22.5162   23.8659   11.1128 H         1 MOL     0.0618
     20 H          21.3442   24.9470   12.9917 H         1 MOL     0.0625
@<TRIPOS>BOND
     1    1    2 1 
     2    1   14 1 
     3    1   15 1 
     4    1   16 1 
     5    2   10 2 
     6    2   11 1 
     7    3    4 ar
     8    3    8 ar
     9    3   11 1 
    10    4    5 ar
    11    4   17 1 
    12    5    6 ar
    13    5   18 1 
    14    6    7 ar
    15    6   19 1 
    16    7    8 ar
    17    7   20 1 
    18    8    9 1 
    19    9   12 ar
    20    9   13 ar
@<TRIPOS>SUBSTRUCTURE
1 MOL         1
@<TRIPOS>MOLECULE
query molecule
   20    20     1     0     0
SMALL
NO_CHARGE

@<TRIPOS>ATOM
      1 C          -7.6147   16.1658   -7.2643 C.3       1 MOL     0.1362
      2 C          -6.6801   17.0267   -8.1005 C.2       1 MOL     0.3092
      3 C          -5.0631   18.7047   -7.7995 C.ar      1 MOL     0.1404
      4 C          -5.5190   20.0052   -8.1006 C.ar      1 MOL     0.0468
      5 C          -4.6499   20.9472   -8.6547 C.ar      1 MOL     0.0037
      6 C          -3.3294   20.5907   -8.9364 C.ar      1 MOL     0.0009
      7 C          -2.8723   19.3037   -8.6337 C.ar      1 MOL     0.0131
      8 C          -3.7215   18.3534   -8.0251 C.ar      1 MOL     0.0397
      9 C          -3.1144   17.0140   -7.6311 C.2       1 MOL     0.0752
     10 O          -6.6190   16.9907   -9.3194 O.2       1 MOL    -0.2507
     11 O          -5.9672   17.7914   -7.2843 O.3       1 MOL    -0.4254
     12 O          -3.7741   16.1939   -6.9129 O.co2     1 MOL    -0.5445
     13 O          -1.9179   16.8410   -8.0224 O.co2     1 MOL    -0.5445
     14 H          -8.2445   15.5333   -7.9222 H         1 MOL     0.0342
     15 H          -8.2711   16.8169   -6.6508 H         1 MOL     0.0342
     16 H          -7.0252   15.5127   -6.5890 H         1 MOL     0.0342
     17 H          -6.5477   20.2759   -7.9034 H         1 MOL     0.0654
     18 H          -5.0013   21.9456   -8.8738 H         1 MOL     0.0619
     19 H          -2.6630   21.3175   -9.3822 H         1 MOL     0.0618
     20 H          -1.8429   19.0522   -8.8533 H         1 MOL     0.0625
@<TRIPOS>BOND
     1    1    2 1 
     2    1   14 1 
     3    1   15 1 
     4    1   16 1 
     5    2   10 2 
     6    2   11 1 
     7    3    4 ar
     8    3    8 ar
     9    3   11 1 
    10    4    5 ar
    11    4   17 1 
    12    5    6 ar
    13    5   18 1 
    14    6    7 ar
    15    6   19 1 
    16    7    8 ar
    17    7   20 1 
    18    8    9 1 
    19    9   12 ar
    20    9   13 ar
@<TRIPOS>SUBSTRUCTURE
1 MOL         1
@<TRIPOS>MOLECULE
query molecule
   20    20     1     0     0
SMALL
NO_CHARGE

@<TRIPOS>ATOM
      1 C          16.7106   30.9692    3.7353 C.3       1 MOL     0.1362
      2 C          15.4396   30.6358    2.9728 C.2       1 MOL     0.3092
      3 C          14.2469   31.3967    1.0956 C.ar      1 MOL     0.1404
      4 C          14.5650   30.7065   -0.0905 C.ar      1 MOL     0.0468
      5 C          13.5795   30.4210   -1.0353 C.ar      1 MOL     0.0037
      6 C          12.2658   30.8245   -0.8060 C.ar      1 MOL     0.0009
      7 C          11.9571   31.5441    0.3470 C.ar      1 MOL     0.0131
      8 C          12.9463   31.8727    1.2960 C.ar      1 MOL     0.0397
      9 C          12.5404   32.7506    2.4649 C.2       1 MOL     0.0752
     10 O          14.7399   29.6663    3.2057 O.2       1 MOL    -0.2507
     11 O          15.2409   31.5648    2.0423 O.3       1 MOL    -0.4254
     12 O          11.2988   32.9890    2.5780 O.co2     1 MOL    -0.5445
     13 O          13.4540   33.1927    3.2228 O.co2     1 MOL    -0.5445
     14 H          16.9190   30.1766    4.4835 H         1 MOL     0.0342
     15 H          16.6000   31.9396    4.2573 H         1 MOL     0.0342
     16 H          17.5656   31.0303    3.0315 H         1 MOL     0.0342
     17 H          15.5815   30.3787   -0.2630 H         1 MOL     0.0654
     18 H          13.8312   29.8843   -1.9367 H         1 MOL     0.0619
     19 H          11.4924   30.5861   -1.5210 H         1 MOL     0.0618
     20 H          10.9376   31.8658    0.5123 H         1 MOL     0.0625
@<TRIPOS>BOND
     1    1    2 1 
     2    1   14 1 
     3    1   15 1 
     4    1   16 1 
     5    2   10 2 
     6    2   11 1 
     7    3    4 ar
     8    3    8 ar
     9    3   11 1 
    10    4    5 ar
    11    4   17 1 
    12    5    6 ar
    13    5   18 1 
    14    6    7 ar
    15    6   19 1 
    16    7    8 ar
    17    7   20 1 
    18    8    9 1 
    19    9   12 ar
    20    9   13 ar
@<TRIPOS>SUBSTRUCTURE
1 MOL         1
@<TRIPOS>MOLECULE
query molecule
   20    20     1     0     0
SMALL
NO_CHARGE

@<TRIPOS>ATOM
      1 C           1.7466   14.7588  -12.9239 C.3       1 MOL     0.1362
      2 C           1.7015   13.7014  -14.0217 C.2       1 MOL     0.3092
      3 C           2.7179   11.6116  -14.4261 C.ar      1 MOL     0.1404
      4 C           3.4409   11.6191  -15.6370 C.ar      1 MOL     0.0468
      5 C           3.6220   10.4430  -16.3660 C.ar      1 MOL     0.0037
      6 C           3.0799    9.2464  -15.8984 C.ar      1 MOL     0.0009
      7 C           2.3822    9.2294  -14.6922 C.ar      1 MOL     0.0131
      8 C           2.2028   10.4004  -13.9291 C.ar      1 MOL     0.0397
      9 C           1.4886   10.2492  -12.6063 C.2       1 MOL     0.0752
     10 O           0.9564   13.7358  -14.9841 O.2       1 MOL    -0.2507
     11 O           2.5810   12.7855  -13.7253 O.3       1 MOL    -0.4254
     12 O           1.0968   11.3036  -12.0250 O.co2     1 MOL    -0.5445
     13 O           1.3412    9.0579  -12.1609 O.co2     1 MOL    -0.5445
     14 H           1.0317   15.5746  -13.1532 H         1 MOL     0.0342
     15 H           2.7679   15.1811  -12.8464 H         1 MOL     0.0342
     16 H           1.4710   14.3010  -11.9515 H         1 MOL     0.0342
     17 H           3.8641   12.5419  -16.0072 H         1 MOL     0.0654
     18 H           4.1767   10.4566  -17.2926 H         1 MOL     0.0619
     19 H           3.1991    8.3353  -16.4659 H         1 MOL     0.0618
     20 H           1.9596    8.3016  -14.3342 H         1 MOL     0.0625
@<TRIPOS>BOND
     1    1    2 1 
     2    1   14 1 
     3    1   15 1 
     4    1   16 1 
     5    2   10 2 
     6    2   11 1 
     7    3    4 ar
     8    3    8 ar
     9    3   11 1 
    10    4    5 ar
    11    4   17 1 
    12    5    6 ar
    13    5   18 1 
    14    6    7 ar
    15    6   19 1 
    16    7    8 ar
    17    7   20 1 
    18    8    9 1 
    19    9   12 ar
    20    9   13 ar
@<TRIPOS>SUBSTRUCTURE
1 MOL         1
@<TRIPOS>MOLECULE
query molecule
   20    20     1     0     0
SMALL
NO_CHARGE

@<TRIPOS>ATOM
      1 C          10.3102    4.4562    0.3743 C.3       1 MOL     0.1362
      2 C           9.3295    5.5556    0.7661 C.2       1 MOL     0.3092
      3 C           8.0097    6.0519    2.6574 C.ar      1 MOL     0.1404
      4 C           8.3388    7.2786    3.2690 C.ar      1 MOL     0.0468
      5 C           7.3991    7.9658    4.0403 C.ar      1 MOL     0.0037
      6 C           6.1294    7.4242    4.2246 C.ar      1 MOL     0.0009
      7 C           5.7928    6.2208    3.6119 C.ar      1 MOL     0.0131
      8 C           6.7113    5.5278    2.7993 C.ar      1 MOL     0.0397
      9 C           6.2244    4.2464    2.1391 C.2       1 MOL     0.0752
     10 O           8.9475    6.4346    0.0161 O.2       1 MOL    -0.2507
     11 O           8.9798    5.3554    1.9890 O.3       1 MOL    -0.4254
     12 O           5.0104    3.9351    2.3549 O.co2     1 MOL    -0.5445
     13 O           7.0405    3.5897    1.4267 O.co2     1 MOL    -0.5445
     14 H          10.6353    4.5878   -0.6779 H         1 MOL     0.0342
     15 H           9.8165    3.4671    0.4742 H         1 MOL     0.0342
     16 H          11.2008    4.4805    1.0335 H         1 MOL     0.0342
     17 H           9.3296    7.6969    3.1483 H         1 MOL     0.0654
     18 H           7.6546    8.9110    4.4972 H         1 MOL     0.0619
     19 H           5.4055    7.9376    4.8395 H         1 MOL     0.0618
     20 H           4.8050    5.8056    3.7578 H         1 MOL     0.0625
@<TRIPOS>BOND
     1    1    2 1 
     2    1   14 1 
     3    1   15 1 
     4    1   16 1 
     5    2   10 2 
     6    2   11 1 
     7    3    4 ar
     8    3    8 ar
     9    3   11 1 
    10    4    5 ar
    11    4   17 1 
    12    5    6 ar
    13    5   18 1 
    14    6    7 ar
    15    6   19 1 
    16    7    8 ar
    17    7   20 1 
    18    8    9 1 
    19    9   12 ar
    20    9   13 ar
@<TRIPOS>SUBSTRUCTURE
1 MOL         1
@<TRIPOS>MOLECULE
query molecule
   20    20     1     0     0
SMALL
NO_CHARGE

@<TRIPOS>ATOM
      1 C           7.3203   11.6639  -15.9394 C.3       1 MOL     0.1362
      2 C           8.5975   12.4224  -15.6217 C.2       1 MOL     0.3092
      3 C          10.1300   13.6766  -16.8709 C.ar      1 MOL     0.1404
      4 C           9.8083   15.0482  -16.9441 C.ar      1 MOL     0.0468
      5 C          10.7945   16.0035  -17.1634 C.ar      1 MOL     0.0037
      6 C          12.1204   15.5993  -17.3082 C.ar      1 MOL     0.0009
      7 C          12.4513   14.2453  -17.1993 C.ar      1 MOL     0.0131
      8 C          11.4655   13.2617  -16.9527 C.ar      1 MOL     0.0397
      9 C          11.9243   11.8290  -16.7704 C.2       1 MOL     0.0752
     10 O           9.0188   12.6386  -14.5015 O.2       1 MOL    -0.2507
     11 O           9.0988   12.7898  -16.7477 O.3       1 MOL    -0.4254
     12 O          11.0420   10.9216  -16.7601 O.co2     1 MOL    -0.5445
     13 O          13.1780   11.6585  -16.6594 O.co2     1 MOL    -0.5445
     14 H           6.7975   11.3787  -15.0038 H         1 MOL     0.0342
     15 H           7.5480   10.7541  -16.5301 H         1 MOL     0.0342
     16 H           6.6501   12.3180  -16.5343 H         1 MOL     0.0342
     17 H           8.7786   15.3594  -16.8367 H         1 MOL     0.0654
     18 H          10.5302   17.0497  -17.2287 H         1 MOL     0.0619
     19 H          12.8856   16.3379  -17.4998 H         1 MOL     0.0618
     20 H          13.4910   13.9548  -17.2984 H         1 MOL     0.0625
@<TRIPOS>BOND
     1    1    2 1 
     2    1   14 1 
     3    1   15 1 
     4    1   16 1 
     5    2   10 2 
     6    2   11 1 
     7    3    4 ar
     8    3    8 ar
     9    3   11 1 
    10    4    5 ar
    11    4   17 1 
    12    5    6 ar
    13    5   18 1 
    14    6    7 ar
    15    6   19 1 
    16    7    8 ar
    17    7   20 1 
    18    8    9 1 
    19    9   12 ar
    20    9   13 ar
@<TRIPOS>SUBSTRUCTURE
1 MOL         1
@<TRIPOS>MOLECULE
query molecule
   20    20     1     0     0
SMALL
NO_CHARGE

@<TRIPOS>ATOM
      1 C          24.3031   25.0075   -1.5322 C.3       1 MOL     0.1362
      2 C          23.7385   23.5972   -1.3924 C.2       1 MOL     0.3092
      3 C          23.9288   21.5155   -2.4900 C.ar      1 MOL     0.1404
      4 C          24.0289   20.5270   -1.4920 C.ar      1 MOL     0.0468
      5 C          23.4678   19.2658   -1.6865 C.ar      1 MOL     0.0037
      6 C          22.8298   18.9707   -2.8890 C.ar      1 MOL     0.0009
      7 C          22.7708   19.9210   -3.9004 C.ar      1 MOL     0.0131
      8 C          23.3234   21.2037   -3.7222 C.ar      1 MOL     0.0397
      9 C          23.1858   22.1758   -4.8779 C.2       1 MOL     0.0752
     10 O          22.8307   23.2991   -0.6396 O.2       1 MOL    -0.2507
     11 O          24.3937   22.7937   -2.2313 O.3       1 MOL    -0.4254
     12 O          23.7219   23.3209   -4.7813 O.co2     1 MOL    -0.5445
     13 O          22.4549   21.7985   -5.8461 O.co2     1 MOL    -0.5445
     14 H          23.8016   25.6875   -0.8133 H         1 MOL     0.0342
     15 H          24.1185   25.3799   -2.5616 H         1 MOL     0.0342
     16 H          25.3931   25.0114   -1.3357 H         1 MOL     0.0342
     17 H          24.5270   20.7503   -0.5582 H         1 MOL     0.0654
     18 H          23.5204   18.5194   -0.9079 H         1 MOL     0.0619
     19 H          22.3836   17.9990   -3.0402 H         1 MOL     0.0618
     20 H          22.2934   19.6753   -4.8390 H         1 MOL     0.0625
@<TRIPOS>BOND
     1    1    2 1 
     2    1   14 1 
     3    1   15 1 
     4    1   16 1 
     5    2   10 2 
     6    2   11 1 
     7    3    4 ar
     8    3    8 ar
     9    3   11 1 
    10    4    5 ar
    11    4   17 1 
    12    5    6 ar
    13    5   18 1 
    14    6    7 ar
    15    6   19 1 
    16    7    8 ar
    17    7   20 1 
    18    8    9 1 
    19    9   12 ar
    20    9   13 ar
@<TRIPOS>SUBSTRUCTURE
1 MOL         1
@<TRIPOS>MOLECULE
query molecule
   20    20     1     0     0
SMALL
NO_CHARGE

@<TRIPOS>ATOM
      1 C          18.0267   27.4173   -7.1624 C.3       1 MOL     0.1362
      2 C          18.5925   26.9919   -5.8156 C.2       1 MOL     0.3092
      3 C          19.4023   28.0337   -3.8604 C.ar      1 MOL     0.1404
      4 C          20.7969   27.9207   -3.6760 C.ar      1 MOL     0.0468
      5 C          21.3577   27.9822   -2.3995 C.ar      1 MOL     0.0037
      6 C          20.5366   28.1702   -1.2902 C.ar      1 MOL     0.0009
      7 C          19.1579   28.2536   -1.4618 C.ar      1 MOL     0.0131
      8 C          18.5658   28.1486   -2.7390 C.ar      1 MOL     0.0397
      9 C          17.0485   28.1564   -2.7783 C.2       1 MOL     0.0752
     10 O          18.7051   25.8398   -5.4378 O.2       1 MOL    -0.2507
     11 O          18.9063   28.0783   -5.1526 O.3       1 MOL    -0.4254
     12 O          16.4651   28.3859   -1.6717 O.co2     1 MOL    -0.5445
     13 O          16.4765   27.9275   -3.8839 O.co2     1 MOL    -0.5445
     14 H          17.8158   26.5318   -7.7945 H         1 MOL     0.0342
     15 H          18.7466   28.0751   -7.6914 H         1 MOL     0.0342
     16 H          17.0824   27.9796   -7.0047 H         1 MOL     0.0342
     17 H          21.4438   27.7939   -4.5335 H         1 MOL     0.0654
     18 H          22.4264   27.8939   -2.2709 H         1 MOL     0.0619
     19 H          20.9664   28.2504   -0.3033 H         1 MOL     0.0618
     20 H          18.5249   28.3979   -0.5961 H         1 MOL     0.0625
@<TRIPOS>BOND
     1    1    2 1 
     2    1   14 1 
     3    1   15 1 
     4    1   16 1 
     5    2   10 2 
     6    2   11 1 
     7    3    4 ar
     8    3    8 ar
     9    3   11 1 
    10    4    5 ar
    11    4   17 1 
    12    5    6 ar
    13    5   18 1 
    14    6    7 ar
    15    6   19 1 
    16    7    8 ar
    17    7   20 1 
    18    8    9 1 
    19    9   12 ar
    20    9   13 ar
@<TRIPOS>SUBSTRUCTURE
1 MOL         1
@<TRIPOS>MOLECULE
query molecule
   20    20     1     0     0
SMALL
NO_CHARGE

@<TRIPOS>ATOM
      1 C          22.3612   35.7306    9.1468 C.3       1 MOL     0.1362
      2 C          21.3854   34.7100    8.5872 C.2       1 MOL     0.3092
      3 C          20.2026   34.2960    6.5962 C.ar      1 MOL     0.1404
      4 C          18.8470   34.6699    6.6593 C.ar      1 MOL     0.0468
      5 C          17.8869   33.9864    5.9191 C.ar      1 MOL     0.0037
      6 C          18.2687   32.9143    5.1135 C.ar      1 MOL     0.0009
      7 C          19.6108   32.5395    5.0457 C.ar      1 MOL     0.0131
      8 C          20.5988   33.2307    5.7776 C.ar      1 MOL     0.0397
      9 C          22.0390   32.7889    5.6312 C.2       1 MOL     0.0752
     10 O          20.9471   33.7632    9.2182 O.2       1 MOL    -0.2507
     11 O          21.1143   35.0265    7.3339 O.3       1 MOL    -0.4254
     12 O          22.9077   33.2819    6.4161 O.co2     1 MOL    -0.5445
     13 O          22.2725   31.9275    4.7239 O.co2     1 MOL    -0.5445
     14 H          22.5650   35.5142   10.2149 H         1 MOL     0.0342
     15 H          21.9224   36.7454    9.0617 H         1 MOL     0.0342
     16 H          23.3143   35.7018    8.5825 H         1 MOL     0.0342
     17 H          18.5571   35.5036    7.2854 H         1 MOL     0.0654
     18 H          16.8521   34.2862    5.9802 H         1 MOL     0.0619
     19 H          17.5211   32.3762    4.5515 H         1 MOL     0.0618
     20 H          19.8933   31.7005    4.4235 H         1 MOL     0.0625
@<TRIPOS>BOND
     1    1    2 1 
     2    1   14 1 
     3    1   15 1 
     4    1   16 1 
     5    2   10 2 
     6    2   11 1 
     7    3    4 ar
     8    3    8 ar
     9    3   11 1 
    10    4    5 ar
    11    4   17 1 
    12    5    6 ar
    13    5   18 1 
    14    6    7 ar
    15    6   19 1 
    16    7    8 ar
    17    7   20 1 
    18    8    9 1 
    19    9   12 ar
    20    9   13 ar
@<TRIPOS>SUBSTRUCTURE
1 MOL         1
@<TRIPOS>MOLECULE
query molecule
   20    20     1     0     0
SMALL
NO_CHARGE

@<TRIPOS>ATOM
      1 C           6.4485   28.2707   -7.8310 C.3       1 MOL     0.1362
      2 C           6.7211   26.8582   -8.3331 C.2       1 MOL     0.3092
      3 C           6.7788   25.6653  -10.3651 C.ar      1 MOL     0.1404
      4 C           8.0944   25.2570  -10.6604 C.ar      1 MOL     0.0468
      5 C           8.3334   24.0615  -11.3382 C.ar      1 MOL     0.0037
      6 C           7.2643   23.2505  -11.7132 C.ar      1 MOL     0.0009
      7 C           5.9596   23.6560  -11.4347 C.ar      1 MOL     0.0131
      8 C           5.6965   24.8802  -10.7876 C.ar      1 MOL     0.0397
      9 C           4.2425   25.2789  -10.6270 C.2       1 MOL     0.0752
     10 O           7.0099   25.9237   -7.6091 O.2       1 MOL    -0.2507
     11 O           6.5914   26.8382   -9.6552 O.3       1 MOL    -0.4254
     12 O           3.3848   24.4118  -10.9830 O.co2     1 MOL    -0.5445
     13 O           3.9921   26.4381  -10.1824 O.co2     1 MOL    -0.5445
     14 H           6.8623   28.3964   -6.8090 H         1 MOL     0.0342
     15 H           5.3548   28.4559   -7.7978 H         1 MOL     0.0342
     16 H           6.9191   29.0174   -8.5024 H         1 MOL     0.0342
     17 H           8.9285   25.8734  -10.3532 H         1 MOL     0.0654
     18 H           9.3474   23.7646  -11.5611 H         1 MOL     0.0619
     19 H           7.4507   22.3165  -12.2203 H         1 MOL     0.0618
     20 H           5.1337   23.0237  -11.7336 H         1 MOL     0.0625
@<TRIPOS>BOND
     1    1    2 1 
     2    1   14 1 
     3    1   15 1 
     4    1   16 1 
     5    2   10 2 
     6    2   11 1 
     7    3    4 ar
     8    3    8 ar
     9    3   11 1 
    10    4    5 ar
    11    4   17 1 
    12    5    6 ar
    13    5   18 1 
    14    6    7 ar
    15    6   19 1 
    16    7    8 ar
    17    7   20 1 
    18    8    9 1 
    19    9   12 ar
    20    9   13 ar
@<TRIPOS>SUBSTRUCTURE
1 MOL         1
@<TRIPOS>MOLECULE
query molecule
   20    20     1     0     0
SMALL
NO_CHARGE

@<TRIPOS>ATOM
      1 C          11.9983   22.9140  -11.1391 C.3       1 MOL     0.1362
      2 C          13.0364   23.5989  -10.2510 C.2       1 MOL     0.3092
      3 C          14.8697   25.0797  -10.4610 C.ar      1 MOL     0.1404
      4 C          14.7386   26.3198   -9.8119 C.ar      1 MOL     0.0468
      5 C          15.8422   26.9242   -9.1993 C.ar      1 MOL     0.0037
      6 C          17.0874   26.2924   -9.2291 C.ar      1 MOL     0.0009
      7 C          17.2306   25.0758   -9.8971 C.ar      1 MOL     0.0131
      8 C          16.1364   24.4781  -10.5431 C.ar      1 MOL     0.0397
      9 C          16.4037   23.2161  -11.3207 C.2       1 MOL     0.0752
     10 O          13.1705   23.3562   -9.0641 O.2       1 MOL    -0.2507
     11 O          13.7478   24.4576  -10.9852 O.3       1 MOL    -0.4254
     12 O          17.4579   22.5710  -11.0362 O.co2     1 MOL    -0.5445
     13 O          15.5508   22.9219  -12.2069 O.co2     1 MOL    -0.5445
     14 H          11.3215   22.2934  -10.5142 H         1 MOL     0.0342
     15 H          12.5053   22.2540  -11.8724 H         1 MOL     0.0342
     16 H          11.3913   23.6635  -11.6851 H         1 MOL     0.0342
     17 H          13.7776   26.8114   -9.7683 H         1 MOL     0.0654
     18 H          15.7350   27.8758   -8.6983 H         1 MOL     0.0619
     19 H          17.9392   26.7493   -8.7485 H         1 MOL     0.0618
     20 H          18.1995   24.5972   -9.9314 H         1 MOL     0.0625
@<TRIPOS>BOND
     1    1    2 1 
     2    1   14 1 
     3    1   15 1 
     4    1   16 1 
     5    2   10 2 
     6    2   11 1 
     7    3    4 ar
     8    3    8 ar
     9    3   11 1 
    10    4    5 ar
    11    4   17 1 
    12    5    6 ar
    13    5   18 1 
    14    6    7 ar
    15    6   19 1 
    16    7    8 ar
    17    7   20 1 
    18    8    9 1 
    19    9   12 ar
    20    9   13 ar
@<TRIPOS>SUBSTRUCTURE
1 MOL         1
@<TRIPOS>MOLECULE
query molecule
   20    20     1     0     0
SMALL
NO_CHARGE

@<TRIPOS>ATOM
      1 C          -2.0722    9.1109    8.3560 C.3       1 MOL     0.1362
      2 C          -0.5727    9.2345    8.1235 C.2       1 MOL     0.3092
      3 C           1.4268    8.3919    9.0518 C.ar      1 MOL     0.1404
      4 C           1.8357    7.1311    8.5783 C.ar      1 MOL     0.0468
      5 C           3.1911    6.8336    8.4279 C.ar      1 MOL     0.0037
      6 C           4.1516    7.7963    8.7414 C.ar      1 MOL     0.0009
      7 C           3.7525    9.0462    9.2223 C.ar      1 MOL     0.0131
      8 C           2.3905    9.3525    9.4074 C.ar      1 MOL     0.0397
      9 C           2.0300   10.7143    9.9748 C.2       1 MOL     0.0752
     10 O          -0.0757    9.8035    7.1645 O.2       1 MOL    -0.2507
     11 O           0.0717    8.6675    9.1372 O.3       1 MOL    -0.4254
     12 O           2.9542   11.5857    9.9844 O.co2     1 MOL    -0.5445
     13 O           0.8296   10.9191   10.3307 O.co2     1 MOL    -0.5445
     14 H          -2.5320   10.1215    8.3598 H         1 MOL     0.0342
     15 H          -2.2683    8.6218    9.3308 H         1 MOL     0.0342
     16 H          -2.5317    8.5108    7.5450 H         1 MOL     0.0342
     17 H           1.0935    6.3867    8.3256 H         1 MOL     0.0654
     18 H           3.4967    5.8619    8.0678 H         1 MOL     0.0619
     19 H           5.2009    7.5744    8.6112 H         1 MOL     0.0618
     20 H           4.5045    9.7867    9.4584 H         1 MOL     0.0625
@<TRIPOS>BOND
     1    1    2 1 
     2    1   14 1 
     3    1   15 1 
     4    1   16 1 
     5    2   10 2 
     6    2   11 1 
     7    3    4 ar
     8    3    8 ar
     9    3   11 1 
    10    4    5 ar
    11    4   17 1 
    12    5    6 ar
    13    5   18 1 
    14    6    7 ar
    15    6   19 1 
    16    7    8 ar
    17    7   20 1 
    18    8    9 1 
    19    9   12 ar
    20    9   13 ar
@<TRIPOS>SUBSTRUCTURE
1 MOL         1
@<TRIPOS>MOLECULE
query molecule
   20    20     1     0     0
SMALL
NO_CHARGE

@<TRIPOS>ATOM
      1 C           7.4691   28.4900   -7.2733 C.3       1 MOL     0.1362
      2 C           7.0047   27.1017   -7.6902 C.2       1 MOL     0.3092
      3 C           6.6926   25.9551   -9.7248 C.ar      1 MOL     0.1404
      4 C           5.3452   25.5984   -9.9119 C.ar      1 MOL     0.0468
      5 C           4.9981   24.5143  -10.7162 C.ar      1 MOL     0.0037
      6 C           5.9960   23.7734  -11.3479 C.ar      1 MOL     0.0009
      7 C           7.3354   24.1156  -11.1606 C.ar      1 MOL     0.0131
      8 C           7.7050   25.1986  -10.3361 C.ar      1 MOL     0.0397
      9 C           9.1893   25.4790  -10.1597 C.2       1 MOL     0.0752
     10 O           6.7080   26.2107   -6.9270 O.2       1 MOL    -0.2507
     11 O           6.9903   27.0722   -8.9886 O.3       1 MOL    -0.4254
     12 O           9.5397   26.3463   -9.3065 O.co2     1 MOL    -0.5445
     13 O           9.9706   24.7884  -10.8855 O.co2     1 MOL    -0.5445
     14 H           7.2393   28.6622   -6.2018 H         1 MOL     0.0342
     15 H           6.9544   29.2640   -7.8790 H         1 MOL     0.0342
     16 H           8.5639   28.5889   -7.4238 H         1 MOL     0.0342
     17 H           4.5703   26.1789   -9.4304 H         1 MOL     0.0654
     18 H           3.9593   24.2536  -10.8537 H         1 MOL     0.0619
     19 H           5.7328   22.9379  -11.9792 H         1 MOL     0.0618
     20 H           8.1044   23.5349  -11.6527 H         1 MOL     0.0625
@<TRIPOS>BOND
     1    1    2 1 
     2    1   14 1 
     3    1   15 1 
     4    1   16 1 
     5    2   10 2 
     6    2   11 1 
     7    3    4 ar
     8    3    8 ar
     9    3   11 1 
    10    4    5 ar
    11    4   17 1 
    12    5    6 ar
    13    5   18 1 
    14    6    7 ar
    15    6   19 1 
    16    7    8 ar
    17    7   20 1 
    18    8    9 1 
    19    9   12 ar
    20    9   13 ar
@<TRIPOS>SUBSTRUCTURE
1 MOL         1
@<TRIPOS>MOLECULE
query molecule
   20    20     1     0     0
SMALL
NO_CHARGE

@<TRIPOS>ATOM
      1 C          23.5487   26.7666   17.1198 C.3       1 MOL     0.1362
      2 C          22.7077   27.9364   16.6194 C.2       1 MOL     0.3092
      3 C          21.9421   26.7429   14.6890 C.ar      1 MOL     0.1404
      4 C          21.0420   25.7115   15.0095 C.ar      1 MOL     0.0468
      5 C          20.8580   24.6244   14.1674 C.ar      1 MOL     0.0037
      6 C          21.5644   24.5528   12.9729 C.ar      1 MOL     0.0009
      7 C          22.4431   25.5784   12.6209 C.ar      1 MOL     0.0131
      8 C          22.6300   26.6849   13.4720 C.ar      1 MOL     0.0397
      9 C          23.5827   27.7587   13.0026 C.2       1 MOL     0.0752
     10 O          22.6222   28.9880   17.2338 O.2       1 MOL    -0.2507
     11 O          22.0801   27.7660   15.5226 O.3       1 MOL    -0.4254
     12 O          24.3597   27.4563   12.0381 O.co2     1 MOL    -0.5445
     13 O          23.5363   28.8911   13.5932 O.co2     1 MOL    -0.5445
     14 H          23.9772   27.0401   18.1037 H         1 MOL     0.0342
     15 H          24.3749   26.5465   16.4311 H         1 MOL     0.0342
     16 H          22.9135   25.8823   17.2551 H         1 MOL     0.0342
     17 H          20.4847   25.7767   15.9289 H         1 MOL     0.0654
     18 H          20.1848   23.8378   14.4461 H         1 MOL     0.0619
     19 H          21.4301   23.6997   12.3228 H         1 MOL     0.0618
     20 H          22.9743   25.5068   11.6802 H         1 MOL     0.0625
@<TRIPOS>BOND
     1    1    2 1 
     2    1   14 1 
     3    1   15 1 
     4    1   16 1 
     5    2   10 2 
     6    2   11 1 
     7    3    4 ar
     8    3    8 ar
     9    3   11 1 
    10    4    5 ar
    11    4   17 1 
    12    5    6 ar
    13    5   18 1 
    14    6    7 ar
    15    6   19 1 
    16    7    8 ar
    17    7   20 1 
    18    8    9 1 
    19    9   12 ar
    20    9   13 ar
@<TRIPOS>SUBSTRUCTURE
1 MOL         1
@<TRIPOS>MOLECULE
query molecule
   20    20     1     0     0
SMALL
NO_CHARGE

@<TRIPOS>ATOM
      1 C           8.2749   35.1264   -2.4941 C.3       1 MOL     0.1362
      2 C           8.2531   33.8811   -3.3698 C.2       1 MOL     0.3092
      3 C           7.9910   33.3216   -5.6473 C.ar      1 MOL     0.1404
      4 C           9.1600   33.2225   -6.4292 C.ar      1 MOL     0.0468
      5 C           9.2501   32.2902   -7.4622 C.ar      1 MOL     0.0037
      6 C           8.1680   31.4540   -7.7345 C.ar      1 MOL     0.0009
      7 C           7.0042   31.5549   -6.9720 C.ar      1 MOL     0.0131
      8 C           6.8973   32.4868   -5.9197 C.ar      1 MOL     0.0397
      9 C           5.5962   32.5089   -5.1411 C.2       1 MOL     0.0752
     10 O           8.4488   32.7460   -2.9663 O.2       1 MOL    -0.2507
     11 O           7.9664   34.2448   -4.6186 O.3       1 MOL    -0.4254
     12 O           4.7565   31.5933   -5.4043 O.co2     1 MOL    -0.5445
     13 O           5.4391   33.4164   -4.2746 O.co2     1 MOL    -0.5445
     14 H           7.4759   35.0713   -1.7272 H         1 MOL     0.0342
     15 H           8.1122   36.0329   -3.1140 H         1 MOL     0.0342
     16 H           9.2568   35.2156   -1.9856 H         1 MOL     0.0342
     17 H           9.9989   33.8739   -6.2257 H         1 MOL     0.0654
     18 H          10.1543   32.2166   -8.0482 H         1 MOL     0.0619
     19 H           8.2325   30.7323   -8.5351 H         1 MOL     0.0618
     20 H           6.1666   30.9079   -7.1959 H         1 MOL     0.0625
@<TRIPOS>BOND
     1    1    2 1 
     2    1   14 1 
     3    1   15 1 
     4    1   16 1 
     5    2   10 2 
     6    2   11 1 
     7    3    4 ar
     8    3    8 ar
     9    3   11 1 
    10    4    5 ar
    11    4   17 1 
    12    5    6 ar
    13    5   18 1 
    14    6    7 ar
    15    6   19 1 
    16    7    8 ar
    17    7   20 1 
    18    8    9 1 
    19    9   12 ar
    20    9   13 ar
@<TRIPOS>SUBSTRUCTURE
1 MOL         1
@<TRIPOS>MOLECULE
query molecule
   20    20     1     0     0
SMALL
NO_CHARGE

@<TRIPOS>ATOM
      1 C          21.0192   24.9265   -7.5987 C.3       1 MOL     0.1362
      2 C          19.5277   25.2515   -7.5455 C.2       1 MOL     0.3092
      3 C          17.8431   25.6384   -9.1547 C.ar      1 MOL     0.1404
      4 C          17.1201   26.7799   -8.7631 C.ar      1 MOL     0.0468
      5 C          15.7962   26.9572   -9.1595 C.ar      1 MOL     0.0037
      6 C          15.1789   25.9937   -9.9572 C.ar      1 MOL     0.0009
      7 C          15.8885   24.8586  -10.3528 C.ar      1 MOL     0.0131
      8 C          17.2301   24.6574   -9.9619 C.ar      1 MOL     0.0397
      9 C          17.9156   23.3909  -10.4677 C.2       1 MOL     0.0752
     10 O          18.8605   25.2420   -6.5306 O.2       1 MOL    -0.2507
     11 O          19.1438   25.5131   -8.7598 O.3       1 MOL    -0.4254
     12 O          17.2063   22.5730  -11.1361 O.co2     1 MOL    -0.5445
     13 O          19.1463   23.2502  -10.1989 O.co2     1 MOL    -0.5445
     14 H          21.3971   24.7103   -6.5779 H         1 MOL     0.0342
     15 H          21.5770   25.7895   -8.0120 H         1 MOL     0.0342
     16 H          21.1996   24.0402   -8.2419 H         1 MOL     0.0342
     17 H          17.5975   27.5256   -8.1442 H         1 MOL     0.0654
     18 H          15.2525   27.8372   -8.8489 H         1 MOL     0.0619
     19 H          14.1532   26.1294  -10.2672 H         1 MOL     0.0618
     20 H          15.4001   24.1232  -10.9775 H         1 MOL     0.0625
@<TRIPOS>BOND
     1    1    2 1 
     2    1   14 1 
     3    1   15 1 
     4    1   16 1 
     5    2   10 2 
     6    2   11 1 
     7    3    4 ar
     8    3    8 ar
     9    3   11 1 
    10    4    5 ar
    11    4   17 1 
    12    5    6 ar
    13    5   18 1 
    14    6    7 ar
    15    6   19 1 
    16    7    8 ar
    17    7   20 1 
    18    8    9 1 
    19    9   12 ar
    20    9   13 ar
@<TRIPOS>SUBSTRUCTURE
1 MOL         1
@<TRIPOS>MOLECULE
query molecule
   20    20     1     0     0
SMALL
NO_CHARGE

@<TRIPOS>ATOM
      1 C          27.3210   16.3723  -12.0794 C.3       1 MOL     0.1362
      2 C          26.5910   16.2583  -10.7446 C.2       1 MOL     0.3092
      3 C          25.9932   17.7378   -9.0163 C.ar      1 MOL     0.1404
      4 C          26.7119   17.3943   -7.8532 C.ar      1 MOL     0.0468
      5 C          26.2462   17.7554   -6.5926 C.ar      1 MOL     0.0037
      6 C          25.0612   18.4794   -6.4814 C.ar      1 MOL     0.0009
      7 C          24.3319   18.8108   -7.6290 C.ar      1 MOL     0.0131
      8 C          24.7665   18.4197   -8.9138 C.ar      1 MOL     0.0397
      9 C          23.8775   18.7419  -10.1106 C.2       1 MOL     0.0752
     10 O          26.1510   15.2232  -10.2850 O.2       1 MOL    -0.2507
     11 O          26.5436   17.4394  -10.2325 O.3       1 MOL    -0.4254
     12 O          24.2266   18.2782  -11.2372 O.co2     1 MOL    -0.5445
     13 O          22.8323   19.4362   -9.8998 O.co2     1 MOL    -0.5445
     14 H          27.3998   15.3759  -12.5583 H         1 MOL     0.0342
     15 H          28.3403   16.7794  -11.9200 H         1 MOL     0.0342
     16 H          26.7660   17.0540  -12.7566 H         1 MOL     0.0342
     17 H          27.6413   16.8480   -7.9436 H         1 MOL     0.0654
     18 H          26.8057   17.4808   -5.7108 H         1 MOL     0.0619
     19 H          24.7097   18.7778   -5.5044 H         1 MOL     0.0618
     20 H          23.4120   19.3699   -7.5184 H         1 MOL     0.0625
@<TRIPOS>BOND
     1    1    2 1 
     2    1   14 1 
     3    1   15 1 
     4    1   16 1 
     5    2   10 2 
     6    2   11 1 
     7    3    4 ar
     8    3    8 ar
     9    3   11 1 
    10    4    5 ar
    11    4   17 1 
    12    5    6 ar
    13    5   18 1 
    14    6    7 ar
    15    6   19 1 
    16    7    8 ar
    17    7   20 1 
    18    8    9 1 
    19    9   12 ar
    20    9   13 ar
@<TRIPOS>SUBSTRUCTURE
1 MOL         1
@<TRIPOS>MOLECULE
query molecule
   20    20     1     0     0
SMALL
NO_CHARGE

@<TRIPOS>ATOM
      1 C          12.3488   32.0066    1.0887 C.3       1 MOL     0.1362
      2 C          12.5638   30.7379    0.2717 C.2       1 MOL     0.3092
      3 C          14.0655   30.0565   -1.4246 C.ar      1 MOL     0.1404
      4 C          13.3006   29.4605   -2.4441 C.ar      1 MOL     0.0468
      5 C          13.8727   28.5263   -3.3065 C.ar      1 MOL     0.0037
      6 C          15.2167   28.1812   -3.1663 C.ar      1 MOL     0.0009
      7 C          15.9797   28.7595   -2.1574 C.ar      1 MOL     0.0131
      8 C          15.4182   29.6977   -1.2696 C.ar      1 MOL     0.0397
      9 C          16.3303   30.2460   -0.1843 C.2       1 MOL     0.0752
     10 O          11.9569   29.6964    0.4392 O.2       1 MOL    -0.2507
     11 O          13.4869   30.9928   -0.6085 O.3       1 MOL    -0.4254
     12 O          15.8656   31.1241    0.5999 O.co2     1 MOL    -0.5445
     13 O          17.5042   29.7611   -0.1519 O.co2     1 MOL    -0.5445
     14 H          11.4440   31.9035    1.7216 H         1 MOL     0.0342
     15 H          12.2140   32.8757    0.4113 H         1 MOL     0.0342
     16 H          13.2256   32.1946    1.7418 H         1 MOL     0.0342
     17 H          12.2596   29.7287   -2.5611 H         1 MOL     0.0654
     18 H          13.2786   28.0734   -4.0862 H         1 MOL     0.0619
     19 H          15.6682   27.4692   -3.8406 H         1 MOL     0.0618
     20 H          17.0206   28.4869   -2.0496 H         1 MOL     0.0625
@<TRIPOS>BOND
     1    1    2 1 
     2    1   14 1 
     3    1   15 1 
     4    1   16 1 
     5    2   10 2 
     6    2   11 1 
     7    3    4 ar
     8    3    8 ar
     9    3   11 1 
    10    4    5 ar
    11    4   17 1 
    12    5    6 ar
    13    5   18 1 
    14    6    7 ar
    15    6   19 1 
    16    7    8 ar
    17    7   20 1 
    18    8    9 1 
    19    9   12 ar
    20    9   13 ar
@<TRIPOS>SUBSTRUCTURE
1 MOL         1
@<TRIPOS>MOLECULE
query molecule
   20    20     1     0     0
SMALL
NO_CHARGE

@<TRIPOS>ATOM
      1 C          -9.2980   30.8443   -2.3783 C.3       1 MOL     0.1362
      2 C          -8.1946   31.3450   -1.4382 C.2       1 MOL     0.3092
      3 C          -7.4214   31.0245    0.7967 C.ar      1 MOL     0.1404
      4 C          -6.1644   30.4202    0.9767 C.ar      1 MOL     0.0468
      5 C          -5.2999   30.8406    1.9862 C.ar      1 MOL     0.0037
      6 C          -5.6853   31.8623    2.8493 C.ar      1 MOL     0.0009
      7 C          -6.9501   32.4292    2.7191 C.ar      1 MOL     0.0131
      8 C          -7.8420   32.0063    1.7123 C.ar      1 MOL     0.0397
      9 C          -9.2195   32.6487    1.7029 C.2       1 MOL     0.0752
     10 O          -7.4196   32.2436   -1.7291 O.2       1 MOL    -0.2507
     11 O          -8.2172   30.6594   -0.2818 O.3       1 MOL    -0.4254
     12 O          -9.4034   33.5822    2.5451 O.co2     1 MOL    -0.5445
     13 O         -10.0693   32.2192    0.8691 O.co2     1 MOL    -0.5445
     14 H          -9.1971   31.3034   -3.3862 H         1 MOL     0.0342
     15 H         -10.2997   31.1119   -1.9823 H         1 MOL     0.0342
     16 H          -9.2409   29.7425   -2.4916 H         1 MOL     0.0342
     17 H          -5.8541   29.6213    0.3167 H         1 MOL     0.0654
     18 H          -4.3262   30.3904    2.0989 H         1 MOL     0.0619
     19 H          -5.0168   32.2184    3.6192 H         1 MOL     0.0618
     20 H          -7.2598   33.2104    3.4032 H         1 MOL     0.0625
@<TRIPOS>BOND
     1    1    2 1 
     2    1   14 1 
     3    1   15 1 
     4    1   16 1 
     5    2   10 2 
     6    2   11 1 
     7    3    4 ar
     8    3    8 ar
     9    3   11 1 
    10    4    5 ar
    11    4   17 1 
    12    5    6 ar
    13    5   18 1 
    14    6    7 ar
    15    6   19 1 
    16    7    8 ar
    17    7   20 1 
    18    8    9 1 
    19    9   12 ar
    20    9   13 ar
@<TRIPOS>SUBSTRUCTURE
1 MOL         1
@<TRIPOS>MOLECULE
query molecule
   20    20     1     0     0
SMALL
NO_CHARGE

@<TRIPOS>ATOM
      1 C          20.8923   24.6867   13.3519 C.3       1 MOL     0.1362
      2 C          21.3404   26.1224   13.1219 C.2       1 MOL     0.3092
      3 C          23.3966   27.2535   12.8309 C.ar      1 MOL     0.1404
      4 C          23.2347   28.4449   13.5589 C.ar      1 MOL     0.0468
      5 C          23.9644   29.5867   13.2341 C.ar      1 MOL     0.0037
      6 C          24.8735   29.5531   12.1788 C.ar      1 MOL     0.0009
      7 C          25.0486   28.3742   11.4556 C.ar      1 MOL     0.0131
      8 C          24.3315   27.2051   11.7816 C.ar      1 MOL     0.0397
      9 C          24.6513   25.9526   10.9793 C.2       1 MOL     0.0752
     10 O          20.5794   27.0583   12.9590 O.2       1 MOL    -0.2507
     11 O          22.6461   26.1511   13.1593 O.3       1 MOL    -0.4254
     12 O          24.0964   24.8687   11.3292 O.co2     1 MOL    -0.5445
     13 O          25.4753   26.0942   10.0214 O.co2     1 MOL    -0.5445
     14 H          19.7854   24.6459   13.4153 H         1 MOL     0.0342
     15 H          21.3209   24.3084   14.3030 H         1 MOL     0.0342
     16 H          21.2293   24.0366   12.5194 H         1 MOL     0.0342
     17 H          22.5268   28.4752   14.3759 H         1 MOL     0.0654
     18 H          23.8231   30.4976   13.7970 H         1 MOL     0.0619
     19 H          25.4419   30.4349   11.9221 H         1 MOL     0.0618
     20 H          25.7548   28.3548   10.6356 H         1 MOL     0.0625
@<TRIPOS>BOND
     1    1    2 1 
     2    1   14 1 
     3    1   15 1 
     4    1   16 1 
     5    2   10 2 
     6    2   11 1 
     7    3    4 ar
     8    3    8 ar
     9    3   11 1 
    10    4    5 ar
    11    4   17 1 
    12    5    6 ar
    13    5   18 1 
    14    6    7 ar
    15    6   19 1 
    16    7    8 ar
    17    7   20 1 
    18    8    9 1 
    19    9   12 ar
    20    9   13 ar
@<TRIPOS>SUBSTRUCTURE
1 MOL         1
@<TRIPOS>MOLECULE
query molecule
   20    20     1     0     0
SMALL
NO_CHARGE

@<TRIPOS>ATOM
      1 C          24.7065   26.2363    4.6392 C.3       1 MOL     0.1362
      2 C          24.4767   26.7636    3.2251 C.2       1 MOL     0.3092
      3 C          23.5786   25.8833    1.2343 C.ar      1 MOL     0.1404
      4 C          22.4837   26.6667    0.8281 C.ar      1 MOL     0.0468
      5 C          22.0850   26.7078   -0.5056 C.ar      1 MOL     0.0037
      6 C          22.7726   25.9548   -1.4527 C.ar      1 MOL     0.0009
      7 C          23.8476   25.1608   -1.0591 C.ar      1 MOL     0.0131
      8 C          24.2735   25.1185    0.2831 C.ar      1 MOL     0.0397
      9 C          25.4535   24.2228    0.6145 C.2       1 MOL     0.0752
     10 O          24.7835   27.8734    2.8533 O.2       1 MOL    -0.2507
     11 O          23.9087   25.8294    2.5572 O.3       1 MOL    -0.4254
     12 O          25.7610   24.0700    1.8318 O.co2     1 MOL    -0.5445
     13 O          26.0420   23.6921   -0.3764 O.co2     1 MOL    -0.5445
     14 H          25.1953   27.0184    5.2563 H         1 MOL     0.0342
     15 H          25.3584   25.3401    4.6155 H         1 MOL     0.0342
     16 H          23.7378   25.9650    5.1057 H         1 MOL     0.0342
     17 H          21.9388   27.2365    1.5671 H         1 MOL     0.0654
     18 H          21.2491   27.3232   -0.8014 H         1 MOL     0.0619
     19 H          22.4732   25.9862   -2.4896 H         1 MOL     0.0618
     20 H          24.3684   24.5689   -1.7997 H         1 MOL     0.0625
@<TRIPOS>BOND
     1    1    2 1 
     2    1   14 1 
     3    1   15 1 
     4    1   16 1 
     5    2   10 2 
     6    2   11 1 
     7    3    4 ar
     8    3    8 ar
     9    3   11 1 
    10    4    5 ar
    11    4   17 1 
    12    5    6 ar
    13    5   18 1 
    14    6    7 ar
    15    6   19 1 
    16    7    8 ar
    17    7   20 1 
    18    8    9 1 
    19    9   12 ar
    20    9   13 ar
@<TRIPOS>SUBSTRUCTURE
1 MOL         1
@<TRIPOS>MOLECULE
query molecule
   20    20     1     0     0
SMALL
NO_CHARGE

@<TRIPOS>ATOM
      1 C          -6.4371   30.4891    1.3278 C.3       1 MOL     0.1362
      2 C          -5.4576   31.1996    2.2400 C.2       1 MOL     0.3092
      3 C          -4.9787   33.4235    2.8451 C.ar      1 MOL     0.1404
      4 C          -4.8750   33.4268    4.2473 C.ar      1 MOL     0.0468
      5 C          -4.1101   34.3884    4.9057 C.ar      1 MOL     0.0037
      6 C          -3.4502   35.3701    4.1679 C.ar      1 MOL     0.0009
      7 C          -3.5661   35.3873    2.7781 C.ar      1 MOL     0.0131
      8 C          -4.3182   34.4107    2.0946 C.ar      1 MOL     0.0397
      9 C          -4.3587   34.4940    0.5779 C.2       1 MOL     0.0752
     10 O          -4.5453   30.6612    2.8433 O.2       1 MOL    -0.2507
     11 O          -5.7529   32.4689    2.2325 O.3       1 MOL    -0.4254
     12 O          -3.7815   35.5017    0.0633 O.co2     1 MOL    -0.5445
     13 O          -4.9455   33.5690   -0.0565 O.co2     1 MOL    -0.5445
     14 H          -6.1867   29.4095    1.2778 H         1 MOL     0.0342
     15 H          -6.3744   30.9185    0.3064 H         1 MOL     0.0342
     16 H          -7.4729   30.6035    1.7045 H         1 MOL     0.0342
     17 H          -5.3973   32.6747    4.8227 H         1 MOL     0.0654
     18 H          -4.0336   34.3789    5.9824 H         1 MOL     0.0619
     19 H          -2.8527   36.1171    4.6684 H         1 MOL     0.0618
     20 H          -3.0650   36.1609    2.2114 H         1 MOL     0.0625
@<TRIPOS>BOND
     1    1    2 1 
     2    1   14 1 
     3    1   15 1 
     4    1   16 1 
     5    2   10 2 
     6    2   11 1 
     7    3    4 ar
     8    3    8 ar
     9    3   11 1 
    10    4    5 ar
    11    4   17 1 
    12    5    6 ar
    13    5   18 1 
    14    6    7 ar
    15    6   19 1 
    16    7    8 ar
    17    7   20 1 
    18    8    9 1 
    19    9   12 ar
    20    9   13 ar
@<TRIPOS>SUBSTRUCTURE
1 MOL         1
