@<TRIPOS>MOLECULE
query molecule
   55    59     1     0     0
SMALL
NO_CHARGE

@<TRIPOS>ATOM
      1 N         -58.1056  -70.2446   -5.0604 N.am      1 MOL    -0.2945
      2 N         -56.9906  -70.8603   -2.4978 N.am      1 MOL    -0.2983
      3 N         -53.1998  -69.2959   -9.0155 N.ar      1 MOL    -0.1750
      4 N         -52.4574  -68.2408   -9.3154 N.ar      1 MOL    -0.2425
      5 C         -52.6084  -67.6159  -10.5671 C.ar      1 MOL     0.2725
      6 C         -53.5784  -68.1169  -11.4606 C.ar      1 MOL     0.0496
      7 C         -53.8229  -67.4807  -12.6820 C.ar      1 MOL     0.0138
      8 C         -54.7750  -67.9941  -13.5610 C.ar      1 MOL     0.0008
      9 C         -55.4842  -69.1476  -13.2267 C.ar      1 MOL     0.0007
     10 C         -55.2521  -69.7825  -12.0088 C.ar      1 MOL     0.0103
     11 C         -54.3147  -69.2823  -11.0956 C.ar      1 MOL     0.0106
     12 C         -54.0848  -69.9004   -9.8585 C.ar      1 MOL     0.0736
     13 C         -54.7164  -71.1766   -9.4224 C.3       1 MOL     0.0925
     14 C         -56.1381  -71.0829   -9.0299 C.ar      1 MOL    -0.0406
     15 C         -56.5302  -70.4401   -7.8550 C.ar      1 MOL     0.0196
     16 C         -57.8800  -70.3672   -7.4966 C.ar      1 MOL     0.0723
     17 C         -58.2880  -69.6591   -6.2648 C.2       1 MOL     0.2495
     18 C         -58.7044  -69.6572   -3.8644 C.3       1 MOL     0.1268
     19 C         -57.7086  -69.6056   -2.6668 C.3       1 MOL     0.1265
     20 C         -56.3797  -71.4145   -3.7084 C.3       1 MOL     0.1265
     21 C         -57.4011  -71.5034   -4.8775 C.3       1 MOL     0.1268
     22 C         -56.6119  -71.3847   -1.2998 C.2       1 MOL     0.2187
     23 C         -57.0256  -70.7214   -0.0418 C.3       1 MOL     0.0752
     24 C         -57.5011  -71.7211    0.9609 C.3       1 MOL     0.0134
     25 C         -58.4770  -70.8311    0.2590 C.3       1 MOL     0.0134
     26 C         -58.8436  -70.9512   -8.3181 C.ar      1 MOL     0.1355
     27 C         -58.4669  -71.6098   -9.4881 C.ar      1 MOL     0.0392
     28 C         -57.1155  -71.6748   -9.8413 C.ar      1 MOL     0.0066
     29 O         -51.8638  -66.6587  -10.8196 O.2       1 MOL    -0.2658
     30 O         -55.8696  -72.3784   -1.2165 O.2       1 MOL    -0.2753
     31 O         -58.8271  -68.5592   -6.4208 O.2       1 MOL    -0.2699
     32 F         -60.1551  -70.8802   -7.9878 F         1 MOL    -0.2047
     33 H         -53.2756  -66.5876  -12.9460 H         1 MOL     0.0625
     34 H         -54.9649  -67.5004  -14.5028 H         1 MOL     0.0618
     35 H         -56.2143  -69.5526  -13.9120 H         1 MOL     0.0618
     36 H         -55.8062  -70.6772  -11.7587 H         1 MOL     0.0624
     37 H         -54.1502  -71.5515   -8.5443 H         1 MOL     0.0377
     38 H         -54.6337  -71.9043  -10.2538 H         1 MOL     0.0377
     39 H         -55.7830  -69.9944   -7.2139 H         1 MOL     0.0629
     40 H         -59.5820  -70.2892   -3.5765 H         1 MOL     0.0480
     41 H         -59.0862  -68.6394   -4.1006 H         1 MOL     0.0480
     42 H         -58.2493  -69.3735   -1.7193 H         1 MOL     0.0480
     43 H         -56.9571  -68.7975   -2.8360 H         1 MOL     0.0480
     44 H         -55.9486  -72.4152   -3.4813 H         1 MOL     0.0480
     45 H         -55.5418  -70.7388   -4.0091 H         1 MOL     0.0480
     46 H         -58.1583  -72.2927   -4.6543 H         1 MOL     0.0480
     47 H         -56.8920  -71.7730   -5.8309 H         1 MOL     0.0480
     48 H         -56.4417  -69.8856    0.2468 H         1 MOL     0.0394
     49 H         -57.3160  -71.4981    2.0042 H         1 MOL     0.0273
     50 H         -57.5064  -72.7617    0.6599 H         1 MOL     0.0273
     51 H         -58.9133  -70.0244    0.8346 H         1 MOL     0.0273
     52 H         -59.0944  -71.2854   -0.5071 H         1 MOL     0.0273
     53 H         -59.2169  -72.0675  -10.1160 H         1 MOL     0.0646
     54 H         -56.8260  -72.1887  -10.7470 H         1 MOL     0.0621
     55 H         -51.7763  -67.8525   -8.6905 H         1 MOL     0.1921
@<TRIPOS>BOND
     1    1   18 1 
     2    1   21 1 
     3    1   17 am
     4    2   20 1 
     5    2   22 am
     6    2   19 1 
     7    3    4 ar
     8    3   12 ar
     9    4   55 1 
    10    4    5 ar
    11    5    6 ar
    12    5   29 2 
    13    6    7 ar
    14    6   11 ar
    15    7    8 ar
    16    7   33 1 
    17    8    9 ar
    18    8   34 1 
    19    9   10 ar
    20    9   35 1 
    21   10   11 ar
    22   10   36 1 
    23   11   12 ar
    24   12   13 1 
    25   13   14 1 
    26   13   37 1 
    27   13   38 1 
    28   14   15 ar
    29   14   28 ar
    30   15   16 ar
    31   15   39 1 
    32   16   17 1 
    33   16   26 ar
    34   17   31 2 
    35   18   19 1 
    36   18   40 1 
    37   18   41 1 
    38   19   42 1 
    39   19   43 1 
    40   20   21 1 
    41   20   44 1 
    42   20   45 1 
    43   21   46 1 
    44   21   47 1 
    45   22   23 1 
    46   22   30 2 
    47   23   24 1 
    48   23   25 1 
    49   23   48 1 
    50   24   25 1 
    51   24   49 1 
    52   24   50 1 
    53   25   51 1 
    54   25   52 1 
    55   26   27 ar
    56   26   32 1 
    57   27   28 ar
    58   27   53 1 
    59   28   54 1 
@<TRIPOS>SUBSTRUCTURE
1 MOL         1
@<TRIPOS>MOLECULE
query molecule
   55    59     1     0     0
SMALL
NO_CHARGE

@<TRIPOS>ATOM
      1 N         -16.4319  -40.9990    1.1935 N.am      1 MOL    -0.2945
      2 N         -14.4532  -41.2429   -0.8353 N.am      1 MOL    -0.2983
      3 N         -15.8582  -36.2902    0.9177 N.ar      1 MOL    -0.1750
      4 N         -14.6057  -35.8721    0.8125 N.ar      1 MOL    -0.2425
      5 C         -14.3000  -34.4965    0.7863 C.ar      1 MOL     0.2725
      6 C         -15.3465  -33.5796    1.0073 C.ar      1 MOL     0.0496
      7 C         -15.0945  -32.2074    1.0917 C.ar      1 MOL     0.0138
      8 C         -16.1387  -31.3139    1.3305 C.ar      1 MOL     0.0008
      9 C         -17.4428  -31.7882    1.4778 C.ar      1 MOL     0.0007
     10 C         -17.7049  -33.1561    1.3886 C.ar      1 MOL     0.0103
     11 C         -16.6704  -34.0808    1.1557 C.ar      1 MOL     0.0106
     12 C         -16.9266  -35.4563    1.0639 C.ar      1 MOL     0.0736
     13 C         -18.3243  -35.9991    1.1124 C.3       1 MOL     0.0925
     14 C         -18.4133  -37.1749    2.0084 C.ar      1 MOL    -0.0406
     15 C         -18.0523  -38.4329    1.5226 C.ar      1 MOL     0.0196
     16 C         -18.0425  -39.5489    2.3652 C.ar      1 MOL     0.0723
     17 C         -17.6022  -40.8684    1.8619 C.2       1 MOL     0.2495
     18 C         -16.0294  -42.3375    0.7510 C.3       1 MOL     0.1268
     19 C         -15.4082  -42.3314   -0.6758 C.3       1 MOL     0.1265
     20 C         -14.9242  -39.9127   -0.4709 C.3       1 MOL     0.1265
     21 C         -15.4643  -39.9289    0.9857 C.3       1 MOL     0.1268
     22 C         -13.2447  -41.3738   -1.4340 C.2       1 MOL     0.2187
     23 C         -12.7000  -42.7392   -1.6036 C.3       1 MOL     0.0752
     24 C         -12.2984  -43.2899   -0.2702 C.3       1 MOL     0.0134
     25 C         -11.2638  -42.8132   -1.2459 C.3       1 MOL     0.0134
     26 C         -18.4617  -39.3949    3.6907 C.ar      1 MOL     0.1355
     27 C         -18.8676  -38.1515    4.1750 C.ar      1 MOL     0.0392
     28 C         -18.8400  -37.0377    3.3312 C.ar      1 MOL     0.0066
     29 O         -13.1291  -34.1634    0.5470 O.2       1 MOL    -0.2658
     30 O         -12.5872  -40.4100   -1.8431 O.2       1 MOL    -0.2753
     31 O         -18.3531  -41.8219    2.1107 O.2       1 MOL    -0.2699
     32 F         -18.4744  -40.4517    4.5343 F         1 MOL    -0.2047
     33 H         -14.0870  -31.8361    0.9762 H         1 MOL     0.0625
     34 H         -15.9387  -30.2545    1.4004 H         1 MOL     0.0618
     35 H         -18.2500  -31.0933    1.6586 H         1 MOL     0.0618
     36 H         -18.7217  -33.5078    1.4992 H         1 MOL     0.0624
     37 H         -18.6176  -36.3085    0.0926 H         1 MOL     0.0377
     38 H         -19.0012  -35.2112    1.4874 H         1 MOL     0.0377
     39 H         -17.7564  -38.5394    0.4861 H         1 MOL     0.0629
     40 H         -16.9056  -43.0234    0.8020 H         1 MOL     0.0480
     41 H         -15.2604  -42.7164    1.4694 H         1 MOL     0.0480
     42 H         -16.2197  -42.1913   -1.4303 H         1 MOL     0.0480
     43 H         -14.9056  -43.3014   -0.8972 H         1 MOL     0.0480
     44 H         -15.7339  -39.6228   -1.1806 H         1 MOL     0.0480
     45 H         -14.0853  -39.1899   -0.5835 H         1 MOL     0.0480
     46 H         -15.9324  -38.9529    1.2499 H         1 MOL     0.0480
     47 H         -14.6109  -40.1024    1.6844 H         1 MOL     0.0480
     48 H         -13.1451  -43.3483   -2.3407 H         1 MOL     0.0394
     49 H         -12.3572  -44.3606   -0.1211 H         1 MOL     0.0273
     50 H         -12.4496  -42.6594    0.5986 H         1 MOL     0.0273
     51 H         -10.6759  -43.5830   -1.7318 H         1 MOL     0.0273
     52 H         -10.7755  -41.8765   -1.0163 H         1 MOL     0.0273
     53 H         -19.1970  -38.0505    5.1978 H         1 MOL     0.0646
     54 H         -19.1425  -36.0707    3.7047 H         1 MOL     0.0621
     55 H         -13.8291  -36.5117    0.7616 H         1 MOL     0.1921
@<TRIPOS>BOND
     1    1   18 1 
     2    1   21 1 
     3    1   17 am
     4    2   20 1 
     5    2   22 am
     6    2   19 1 
     7    3    4 ar
     8    3   12 ar
     9    4   55 1 
    10    4    5 ar
    11    5    6 ar
    12    5   29 2 
    13    6    7 ar
    14    6   11 ar
    15    7    8 ar
    16    7   33 1 
    17    8    9 ar
    18    8   34 1 
    19    9   10 ar
    20    9   35 1 
    21   10   11 ar
    22   10   36 1 
    23   11   12 ar
    24   12   13 1 
    25   13   14 1 
    26   13   37 1 
    27   13   38 1 
    28   14   15 ar
    29   14   28 ar
    30   15   16 ar
    31   15   39 1 
    32   16   17 1 
    33   16   26 ar
    34   17   31 2 
    35   18   19 1 
    36   18   40 1 
    37   18   41 1 
    38   19   42 1 
    39   19   43 1 
    40   20   21 1 
    41   20   44 1 
    42   20   45 1 
    43   21   46 1 
    44   21   47 1 
    45   22   23 1 
    46   22   30 2 
    47   23   24 1 
    48   23   25 1 
    49   23   48 1 
    50   24   25 1 
    51   24   49 1 
    52   24   50 1 
    53   25   51 1 
    54   25   52 1 
    55   26   27 ar
    56   26   32 1 
    57   27   28 ar
    58   27   53 1 
    59   28   54 1 
@<TRIPOS>SUBSTRUCTURE
1 MOL         1
@<TRIPOS>MOLECULE
query molecule
   55    59     1     0     0
SMALL
NO_CHARGE

@<TRIPOS>ATOM
      1 N         -14.8760  -65.3796   -1.2448 N.am      1 MOL    -0.2945
      2 N         -13.6195  -62.8109   -1.0341 N.am      1 MOL    -0.2983
      3 N         -11.5175  -65.7558   -4.6333 N.ar      1 MOL    -0.1750
      4 N         -11.7040  -64.7916   -5.5251 N.ar      1 MOL    -0.2425
      5 C         -11.4712  -65.0288   -6.8928 C.ar      1 MOL     0.2725
      6 C         -10.9554  -66.2838   -7.2816 C.ar      1 MOL     0.0496
      7 C         -10.5903  -66.5366   -8.6073 C.ar      1 MOL     0.0138
      8 C         -10.0600  -67.7756   -8.9692 C.ar      1 MOL     0.0008
      9 C          -9.9005  -68.7765   -8.0089 C.ar      1 MOL     0.0007
     10 C         -10.2684  -68.5393   -6.6824 C.ar      1 MOL     0.0103
     11 C         -10.7907  -67.2974   -6.2905 C.ar      1 MOL     0.0106
     12 C         -11.1539  -67.0260   -4.9627 C.ar      1 MOL     0.0736
     13 C         -11.1581  -68.0680   -3.8903 C.3       1 MOL     0.0925
     14 C         -12.5629  -68.3013   -3.4530 C.ar      1 MOL    -0.0406
     15 C         -13.1983  -67.4273   -2.5608 C.ar      1 MOL     0.0196
     16 C         -14.5342  -67.6296   -2.1809 C.ar      1 MOL     0.0723
     17 C         -15.2210  -66.6917   -1.2574 C.2       1 MOL     0.2495
     18 C         -14.9578  -64.6367    0.0073 C.3       1 MOL     0.1268
     19 C         -13.8105  -63.6053    0.1725 C.3       1 MOL     0.1265
     20 C         -13.4848  -63.5660   -2.2818 C.3       1 MOL     0.1265
     21 C         -14.6218  -64.6161   -2.4582 C.3       1 MOL     0.1268
     22 C         -13.3221  -61.4781   -1.0271 C.2       1 MOL     0.2187
     23 C         -13.3086  -60.7566    0.2772 C.3       1 MOL     0.0752
     24 C         -12.2705  -59.6870    0.3355 C.3       1 MOL     0.0134
     25 C         -12.0341  -61.0013    1.0188 C.3       1 MOL     0.0134
     26 C         -15.2068  -68.7501   -2.6816 C.ar      1 MOL     0.1355
     27 C         -14.5837  -69.6283   -3.5697 C.ar      1 MOL     0.0392
     28 C         -13.2622  -69.4036   -3.9573 C.ar      1 MOL     0.0066
     29 O         -11.7478  -64.1132   -7.6923 O.2       1 MOL    -0.2658
     30 O         -13.0834  -60.8401   -2.0678 O.2       1 MOL    -0.2753
     31 O         -16.0231  -67.1852   -0.4519 O.2       1 MOL    -0.2699
     32 F         -16.4845  -69.0080   -2.3173 F         1 MOL    -0.2047
     33 H         -10.7123  -65.7676   -9.3565 H         1 MOL     0.0625
     34 H          -9.7730  -67.9626   -9.9940 H         1 MOL     0.0618
     35 H          -9.4933  -69.7359   -8.2949 H         1 MOL     0.0618
     36 H         -10.1430  -69.3253   -5.9502 H         1 MOL     0.0624
     37 H         -10.5636  -67.7139   -3.0341 H         1 MOL     0.0377
     38 H         -10.7493  -69.0078   -4.2992 H         1 MOL     0.0377
     39 H         -12.6507  -66.5817   -2.1678 H         1 MOL     0.0629
     40 H         -14.9612  -65.3577    0.8577 H         1 MOL     0.0480
     41 H         -15.9338  -64.0945    0.0194 H         1 MOL     0.0480
     42 H         -12.8568  -64.1485    0.3811 H         1 MOL     0.0480
     43 H         -14.0115  -62.9255    1.0322 H         1 MOL     0.0480
     44 H         -12.5025  -64.0960   -2.2580 H         1 MOL     0.0480
     45 H         -13.4717  -62.8555   -3.1396 H         1 MOL     0.0480
     46 H         -14.4016  -65.3174   -3.2947 H         1 MOL     0.0480
     47 H         -15.5674  -64.0735   -2.7121 H         1 MOL     0.0480
     48 H         -14.2358  -60.6694    0.7794 H         1 MOL     0.0394
     49 H         -12.4598  -58.8389    0.9815 H         1 MOL     0.0273
     50 H         -11.7093  -59.5037   -0.5737 H         1 MOL     0.0273
     51 H         -12.0757  -60.9992    2.1002 H         1 MOL     0.0273
     52 H         -11.3195  -61.6682    0.5492 H         1 MOL     0.0273
     53 H         -15.1233  -70.4792   -3.9588 H         1 MOL     0.0646
     54 H         -12.7813  -70.0794   -4.6498 H         1 MOL     0.0621
     55 H         -11.9986  -63.8684   -5.2588 H         1 MOL     0.1921
@<TRIPOS>BOND
     1    1   18 1 
     2    1   21 1 
     3    1   17 am
     4    2   20 1 
     5    2   22 am
     6    2   19 1 
     7    3    4 ar
     8    3   12 ar
     9    4   55 1 
    10    4    5 ar
    11    5    6 ar
    12    5   29 2 
    13    6    7 ar
    14    6   11 ar
    15    7    8 ar
    16    7   33 1 
    17    8    9 ar
    18    8   34 1 
    19    9   10 ar
    20    9   35 1 
    21   10   11 ar
    22   10   36 1 
    23   11   12 ar
    24   12   13 1 
    25   13   14 1 
    26   13   37 1 
    27   13   38 1 
    28   14   15 ar
    29   14   28 ar
    30   15   16 ar
    31   15   39 1 
    32   16   17 1 
    33   16   26 ar
    34   17   31 2 
    35   18   19 1 
    36   18   40 1 
    37   18   41 1 
    38   19   42 1 
    39   19   43 1 
    40   20   21 1 
    41   20   44 1 
    42   20   45 1 
    43   21   46 1 
    44   21   47 1 
    45   22   23 1 
    46   22   30 2 
    47   23   24 1 
    48   23   25 1 
    49   23   48 1 
    50   24   25 1 
    51   24   49 1 
    52   24   50 1 
    53   25   51 1 
    54   25   52 1 
    55   26   27 ar
    56   26   32 1 
    57   27   28 ar
    58   27   53 1 
    59   28   54 1 
@<TRIPOS>SUBSTRUCTURE
1 MOL         1
@<TRIPOS>MOLECULE
query molecule
   55    59     1     0     0
SMALL
NO_CHARGE

@<TRIPOS>ATOM
      1 N         -43.1861  -33.4973    7.7363 N.am      1 MOL    -0.2945
      2 N         -43.8653  -36.2290    7.3343 N.am      1 MOL    -0.2983
      3 N         -39.3762  -35.9856   10.0883 N.ar      1 MOL    -0.1750
      4 N         -39.7973  -37.1358   10.5906 N.ar      1 MOL    -0.2425
      5 C         -39.6876  -37.4114   11.9706 C.ar      1 MOL     0.2725
      6 C         -39.1556  -36.4232   12.8176 C.ar      1 MOL     0.0496
      7 C         -39.0435  -36.6270   14.1952 C.ar      1 MOL     0.0138
      8 C         -38.5009  -35.6325   15.0100 C.ar      1 MOL     0.0008
      9 C         -38.0754  -34.4238   14.4551 C.ar      1 MOL     0.0007
     10 C         -38.1915  -34.2078   13.0833 C.ar      1 MOL     0.0103
     11 C         -38.7249  -35.1945   12.2412 C.ar      1 MOL     0.0106
     12 C         -38.8307  -34.9952   10.8535 C.ar      1 MOL     0.0736
     13 C         -38.3445  -33.7410   10.2015 C.3       1 MOL     0.0925
     14 C         -39.4526  -32.7886    9.9784 C.ar      1 MOL    -0.0406
     15 C         -40.3773  -33.0201    8.9546 C.ar      1 MOL     0.0196
     16 C         -41.4333  -32.1279    8.7493 C.ar      1 MOL     0.0723
     17 C         -42.4264  -32.3821    7.6868 C.2       1 MOL     0.2495
     18 C         -43.9789  -33.8623    6.5658 C.3       1 MOL     0.1268
     19 C         -43.7170  -35.3473    6.1799 C.3       1 MOL     0.1265
     20 C         -43.1310  -35.8486    8.5451 C.3       1 MOL     0.1265
     21 C         -43.3581  -34.3464    8.9059 C.3       1 MOL     0.1268
     22 C         -44.4436  -37.4602    7.2740 C.2       1 MOL     0.2187
     23 C         -45.1035  -37.8947    6.0182 C.3       1 MOL     0.0752
     24 C         -46.3596  -37.1418    5.7280 C.3       1 MOL     0.0134
     25 C         -46.4301  -38.5306    6.2717 C.3       1 MOL     0.0134
     26 C         -41.5447  -30.9929    9.5538 C.ar      1 MOL     0.1355
     27 C         -40.6215  -30.7549   10.5761 C.ar      1 MOL     0.0392
     28 C         -39.5706  -31.6553   10.7947 C.ar      1 MOL     0.0066
     29 O         -40.0682  -38.5318   12.3590 O.2       1 MOL    -0.2658
     30 O         -44.4047  -38.2570    8.2277 O.2       1 MOL    -0.2753
     31 O         -42.4798  -31.5554    6.7696 O.2       1 MOL    -0.2699
     32 F         -42.5595  -30.1168    9.3554 F         1 MOL    -0.2047
     33 H         -39.3741  -37.5565   14.6334 H         1 MOL     0.0625
     34 H         -38.4044  -35.7969   16.0735 H         1 MOL     0.0618
     35 H         -37.6541  -33.6555   15.0876 H         1 MOL     0.0618
     36 H         -37.8655  -33.2669   12.6615 H         1 MOL     0.0624
     37 H         -37.8932  -33.9950    9.2272 H         1 MOL     0.0377
     38 H         -37.6011  -33.2641   10.8652 H         1 MOL     0.0377
     39 H         -40.2766  -33.8934    8.3267 H         1 MOL     0.0629
     40 H         -43.7433  -33.1688    5.7285 H         1 MOL     0.0480
     41 H         -45.0580  -33.7287    6.8265 H         1 MOL     0.0480
     42 H         -42.6814  -35.4537    5.7818 H         1 MOL     0.0480
     43 H         -44.4300  -35.6661    5.3848 H         1 MOL     0.0480
     44 H         -42.0421  -36.0062    8.3529 H         1 MOL     0.0480
     45 H         -43.4332  -36.5122    9.3858 H         1 MOL     0.0480
     46 H         -42.6711  -34.0078    9.7130 H         1 MOL     0.0480
     47 H         -44.4060  -34.2115    9.2733 H         1 MOL     0.0480
     48 H         -44.4598  -38.2350    5.2478 H         1 MOL     0.0394
     49 H         -46.6134  -37.0100    4.6831 H         1 MOL     0.0273
     50 H         -46.6023  -36.3311    6.4032 H         1 MOL     0.0273
     51 H         -46.7540  -39.2943    5.5748 H         1 MOL     0.0273
     52 H         -46.7416  -38.6285    7.3040 H         1 MOL     0.0273
     53 H         -40.7274  -29.8769   11.1966 H         1 MOL     0.0646
     54 H         -38.8628  -31.4731   11.5876 H         1 MOL     0.0621
     55 H         -40.2235  -37.8620   10.0321 H         1 MOL     0.1921
@<TRIPOS>BOND
     1    1   18 1 
     2    1   21 1 
     3    1   17 am
     4    2   20 1 
     5    2   22 am
     6    2   19 1 
     7    3    4 ar
     8    3   12 ar
     9    4   55 1 
    10    4    5 ar
    11    5    6 ar
    12    5   29 2 
    13    6    7 ar
    14    6   11 ar
    15    7    8 ar
    16    7   33 1 
    17    8    9 ar
    18    8   34 1 
    19    9   10 ar
    20    9   35 1 
    21   10   11 ar
    22   10   36 1 
    23   11   12 ar
    24   12   13 1 
    25   13   14 1 
    26   13   37 1 
    27   13   38 1 
    28   14   15 ar
    29   14   28 ar
    30   15   16 ar
    31   15   39 1 
    32   16   17 1 
    33   16   26 ar
    34   17   31 2 
    35   18   19 1 
    36   18   40 1 
    37   18   41 1 
    38   19   42 1 
    39   19   43 1 
    40   20   21 1 
    41   20   44 1 
    42   20   45 1 
    43   21   46 1 
    44   21   47 1 
    45   22   23 1 
    46   22   30 2 
    47   23   24 1 
    48   23   25 1 
    49   23   48 1 
    50   24   25 1 
    51   24   49 1 
    52   24   50 1 
    53   25   51 1 
    54   25   52 1 
    55   26   27 ar
    56   26   32 1 
    57   27   28 ar
    58   27   53 1 
    59   28   54 1 
@<TRIPOS>SUBSTRUCTURE
1 MOL         1
@<TRIPOS>MOLECULE
query molecule
   55    59     1     0     0
SMALL
NO_CHARGE

@<TRIPOS>ATOM
      1 N         -54.5465  -43.8961   19.6679 N.am      1 MOL    -0.2945
      2 N         -56.6464  -44.5197   17.8257 N.am      1 MOL    -0.2983
      3 N         -52.6331  -50.2802   23.0320 N.ar      1 MOL    -0.1750
      4 N         -52.0234  -51.2421   23.7134 N.ar      1 MOL    -0.2425
      5 C         -50.6531  -51.5141   23.5350 C.ar      1 MOL     0.2725
      6 C         -49.9403  -50.7254   22.6115 C.ar      1 MOL     0.0496
      7 C         -48.5931  -50.9591   22.3582 C.ar      1 MOL     0.0138
      8 C         -47.9157  -50.1526   21.4570 C.ar      1 MOL     0.0008
      9 C         -48.5389  -49.0825   20.8270 C.ar      1 MOL     0.0007
     10 C         -49.8848  -48.8456   21.0716 C.ar      1 MOL     0.0103
     11 C         -50.6173  -49.6761   21.9314 C.ar      1 MOL     0.0106
     12 C         -51.9922  -49.4980   22.1248 C.ar      1 MOL     0.0736
     13 C         -52.7700  -48.4992   21.3607 C.3       1 MOL     0.0925
     14 C         -52.9961  -47.2188   22.0452 C.ar      1 MOL    -0.0406
     15 C         -53.2512  -46.1265   21.2134 C.ar      1 MOL     0.0196
     16 C         -53.5484  -44.8591   21.7156 C.ar      1 MOL     0.0723
     17 C         -53.8708  -43.7130   20.8283 C.2       1 MOL     0.2495
     18 C         -55.4548  -42.8297   19.2413 C.3       1 MOL     0.1268
     19 C         -56.8100  -43.4021   18.7466 C.3       1 MOL     0.1265
     20 C         -55.6515  -45.5441   18.1490 C.3       1 MOL     0.1265
     21 C         -54.3385  -44.9607   18.7083 C.3       1 MOL     0.1268
     22 C         -57.6740  -44.9232   17.0209 C.2       1 MOL     0.2187
     23 C         -58.8286  -44.0242   16.8158 C.3       1 MOL     0.0752
     24 C         -59.4676  -44.1973   15.4821 C.3       1 MOL     0.0134
     25 C         -58.5405  -43.0467   15.7416 C.3       1 MOL     0.0134
     26 C         -53.5469  -44.7029   23.1121 C.ar      1 MOL     0.1355
     27 C         -53.2713  -45.7792   23.9624 C.ar      1 MOL     0.0392
     28 C         -52.9992  -47.0388   23.4236 C.ar      1 MOL     0.0066
     29 O         -50.1483  -52.4220   24.2087 O.2       1 MOL    -0.2658
     30 O         -57.7023  -46.0415   16.4888 O.2       1 MOL    -0.2753
     31 O         -53.6239  -42.5785   21.2661 O.2       1 MOL    -0.2699
     32 F         -53.8303  -43.5043   23.6789 F         1 MOL    -0.2047
     33 H         -48.0764  -51.7644   22.8579 H         1 MOL     0.0625
     34 H         -46.8706  -50.3478   21.2526 H         1 MOL     0.0618
     35 H         -47.9863  -48.4456   20.1546 H         1 MOL     0.0618
     36 H         -50.3800  -48.0205   20.5785 H         1 MOL     0.0624
     37 H         -53.7571  -48.9398   21.1200 H         1 MOL     0.0377
     38 H         -52.2149  -48.2855   20.4250 H         1 MOL     0.0377
     39 H         -53.2324  -46.2727   20.1402 H         1 MOL     0.0629
     40 H         -54.9626  -42.2688   18.4092 H         1 MOL     0.0480
     41 H         -55.6084  -42.1198   20.0856 H         1 MOL     0.0480
     42 H         -57.4319  -42.6133   18.2679 H         1 MOL     0.0480
     43 H         -57.3695  -43.7840   19.6395 H         1 MOL     0.0480
     44 H         -55.4627  -46.1742   17.2507 H         1 MOL     0.0480
     45 H         -56.0990  -46.2025   18.9362 H         1 MOL     0.0480
     46 H         -53.7713  -44.5269   17.8455 H         1 MOL     0.0480
     47 H         -53.7103  -45.7581   19.1649 H         1 MOL     0.0480
     48 H         -59.3827  -43.7644   17.6767 H         1 MOL     0.0394
     49 H         -60.5220  -43.9632   15.4104 H         1 MOL     0.0273
     50 H         -59.0832  -44.9826   14.8423 H         1 MOL     0.0273
     51 H         -59.0152  -42.0754   15.8074 H         1 MOL     0.0273
     52 H         -57.5719  -43.0884   15.2561 H         1 MOL     0.0273
     53 H         -53.2768  -45.6366   25.0330 H         1 MOL     0.0646
     54 H         -52.7965  -47.8715   24.0814 H         1 MOL     0.0621
     55 H         -52.5142  -51.8238   24.3735 H         1 MOL     0.1921
@<TRIPOS>BOND
     1    1   18 1 
     2    1   21 1 
     3    1   17 am
     4    2   20 1 
     5    2   22 am
     6    2   19 1 
     7    3    4 ar
     8    3   12 ar
     9    4   55 1 
    10    4    5 ar
    11    5    6 ar
    12    5   29 2 
    13    6    7 ar
    14    6   11 ar
    15    7    8 ar
    16    7   33 1 
    17    8    9 ar
    18    8   34 1 
    19    9   10 ar
    20    9   35 1 
    21   10   11 ar
    22   10   36 1 
    23   11   12 ar
    24   12   13 1 
    25   13   14 1 
    26   13   37 1 
    27   13   38 1 
    28   14   15 ar
    29   14   28 ar
    30   15   16 ar
    31   15   39 1 
    32   16   17 1 
    33   16   26 ar
    34   17   31 2 
    35   18   19 1 
    36   18   40 1 
    37   18   41 1 
    38   19   42 1 
    39   19   43 1 
    40   20   21 1 
    41   20   44 1 
    42   20   45 1 
    43   21   46 1 
    44   21   47 1 
    45   22   23 1 
    46   22   30 2 
    47   23   24 1 
    48   23   25 1 
    49   23   48 1 
    50   24   25 1 
    51   24   49 1 
    52   24   50 1 
    53   25   51 1 
    54   25   52 1 
    55   26   27 ar
    56   26   32 1 
    57   27   28 ar
    58   27   53 1 
    59   28   54 1 
@<TRIPOS>SUBSTRUCTURE
1 MOL         1
@<TRIPOS>MOLECULE
query molecule
   55    59     1     0     0
SMALL
NO_CHARGE

@<TRIPOS>ATOM
      1 N         -37.2816  -51.5227  -19.0509 N.am      1 MOL    -0.2945
      2 N         -35.1809  -49.5630  -19.0530 N.am      1 MOL    -0.2983
      3 N         -39.7058  -52.8901  -12.2484 N.ar      1 MOL    -0.1750
      4 N         -39.3719  -52.1789  -11.1762 N.ar      1 MOL    -0.2425
      5 C         -38.0702  -51.6546  -11.0281 C.ar      1 MOL     0.2725
      6 C         -37.1288  -51.9282  -12.0408 C.ar      1 MOL     0.0496
      7 C         -35.8311  -51.4271  -11.9533 C.ar      1 MOL     0.0138
      8 C         -34.9191  -51.6841  -12.9724 C.ar      1 MOL     0.0008
      9 C         -35.2846  -52.4507  -14.0756 C.ar      1 MOL     0.0007
     10 C         -36.5757  -52.9600  -14.1655 C.ar      1 MOL     0.0103
     11 C         -37.5243  -52.7027  -13.1648 C.ar      1 MOL     0.0106
     12 C         -38.8430  -53.1749  -13.2641 C.ar      1 MOL     0.0736
     13 C         -39.3157  -53.9617  -14.4485 C.3       1 MOL     0.0925
     14 C         -39.7368  -53.0598  -15.5609 C.ar      1 MOL    -0.0406
     15 C         -38.9272  -52.8984  -16.7007 C.ar      1 MOL     0.0196
     16 C         -39.3237  -52.0672  -17.7561 C.ar      1 MOL     0.0723
     17 C         -38.5635  -51.9256  -19.0150 C.2       1 MOL     0.2495
     18 C         -36.7406  -51.0385  -20.3266 C.3       1 MOL     0.1268
     19 C         -36.1150  -49.6180  -20.1634 C.3       1 MOL     0.1265
     20 C         -35.5802  -50.2226  -17.8094 C.3       1 MOL     0.1265
     21 C         -36.3224  -51.5723  -17.9763 C.3       1 MOL     0.1268
     22 C         -34.1304  -48.6888  -18.9655 C.2       1 MOL     0.2187
     23 C         -33.7801  -47.8407  -20.1247 C.3       1 MOL     0.0752
     24 C         -33.3440  -46.4890  -19.6473 C.3       1 MOL     0.0134
     25 C         -34.6465  -46.6611  -20.3674 C.3       1 MOL     0.0134
     26 C         -40.5386  -51.3690  -17.6318 C.ar      1 MOL     0.1355
     27 C         -41.3529  -51.5243  -16.5098 C.ar      1 MOL     0.0392
     28 C         -40.9558  -52.3747  -15.4766 C.ar      1 MOL     0.0066
     29 O         -37.8323  -50.9448  -10.0377 O.2       1 MOL    -0.2658
     30 O         -33.4001  -48.6556  -17.9607 O.2       1 MOL    -0.2753
     31 O         -39.2274  -52.1173  -20.0456 O.2       1 MOL    -0.2699
     32 F         -40.9451  -50.5300  -18.6173 F         1 MOL    -0.2047
     33 H         -35.5400  -50.8364  -11.0985 H         1 MOL     0.0625
     34 H         -33.9158  -51.2882  -12.9068 H         1 MOL     0.0618
     35 H         -34.5722  -52.6491  -14.8623 H         1 MOL     0.0618
     36 H         -36.8568  -53.5547  -15.0245 H         1 MOL     0.0624
     37 H         -40.1777  -54.5838  -14.1471 H         1 MOL     0.0377
     38 H         -38.4868  -54.6002  -14.8044 H         1 MOL     0.0377
     39 H         -37.9893  -53.4342  -16.7636 H         1 MOL     0.0629
     40 H         -37.5556  -51.0338  -21.0860 H         1 MOL     0.0480
     41 H         -35.9583  -51.7592  -20.6673 H         1 MOL     0.0480
     42 H         -36.9450  -48.9003  -19.9483 H         1 MOL     0.0480
     43 H         -35.6077  -49.2766  -21.0925 H         1 MOL     0.0480
     44 H         -36.2852  -49.5245  -17.2858 H         1 MOL     0.0480
     45 H         -34.6830  -50.3301  -17.1558 H         1 MOL     0.0480
     46 H         -36.8317  -51.8565  -17.0286 H         1 MOL     0.0480
     47 H         -35.5748  -52.3669  -18.2172 H         1 MOL     0.0480
     48 H         -33.2412  -48.3296  -20.8991 H         1 MOL     0.0394
     49 H         -32.5333  -46.0259  -20.1964 H         1 MOL     0.0273
     50 H         -33.4257  -46.2771  -18.5883 H         1 MOL     0.0273
     51 H         -34.6533  -46.2602  -21.3775 H         1 MOL     0.0273
     52 H         -35.5475  -46.5481  -19.7836 H         1 MOL     0.0273
     53 H         -42.2915  -50.9945  -16.4429 H         1 MOL     0.0646
     54 H         -41.5902  -52.5059  -14.6120 H         1 MOL     0.0621
     55 H         -40.0273  -51.9861  -10.4418 H         1 MOL     0.1921
@<TRIPOS>BOND
     1    1   18 1 
     2    1   21 1 
     3    1   17 am
     4    2   20 1 
     5    2   22 am
     6    2   19 1 
     7    3    4 ar
     8    3   12 ar
     9    4   55 1 
    10    4    5 ar
    11    5    6 ar
    12    5   29 2 
    13    6    7 ar
    14    6   11 ar
    15    7    8 ar
    16    7   33 1 
    17    8    9 ar
    18    8   34 1 
    19    9   10 ar
    20    9   35 1 
    21   10   11 ar
    22   10   36 1 
    23   11   12 ar
    24   12   13 1 
    25   13   14 1 
    26   13   37 1 
    27   13   38 1 
    28   14   15 ar
    29   14   28 ar
    30   15   16 ar
    31   15   39 1 
    32   16   17 1 
    33   16   26 ar
    34   17   31 2 
    35   18   19 1 
    36   18   40 1 
    37   18   41 1 
    38   19   42 1 
    39   19   43 1 
    40   20   21 1 
    41   20   44 1 
    42   20   45 1 
    43   21   46 1 
    44   21   47 1 
    45   22   23 1 
    46   22   30 2 
    47   23   24 1 
    48   23   25 1 
    49   23   48 1 
    50   24   25 1 
    51   24   49 1 
    52   24   50 1 
    53   25   51 1 
    54   25   52 1 
    55   26   27 ar
    56   26   32 1 
    57   27   28 ar
    58   27   53 1 
    59   28   54 1 
@<TRIPOS>SUBSTRUCTURE
1 MOL         1
@<TRIPOS>MOLECULE
query molecule
   55    59     1     0     0
SMALL
NO_CHARGE

@<TRIPOS>ATOM
      1 N         -21.1885  -72.7953   12.1700 N.am      1 MOL    -0.2945
      2 N         -19.2806  -73.5675   10.2054 N.am      1 MOL    -0.2983
      3 N         -29.3301  -72.4789   13.1245 N.ar      1 MOL    -0.1750
      4 N         -30.3301  -72.6492   13.9781 N.ar      1 MOL    -0.2425
      5 C         -30.0958  -72.6489   15.3707 C.ar      1 MOL     0.2725
      6 C         -28.7542  -72.5584   15.8134 C.ar      1 MOL     0.0496
      7 C         -28.4354  -72.6785   17.1716 C.ar      1 MOL     0.0138
      8 C         -27.1094  -72.5857   17.6018 C.ar      1 MOL     0.0008
      9 C         -26.0909  -72.3432   16.6838 C.ar      1 MOL     0.0007
     10 C         -26.4014  -72.2306   15.3355 C.ar      1 MOL     0.0103
     11 C         -27.7135  -72.3580   14.8504 C.ar      1 MOL     0.0106
     12 C         -28.0218  -72.3018   13.4791 C.ar      1 MOL     0.0736
     13 C         -27.0530  -72.0779   12.3563 C.3       1 MOL     0.0925
     14 C         -25.8558  -72.9557   12.4090 C.ar      1 MOL    -0.0406
     15 C         -24.5949  -72.3826   12.6509 C.ar      1 MOL     0.0196
     16 C         -23.4818  -73.2049   12.8348 C.ar      1 MOL     0.0723
     17 C         -22.1476  -72.6262   13.1140 C.2       1 MOL     0.2495
     18 C         -19.8007  -72.9706   12.5726 C.3       1 MOL     0.1268
     19 C         -18.9658  -73.8584   11.5943 C.3       1 MOL     0.1265
     20 C         -20.7018  -73.6462    9.8712 C.3       1 MOL     0.1265
     21 C         -21.5074  -72.6507   10.7523 C.3       1 MOL     0.1268
     22 C         -18.3863  -73.2818    9.2155 C.2       1 MOL     0.2187
     23 C         -16.9420  -73.2535    9.5676 C.3       1 MOL     0.0752
     24 C         -16.1138  -72.5416    8.5520 C.3       1 MOL     0.0134
     25 C         -16.1182  -74.0422    8.6082 C.3       1 MOL     0.0134
     26 C         -23.6212  -74.5928   12.7497 C.ar      1 MOL     0.1355
     27 C         -24.8564  -75.1641   12.4508 C.ar      1 MOL     0.0392
     28 C         -25.9749  -74.3440   12.2724 C.ar      1 MOL     0.0066
     29 O         -31.0853  -72.6992   16.1211 O.2       1 MOL    -0.2658
     30 O         -18.7434  -73.0301    8.0562 O.2       1 MOL    -0.2753
     31 O         -21.9450  -72.1484   14.2356 O.2       1 MOL    -0.2699
     32 F         -22.5513  -75.3965   12.9615 F         1 MOL    -0.2047
     33 H         -29.2196  -72.8560   17.8932 H         1 MOL     0.0625
     34 H         -26.8677  -72.6973   18.6482 H         1 MOL     0.0618
     35 H         -25.0671  -72.2462   17.0114 H         1 MOL     0.0618
     36 H         -25.5987  -72.0530   14.6282 H         1 MOL     0.0624
     37 H         -26.7179  -71.0248   12.3830 H         1 MOL     0.0377
     38 H         -27.5817  -72.2797   11.4013 H         1 MOL     0.0377
     39 H         -24.4946  -71.3099   12.7087 H         1 MOL     0.0629
     40 H         -19.7626  -73.3471   13.6191 H         1 MOL     0.0480
     41 H         -19.3331  -71.9508   12.5685 H         1 MOL     0.0480
     42 H         -19.2052  -74.9315   11.7893 H         1 MOL     0.0480
     43 H         -17.8751  -73.7140   11.7669 H         1 MOL     0.0480
     44 H         -21.0531  -74.6879   10.0660 H         1 MOL     0.0480
     45 H         -20.8397  -73.4321    8.7888 H         1 MOL     0.0480
     46 H         -22.6043  -72.7723   10.6069 H         1 MOL     0.0480
     47 H         -21.2353  -71.6105   10.4442 H         1 MOL     0.0480
     48 H         -16.7158  -73.2246   10.6024 H         1 MOL     0.0394
     49 H         -15.2182  -72.0468    8.9056 H         1 MOL     0.0273
     50 H         -16.6400  -72.0878    7.7198 H         1 MOL     0.0273
     51 H         -15.2225  -74.5107    8.9983 H         1 MOL     0.0273
     52 H         -16.6424  -74.5544    7.8110 H         1 MOL     0.0273
     53 H         -24.9473  -76.2350   12.3622 H         1 MOL     0.0646
     54 H         -26.9338  -74.7873   12.0428 H         1 MOL     0.0621
     55 H         -31.2765  -72.7941   13.6752 H         1 MOL     0.1921
@<TRIPOS>BOND
     1    1   18 1 
     2    1   21 1 
     3    1   17 am
     4    2   20 1 
     5    2   22 am
     6    2   19 1 
     7    3    4 ar
     8    3   12 ar
     9    4   55 1 
    10    4    5 ar
    11    5    6 ar
    12    5   29 2 
    13    6    7 ar
    14    6   11 ar
    15    7    8 ar
    16    7   33 1 
    17    8    9 ar
    18    8   34 1 
    19    9   10 ar
    20    9   35 1 
    21   10   11 ar
    22   10   36 1 
    23   11   12 ar
    24   12   13 1 
    25   13   14 1 
    26   13   37 1 
    27   13   38 1 
    28   14   15 ar
    29   14   28 ar
    30   15   16 ar
    31   15   39 1 
    32   16   17 1 
    33   16   26 ar
    34   17   31 2 
    35   18   19 1 
    36   18   40 1 
    37   18   41 1 
    38   19   42 1 
    39   19   43 1 
    40   20   21 1 
    41   20   44 1 
    42   20   45 1 
    43   21   46 1 
    44   21   47 1 
    45   22   23 1 
    46   22   30 2 
    47   23   24 1 
    48   23   25 1 
    49   23   48 1 
    50   24   25 1 
    51   24   49 1 
    52   24   50 1 
    53   25   51 1 
    54   25   52 1 
    55   26   27 ar
    56   26   32 1 
    57   27   28 ar
    58   27   53 1 
    59   28   54 1 
@<TRIPOS>SUBSTRUCTURE
1 MOL         1
@<TRIPOS>MOLECULE
query molecule
   55    59     1     0     0
SMALL
NO_CHARGE

@<TRIPOS>ATOM
      1 N         -42.6664  -61.5597    5.6412 N.am      1 MOL    -0.2945
      2 N         -40.2727  -60.0292    5.9022 N.am      1 MOL    -0.2983
      3 N         -47.1322  -61.7378   11.7689 N.ar      1 MOL    -0.1750
      4 N         -48.0377  -60.9363   12.3152 N.ar      1 MOL    -0.2425
      5 C         -47.9626  -59.5352   12.1503 C.ar      1 MOL     0.2725
      6 C         -46.8560  -59.0128   11.4444 C.ar      1 MOL     0.0496
      7 C         -46.7297  -57.6457   11.2173 C.ar      1 MOL     0.0138
      8 C         -45.6046  -57.1235   10.5776 C.ar      1 MOL     0.0008
      9 C         -44.5823  -57.9773   10.1761 C.ar      1 MOL     0.0007
     10 C         -44.7122  -59.3553   10.3539 C.ar      1 MOL     0.0103
     11 C         -45.8559  -59.8983   10.9562 C.ar      1 MOL     0.0106
     12 C         -46.0544  -61.2831   11.0647 C.ar      1 MOL     0.0736
     13 C         -45.1369  -62.2677   10.4055 C.3       1 MOL     0.0925
     14 C         -45.4840  -62.4338    8.9600 C.ar      1 MOL    -0.0406
     15 C         -44.4494  -62.4618    8.0166 C.ar      1 MOL     0.0196
     16 C         -44.7082  -62.5538    6.6393 C.ar      1 MOL     0.0723
     17 C         -43.6218  -62.5270    5.6226 C.2       1 MOL     0.2495
     18 C         -41.7996  -61.3834    4.4673 C.3       1 MOL     0.1268
     19 C         -40.3270  -60.9857    4.8158 C.3       1 MOL     0.1265
     20 C         -41.0144  -60.4265    7.0793 C.3       1 MOL     0.1265
     21 C         -42.5068  -60.5910    6.7134 C.3       1 MOL     0.1268
     22 C         -39.5169  -58.9061    5.9648 C.2       1 MOL     0.2187
     23 C         -38.8811  -58.4518    4.7120 C.3       1 MOL     0.0752
     24 C         -37.8707  -57.3873    4.8845 C.3       1 MOL     0.0134
     25 C         -39.2776  -57.0300    4.4853 C.3       1 MOL     0.0134
     26 C         -46.0447  -62.6748    6.2261 C.ar      1 MOL     0.1355
     27 C         -47.0890  -62.6669    7.1527 C.ar      1 MOL     0.0392
     28 C         -46.8068  -62.5451    8.5138 C.ar      1 MOL     0.0066
     29 O         -48.8696  -58.8402   12.6282 O.2       1 MOL    -0.2658
     30 O         -39.3567  -58.2618    7.0155 O.2       1 MOL    -0.2753
     31 O         -43.6857  -63.3830    4.7310 O.2       1 MOL    -0.2699
     32 F         -46.3522  -62.7947    4.9105 F         1 MOL    -0.2047
     33 H         -47.5117  -56.9758   11.5496 H         1 MOL     0.0625
     34 H         -45.5187  -56.0610   10.4138 H         1 MOL     0.0618
     35 H         -43.6917  -57.5708    9.7251 H         1 MOL     0.0618
     36 H         -43.9217  -60.0103   10.0148 H         1 MOL     0.0624
     37 H         -45.2299  -63.2416   10.9140 H         1 MOL     0.0377
     38 H         -44.1021  -61.8852   10.4769 H         1 MOL     0.0377
     39 H         -43.4241  -62.3915    8.3580 H         1 MOL     0.0629
     40 H         -42.2283  -60.5321    3.8736 H         1 MOL     0.0480
     41 H         -41.8414  -62.2908    3.8305 H         1 MOL     0.0480
     42 H         -39.7891  -60.5775    3.9327 H         1 MOL     0.0480
     43 H         -39.7836  -61.9048    5.1525 H         1 MOL     0.0480
     44 H         -40.8772  -59.6603    7.8755 H         1 MOL     0.0480
     45 H         -40.5985  -61.3912    7.4553 H         1 MOL     0.0480
     46 H         -42.9157  -59.6105    6.3738 H         1 MOL     0.0480
     47 H         -43.0980  -60.9239    7.5970 H         1 MOL     0.0480
     48 H         -38.8637  -59.1482    3.9164 H         1 MOL     0.0394
     49 H         -37.1178  -57.2972    4.1095 H         1 MOL     0.0273
     50 H         -37.5796  -57.1378    5.8961 H         1 MOL     0.0273
     51 H         -39.4413  -56.7289    3.4575 H         1 MOL     0.0273
     52 H         -39.8867  -56.5566    5.2455 H         1 MOL     0.0273
     53 H         -48.1117  -62.7530    6.8188 H         1 MOL     0.0646
     54 H         -47.6157  -62.5301    9.2307 H         1 MOL     0.0621
     55 H         -48.8076  -61.2837   12.8618 H         1 MOL     0.1921
@<TRIPOS>BOND
     1    1   18 1 
     2    1   21 1 
     3    1   17 am
     4    2   20 1 
     5    2   22 am
     6    2   19 1 
     7    3    4 ar
     8    3   12 ar
     9    4   55 1 
    10    4    5 ar
    11    5    6 ar
    12    5   29 2 
    13    6    7 ar
    14    6   11 ar
    15    7    8 ar
    16    7   33 1 
    17    8    9 ar
    18    8   34 1 
    19    9   10 ar
    20    9   35 1 
    21   10   11 ar
    22   10   36 1 
    23   11   12 ar
    24   12   13 1 
    25   13   14 1 
    26   13   37 1 
    27   13   38 1 
    28   14   15 ar
    29   14   28 ar
    30   15   16 ar
    31   15   39 1 
    32   16   17 1 
    33   16   26 ar
    34   17   31 2 
    35   18   19 1 
    36   18   40 1 
    37   18   41 1 
    38   19   42 1 
    39   19   43 1 
    40   20   21 1 
    41   20   44 1 
    42   20   45 1 
    43   21   46 1 
    44   21   47 1 
    45   22   23 1 
    46   22   30 2 
    47   23   24 1 
    48   23   25 1 
    49   23   48 1 
    50   24   25 1 
    51   24   49 1 
    52   24   50 1 
    53   25   51 1 
    54   25   52 1 
    55   26   27 ar
    56   26   32 1 
    57   27   28 ar
    58   27   53 1 
    59   28   54 1 
@<TRIPOS>SUBSTRUCTURE
1 MOL         1
@<TRIPOS>MOLECULE
query molecule
   55    59     1     0     0
SMALL
NO_CHARGE

@<TRIPOS>ATOM
      1 N         -13.5221  -43.5223   -7.7457 N.am      1 MOL    -0.2945
      2 N         -12.7966  -43.9435   -5.0330 N.am      1 MOL    -0.2983
      3 N          -8.3961  -42.9687   -8.3123 N.ar      1 MOL    -0.1750
      4 N          -7.8249  -42.5306   -7.1957 N.ar      1 MOL    -0.2425
      5 C          -7.0614  -41.3411   -7.1773 C.ar      1 MOL     0.2725
      6 C          -6.8012  -40.7119   -8.4162 C.ar      1 MOL     0.0496
      7 C          -5.9270  -39.6257   -8.5091 C.ar      1 MOL     0.0138
      8 C          -5.7010  -38.9956   -9.7312 C.ar      1 MOL     0.0008
      9 C          -6.3532  -39.4458  -10.8791 C.ar      1 MOL     0.0007
     10 C          -7.2119  -40.5439  -10.8091 C.ar      1 MOL     0.0103
     11 C          -7.4376  -41.2100   -9.5928 C.ar      1 MOL     0.0106
     12 C          -8.2658  -42.3452   -9.5183 C.ar      1 MOL     0.0736
     13 C          -8.9694  -42.8936  -10.7222 C.3       1 MOL     0.0925
     14 C         -10.4119  -42.5460  -10.7403 C.ar      1 MOL    -0.0406
     15 C         -11.3271  -43.2733   -9.9717 C.ar      1 MOL     0.0196
     16 C         -12.6863  -42.9274   -9.9709 C.ar      1 MOL     0.0723
     17 C         -13.6471  -43.6437   -9.0920 C.2       1 MOL     0.2495
     18 C         -14.4848  -44.1589   -6.8461 C.3       1 MOL     0.1268
     19 C         -13.7952  -44.8266   -5.6077 C.3       1 MOL     0.1265
     20 C         -11.8087  -43.4163   -5.9688 C.3       1 MOL     0.1265
     21 C         -12.5141  -42.6735   -7.1246 C.3       1 MOL     0.1268
     22 C         -12.7249  -43.5289   -3.7425 C.2       1 MOL     0.2187
     23 C         -13.6387  -44.1314   -2.7481 C.3       1 MOL     0.0752
     24 C         -13.0003  -44.3265   -1.4152 C.3       1 MOL     0.0134
     25 C         -13.2360  -45.5021   -2.3172 C.3       1 MOL     0.0134
     26 C         -13.1287  -41.8831  -10.7850 C.ar      1 MOL     0.1355
     27 C         -12.2255  -41.1598  -11.5657 C.ar      1 MOL     0.0392
     28 C         -10.8664  -41.4882  -11.5396 C.ar      1 MOL     0.0066
     29 O          -6.7150  -40.8874   -6.0711 O.2       1 MOL    -0.2658
     30 O         -11.9702  -42.6018   -3.4002 O.2       1 MOL    -0.2753
     31 O         -14.5479  -44.2882   -9.6396 O.2       1 MOL    -0.2699
     32 F         -14.4413  -41.5486  -10.8179 F         1 MOL    -0.2047
     33 H          -5.4208  -39.2728   -7.6222 H         1 MOL     0.0625
     34 H          -5.0243  -38.1567   -9.7902 H         1 MOL     0.0618
     35 H          -6.1919  -38.9461  -11.8235 H         1 MOL     0.0618
     36 H          -7.7062  -40.8886  -11.7079 H         1 MOL     0.0624
     37 H          -8.8725  -43.9942  -10.7227 H         1 MOL     0.0377
     38 H          -8.4995  -42.4658  -11.6283 H         1 MOL     0.0377
     39 H         -10.9816  -44.0966   -9.3633 H         1 MOL     0.0629
     40 H         -15.1052  -44.8844   -7.4166 H         1 MOL     0.0480
     41 H         -15.1671  -43.3557   -6.4668 H         1 MOL     0.0480
     42 H         -13.2855  -45.7649   -5.9338 H         1 MOL     0.0480
     43 H         -14.5445  -45.0951   -4.8291 H         1 MOL     0.0480
     44 H         -11.2233  -44.2770   -6.3762 H         1 MOL     0.0480
     45 H         -11.1052  -42.7496   -5.4241 H         1 MOL     0.0480
     46 H         -11.7805  -42.3521   -7.8967 H         1 MOL     0.0480
     47 H         -13.0180  -41.7660   -6.7204 H         1 MOL     0.0480
     48 H         -14.6597  -43.8572   -2.8423 H         1 MOL     0.0394
     49 H         -13.6539  -44.2438   -0.5533 H         1 MOL     0.0273
     50 H         -11.9714  -44.0164   -1.2913 H         1 MOL     0.0273
     51 H         -14.0398  -46.1725   -2.0306 H         1 MOL     0.0273
     52 H         -12.3587  -45.9449   -2.7691 H         1 MOL     0.0273
     53 H         -12.5773  -40.3478  -12.1850 H         1 MOL     0.0646
     54 H         -10.1685  -40.9239  -12.1407 H         1 MOL     0.0621
     55 H          -7.8927  -43.0302   -6.3202 H         1 MOL     0.1921
@<TRIPOS>BOND
     1    1   18 1 
     2    1   21 1 
     3    1   17 am
     4    2   20 1 
     5    2   22 am
     6    2   19 1 
     7    3    4 ar
     8    3   12 ar
     9    4   55 1 
    10    4    5 ar
    11    5    6 ar
    12    5   29 2 
    13    6    7 ar
    14    6   11 ar
    15    7    8 ar
    16    7   33 1 
    17    8    9 ar
    18    8   34 1 
    19    9   10 ar
    20    9   35 1 
    21   10   11 ar
    22   10   36 1 
    23   11   12 ar
    24   12   13 1 
    25   13   14 1 
    26   13   37 1 
    27   13   38 1 
    28   14   15 ar
    29   14   28 ar
    30   15   16 ar
    31   15   39 1 
    32   16   17 1 
    33   16   26 ar
    34   17   31 2 
    35   18   19 1 
    36   18   40 1 
    37   18   41 1 
    38   19   42 1 
    39   19   43 1 
    40   20   21 1 
    41   20   44 1 
    42   20   45 1 
    43   21   46 1 
    44   21   47 1 
    45   22   23 1 
    46   22   30 2 
    47   23   24 1 
    48   23   25 1 
    49   23   48 1 
    50   24   25 1 
    51   24   49 1 
    52   24   50 1 
    53   25   51 1 
    54   25   52 1 
    55   26   27 ar
    56   26   32 1 
    57   27   28 ar
    58   27   53 1 
    59   28   54 1 
@<TRIPOS>SUBSTRUCTURE
1 MOL         1
@<TRIPOS>MOLECULE
query molecule
   55    59     1     0     0
SMALL
NO_CHARGE

@<TRIPOS>ATOM
      1 N         -65.7619  -42.4844   -9.4568 N.am      1 MOL    -0.2945
      2 N         -64.8405  -45.1470   -9.1726 N.am      1 MOL    -0.2983
      3 N         -62.6322  -42.2285   -5.4969 N.ar      1 MOL    -0.1750
      4 N         -61.9735  -43.3463   -5.7746 N.ar      1 MOL    -0.2425
      5 C         -62.4309  -44.5737   -5.2645 C.ar      1 MOL     0.2725
      6 C         -63.5261  -44.5831   -4.3782 C.ar      1 MOL     0.0496
      7 C         -63.9789  -45.7678   -3.7941 C.ar      1 MOL     0.0138
      8 C         -65.0078  -45.7460   -2.8552 C.ar      1 MOL     0.0008
      9 C         -65.6141  -44.5387   -2.5081 C.ar      1 MOL     0.0007
     10 C         -65.2020  -43.3495   -3.1131 C.ar      1 MOL     0.0103
     11 C         -64.1589  -43.3455   -4.0522 C.ar      1 MOL     0.0106
     12 C         -63.7196  -42.1678   -4.6744 C.ar      1 MOL     0.0736
     13 C         -64.4056  -40.8486   -4.4792 C.3       1 MOL     0.0925
     14 C         -64.7609  -40.2686   -5.8074 C.ar      1 MOL    -0.0406
     15 C         -65.4489  -41.0320   -6.7631 C.ar      1 MOL     0.0196
     16 C         -65.7129  -40.5108   -8.0330 C.ar      1 MOL     0.0723
     17 C         -66.3853  -41.3609   -9.0378 C.2       1 MOL     0.2495
     18 C         -66.5561  -43.5718  -10.0156 C.3       1 MOL     0.1268
     19 C         -66.2695  -44.8664   -9.2024 C.3       1 MOL     0.1265
     20 C         -63.9587  -44.0487   -8.7583 C.3       1 MOL     0.1265
     21 C         -64.3219  -42.6953   -9.4414 C.3       1 MOL     0.1268
     22 C         -64.3179  -46.4034   -9.1779 C.2       1 MOL     0.2187
     23 C         -65.2232  -47.5728   -9.0926 C.3       1 MOL     0.0752
     24 C         -64.7799  -48.6297  -10.0471 C.3       1 MOL     0.0134
     25 C         -66.0550  -47.8827  -10.2769 C.3       1 MOL     0.0134
     26 C         -65.3360  -39.2057   -8.3326 C.ar      1 MOL     0.1355
     27 C         -64.6753  -38.4245   -7.3824 C.ar      1 MOL     0.0392
     28 C         -64.3852  -38.9555   -6.1194 C.ar      1 MOL     0.0066
     29 O         -61.8167  -45.6003   -5.6192 O.2       1 MOL    -0.2658
     30 O         -63.0904  -46.6005   -9.1472 O.2       1 MOL    -0.2753
     31 O         -67.5359  -41.0513   -9.3601 O.2       1 MOL    -0.2699
     32 F         -65.6021  -38.6852   -9.5539 F         1 MOL    -0.2047
     33 H         -63.5140  -46.7080   -4.0554 H         1 MOL     0.0625
     34 H         -65.3338  -46.6637   -2.3882 H         1 MOL     0.0618
     35 H         -66.4033  -44.5231   -1.7707 H         1 MOL     0.0618
     36 H         -65.6901  -42.4217   -2.8492 H         1 MOL     0.0624
     37 H         -63.7183  -40.1599   -3.9599 H         1 MOL     0.0377
     38 H         -65.3283  -41.0025   -3.8954 H         1 MOL     0.0377
     39 H         -65.7632  -42.0370   -6.5180 H         1 MOL     0.0629
     40 H         -66.2560  -43.7182  -11.0805 H         1 MOL     0.0480
     41 H         -67.6334  -43.3008   -9.9906 H         1 MOL     0.0480
     42 H         -66.8010  -45.7393   -9.6462 H         1 MOL     0.0480
     43 H         -66.6277  -44.7402   -8.1534 H         1 MOL     0.0480
     44 H         -62.8996  -44.3316   -8.9503 H         1 MOL     0.0480
     45 H         -64.0801  -43.9240   -7.6524 H         1 MOL     0.0480
     46 H         -63.9639  -42.7133  -10.4994 H         1 MOL     0.0480
     47 H         -63.8269  -41.8407   -8.9278 H         1 MOL     0.0480
     48 H         -65.4958  -47.8567   -8.1034 H         1 MOL     0.0394
     49 H         -64.8743  -49.6625   -9.7424 H         1 MOL     0.0273
     50 H         -63.9773  -48.3774  -10.7322 H         1 MOL     0.0273
     51 H         -66.9710  -48.4353  -10.0956 H         1 MOL     0.0273
     52 H         -66.0793  -47.1324  -11.0565 H         1 MOL     0.0273
     53 H         -64.3870  -37.4131   -7.6268 H         1 MOL     0.0646
     54 H         -63.8679  -38.3520   -5.3879 H         1 MOL     0.0621
     55 H         -61.1295  -43.3633   -6.3216 H         1 MOL     0.1921
@<TRIPOS>BOND
     1    1   18 1 
     2    1   21 1 
     3    1   17 am
     4    2   20 1 
     5    2   22 am
     6    2   19 1 
     7    3    4 ar
     8    3   12 ar
     9    4   55 1 
    10    4    5 ar
    11    5    6 ar
    12    5   29 2 
    13    6    7 ar
    14    6   11 ar
    15    7    8 ar
    16    7   33 1 
    17    8    9 ar
    18    8   34 1 
    19    9   10 ar
    20    9   35 1 
    21   10   11 ar
    22   10   36 1 
    23   11   12 ar
    24   12   13 1 
    25   13   14 1 
    26   13   37 1 
    27   13   38 1 
    28   14   15 ar
    29   14   28 ar
    30   15   16 ar
    31   15   39 1 
    32   16   17 1 
    33   16   26 ar
    34   17   31 2 
    35   18   19 1 
    36   18   40 1 
    37   18   41 1 
    38   19   42 1 
    39   19   43 1 
    40   20   21 1 
    41   20   44 1 
    42   20   45 1 
    43   21   46 1 
    44   21   47 1 
    45   22   23 1 
    46   22   30 2 
    47   23   24 1 
    48   23   25 1 
    49   23   48 1 
    50   24   25 1 
    51   24   49 1 
    52   24   50 1 
    53   25   51 1 
    54   25   52 1 
    55   26   27 ar
    56   26   32 1 
    57   27   28 ar
    58   27   53 1 
    59   28   54 1 
@<TRIPOS>SUBSTRUCTURE
1 MOL         1
@<TRIPOS>MOLECULE
query molecule
   55    59     1     0     0
SMALL
NO_CHARGE

@<TRIPOS>ATOM
      1 N         -10.4268  -70.2069   16.4723 N.am      1 MOL    -0.2945
      2 N          -8.1936  -68.9401   15.1425 N.am      1 MOL    -0.2983
      3 N         -12.1290  -65.4390   20.2157 N.ar      1 MOL    -0.1750
      4 N         -12.2853  -64.4277   19.3675 N.ar      1 MOL    -0.2425
      5 C         -11.3240  -64.1622   18.3690 C.ar      1 MOL     0.2725
      6 C         -10.1455  -64.9296   18.3453 C.ar      1 MOL     0.0496
      7 C          -9.1540  -64.6853   17.3923 C.ar      1 MOL     0.0138
      8 C          -7.9693  -65.4188   17.4120 C.ar      1 MOL     0.0008
      9 C          -7.7694  -66.3903   18.3932 C.ar      1 MOL     0.0007
     10 C          -8.7692  -66.6633   19.3282 C.ar      1 MOL     0.0103
     11 C          -9.9821  -65.9585   19.3099 C.ar      1 MOL     0.0106
     12 C         -11.0339  -66.2525   20.1980 C.ar      1 MOL     0.0736
     13 C         -10.9924  -67.4392   21.1105 C.3       1 MOL     0.0925
     14 C         -11.5473  -68.6680   20.4713 C.ar      1 MOL    -0.0406
     15 C         -11.2925  -68.9798   19.1338 C.ar      1 MOL     0.0196
     16 C         -11.8197  -70.1225   18.5202 C.ar      1 MOL     0.0723
     17 C         -11.6221  -70.4072   17.0756 C.2       1 MOL     0.2495
     18 C         -10.3447  -70.2124   15.0102 C.3       1 MOL     0.1268
     19 C          -9.4760  -69.0323   14.4639 C.3       1 MOL     0.1265
     20 C          -8.2502  -68.9947   16.6035 C.3       1 MOL     0.1265
     21 C          -9.1504  -70.1308   17.1606 C.3       1 MOL     0.1268
     22 C          -7.0764  -68.3779   14.5870 C.2       1 MOL     0.2187
     23 C          -7.1207  -67.9275   13.1700 C.3       1 MOL     0.0752
     24 C          -6.6111  -68.9701   12.2368 C.3       1 MOL     0.0134
     25 C          -5.7636  -67.7711   12.5576 C.3       1 MOL     0.0134
     26 C         -12.5857  -70.9889   19.3102 C.ar      1 MOL     0.1355
     27 C         -12.8515  -70.7065   20.6508 C.ar      1 MOL     0.0392
     28 C         -12.3371  -69.5423   21.2286 C.ar      1 MOL     0.0066
     29 O         -11.5798  -63.2828   17.5356 O.2       1 MOL    -0.2658
     30 O          -6.0435  -68.1778   15.2494 O.2       1 MOL    -0.2753
     31 O         -12.6300  -70.7842   16.4561 O.2       1 MOL    -0.2699
     32 F         -13.0816  -72.1297   18.7783 F         1 MOL    -0.2047
     33 H          -9.3029  -63.9222   16.6431 H         1 MOL     0.0625
     34 H          -7.2052  -65.2327   16.6724 H         1 MOL     0.0618
     35 H          -6.8419  -66.9440   18.4207 H         1 MOL     0.0618
     36 H          -8.6086  -67.4330   20.0709 H         1 MOL     0.0624
     37 H         -11.5933  -67.2126   22.0103 H         1 MOL     0.0377
     38 H          -9.9401  -67.6352   21.3870 H         1 MOL     0.0377
     39 H         -10.6829  -68.3080   18.5415 H         1 MOL     0.0629
     40 H         -11.3753  -70.1738   14.5878 H         1 MOL     0.0480
     41 H          -9.8826  -71.1792   14.6933 H         1 MOL     0.0480
     42 H         -10.0205  -68.0712   14.6400 H         1 MOL     0.0480
     43 H          -9.3077  -69.1305   13.3679 H         1 MOL     0.0480
     44 H          -8.6808  -68.0180   16.9464 H         1 MOL     0.0480
     45 H          -7.2143  -69.0598   17.0090 H         1 MOL     0.0480
     46 H          -9.3331  -69.9739   18.2494 H         1 MOL     0.0480
     47 H          -8.6326  -71.1124   17.0390 H         1 MOL     0.0480
     48 H          -7.9250  -67.2864   12.9129 H         1 MOL     0.0394
     49 H          -7.0367  -68.9954   11.2405 H         1 MOL     0.0273
     50 H          -6.2885  -69.9103   12.6660 H         1 MOL     0.0273
     51 H          -5.6602  -67.0207   11.7835 H         1 MOL     0.0273
     52 H          -4.9123  -67.9419   13.2050 H         1 MOL     0.0273
     53 H         -13.4503  -71.3844   21.2402 H         1 MOL     0.0646
     54 H         -12.5460  -69.3195   22.2648 H         1 MOL     0.0621
     55 H         -13.0807  -63.8130   19.4040 H         1 MOL     0.1921
@<TRIPOS>BOND
     1    1   18 1 
     2    1   21 1 
     3    1   17 am
     4    2   20 1 
     5    2   22 am
     6    2   19 1 
     7    3    4 ar
     8    3   12 ar
     9    4   55 1 
    10    4    5 ar
    11    5    6 ar
    12    5   29 2 
    13    6    7 ar
    14    6   11 ar
    15    7    8 ar
    16    7   33 1 
    17    8    9 ar
    18    8   34 1 
    19    9   10 ar
    20    9   35 1 
    21   10   11 ar
    22   10   36 1 
    23   11   12 ar
    24   12   13 1 
    25   13   14 1 
    26   13   37 1 
    27   13   38 1 
    28   14   15 ar
    29   14   28 ar
    30   15   16 ar
    31   15   39 1 
    32   16   17 1 
    33   16   26 ar
    34   17   31 2 
    35   18   19 1 
    36   18   40 1 
    37   18   41 1 
    38   19   42 1 
    39   19   43 1 
    40   20   21 1 
    41   20   44 1 
    42   20   45 1 
    43   21   46 1 
    44   21   47 1 
    45   22   23 1 
    46   22   30 2 
    47   23   24 1 
    48   23   25 1 
    49   23   48 1 
    50   24   25 1 
    51   24   49 1 
    52   24   50 1 
    53   25   51 1 
    54   25   52 1 
    55   26   27 ar
    56   26   32 1 
    57   27   28 ar
    58   27   53 1 
    59   28   54 1 
@<TRIPOS>SUBSTRUCTURE
1 MOL         1
@<TRIPOS>MOLECULE
query molecule
   55    59     1     0     0
SMALL
NO_CHARGE

@<TRIPOS>ATOM
      1 N         -56.5654  -67.2769   13.5455 N.am      1 MOL    -0.2945
      2 N         -58.6511  -66.2135   11.9199 N.am      1 MOL    -0.2983
      3 N         -54.2124  -72.6431   10.5280 N.ar      1 MOL    -0.1750
      4 N         -54.4259  -72.7164    9.2205 N.ar      1 MOL    -0.2425
      5 C         -55.7101  -72.4858    8.6871 C.ar      1 MOL     0.2725
      6 C         -56.7734  -72.2185    9.5742 C.ar      1 MOL     0.0496
      7 C         -58.0744  -72.0120    9.1067 C.ar      1 MOL     0.0138
      8 C         -59.1126  -71.7239    9.9903 C.ar      1 MOL     0.0008
      9 C         -58.8587  -71.6626   11.3593 C.ar      1 MOL     0.0007
     10 C         -57.5680  -71.8847   11.8422 C.ar      1 MOL     0.0103
     11 C         -56.5008  -72.1544   10.9716 C.ar      1 MOL     0.0106
     12 C         -55.1882  -72.3503   11.4362 C.ar      1 MOL     0.0736
     13 C         -54.8032  -72.2546   12.8799 C.3       1 MOL     0.0925
     14 C         -54.1942  -70.9322   13.1805 C.ar      1 MOL    -0.0406
     15 C         -55.0190  -69.8948   13.6224 C.ar      1 MOL     0.0196
     16 C         -54.5149  -68.6127   13.8647 C.ar      1 MOL     0.0723
     17 C         -55.4113  -67.4910   14.2274 C.2       1 MOL     0.2495
     18 C         -57.4731  -66.2636   14.0874 C.3       1 MOL     0.1268
     19 C         -58.0753  -65.3876   12.9631 C.3       1 MOL     0.1265
     20 C         -57.7067  -67.1333   11.2934 C.3       1 MOL     0.1265
     21 C         -57.0053  -68.0111   12.3679 C.3       1 MOL     0.1268
     22 C         -59.9513  -66.2110   11.5369 C.2       1 MOL     0.2187
     23 C         -60.9601  -65.5563   12.3997 C.3       1 MOL     0.0752
     24 C         -61.7740  -64.5849   11.6087 C.3       1 MOL     0.0134
     25 C         -60.8069  -64.1007   12.6414 C.3       1 MOL     0.0134
     26 C         -53.1361  -68.4091   13.7515 C.ar      1 MOL     0.1355
     27 C         -52.2939  -69.4384   13.3238 C.ar      1 MOL     0.0392
     28 C         -52.8253  -70.6987   13.0262 C.ar      1 MOL     0.0066
     29 O         -55.8317  -72.5117    7.4523 O.2       1 MOL    -0.2658
     30 O         -60.3498  -66.8400   10.5418 O.2       1 MOL    -0.2753
     31 O         -55.0480  -66.7848   15.1793 O.2       1 MOL    -0.2699
     32 F         -52.5965  -67.2015   14.0455 F         1 MOL    -0.2047
     33 H         -58.2766  -72.0651    8.0459 H         1 MOL     0.0625
     34 H         -60.1100  -71.5478    9.6165 H         1 MOL     0.0618
     35 H         -59.6612  -71.4411   12.0477 H         1 MOL     0.0618
     36 H         -57.3853  -71.8393   12.9074 H         1 MOL     0.0624
     37 H         -54.0639  -73.0447   13.1017 H         1 MOL     0.0377
     38 H         -55.7076  -72.3806   13.4999 H         1 MOL     0.0377
     39 H         -56.0759  -70.0847   13.7588 H         1 MOL     0.0629
     40 H         -56.9286  -65.6413   14.8321 H         1 MOL     0.0480
     41 H         -58.3073  -66.7862   14.6144 H         1 MOL     0.0480
     42 H         -57.2633  -64.7745   12.4980 H         1 MOL     0.0480
     43 H         -58.8508  -64.6908   13.3490 H         1 MOL     0.0480
     44 H         -56.9389  -66.5286   10.7508 H         1 MOL     0.0480
     45 H         -58.2369  -67.7614   10.5429 H         1 MOL     0.0480
     46 H         -56.1369  -68.5569   11.9313 H         1 MOL     0.0480
     47 H         -57.7437  -68.7812   12.7084 H         1 MOL     0.0480
     48 H         -61.4253  -66.2029   13.1059 H         1 MOL     0.0394
     49 H         -62.8250  -64.5185   11.8622 H         1 MOL     0.0273
     50 H         -61.4896  -64.4157   10.5789 H         1 MOL     0.0273
     51 H         -61.2299  -63.7291   13.5691 H         1 MOL     0.0273
     52 H         -59.8886  -63.6431   12.2977 H         1 MOL     0.0273
     53 H         -51.2343  -69.2584   13.2199 H         1 MOL     0.0646
     54 H         -52.1762  -71.4890   12.6789 H         1 MOL     0.0621
     55 H         -53.6939  -72.9377    8.5675 H         1 MOL     0.1921
@<TRIPOS>BOND
     1    1   18 1 
     2    1   21 1 
     3    1   17 am
     4    2   20 1 
     5    2   22 am
     6    2   19 1 
     7    3    4 ar
     8    3   12 ar
     9    4   55 1 
    10    4    5 ar
    11    5    6 ar
    12    5   29 2 
    13    6    7 ar
    14    6   11 ar
    15    7    8 ar
    16    7   33 1 
    17    8    9 ar
    18    8   34 1 
    19    9   10 ar
    20    9   35 1 
    21   10   11 ar
    22   10   36 1 
    23   11   12 ar
    24   12   13 1 
    25   13   14 1 
    26   13   37 1 
    27   13   38 1 
    28   14   15 ar
    29   14   28 ar
    30   15   16 ar
    31   15   39 1 
    32   16   17 1 
    33   16   26 ar
    34   17   31 2 
    35   18   19 1 
    36   18   40 1 
    37   18   41 1 
    38   19   42 1 
    39   19   43 1 
    40   20   21 1 
    41   20   44 1 
    42   20   45 1 
    43   21   46 1 
    44   21   47 1 
    45   22   23 1 
    46   22   30 2 
    47   23   24 1 
    48   23   25 1 
    49   23   48 1 
    50   24   25 1 
    51   24   49 1 
    52   24   50 1 
    53   25   51 1 
    54   25   52 1 
    55   26   27 ar
    56   26   32 1 
    57   27   28 ar
    58   27   53 1 
    59   28   54 1 
@<TRIPOS>SUBSTRUCTURE
1 MOL         1
@<TRIPOS>MOLECULE
query molecule
   55    59     1     0     0
SMALL
NO_CHARGE

@<TRIPOS>ATOM
      1 N         -64.5845  -57.5597  -21.2532 N.am      1 MOL    -0.2945
      2 N         -66.0737  -57.6056  -18.8281 N.am      1 MOL    -0.2983
      3 N         -61.7760  -61.1896  -19.0998 N.ar      1 MOL    -0.1750
      4 N         -61.4057  -61.0847  -17.8254 N.ar      1 MOL    -0.2425
      5 C         -60.2706  -61.7763  -17.3419 C.ar      1 MOL     0.2725
      6 C         -59.5361  -62.5712  -18.2487 C.ar      1 MOL     0.0496
      7 C         -58.4091  -63.2837  -17.8308 C.ar      1 MOL     0.0138
      8 C         -57.6759  -64.0453  -18.7415 C.ar      1 MOL     0.0008
      9 C         -58.0661  -64.1002  -20.0790 C.ar      1 MOL     0.0007
     10 C         -59.1965  -63.4027  -20.5048 C.ar      1 MOL     0.0103
     11 C         -59.9548  -62.6339  -19.6074 C.ar      1 MOL     0.0106
     12 C         -61.1090  -61.9428  -20.0224 C.ar      1 MOL     0.0736
     13 C         -61.6073  -62.0518  -21.4334 C.3       1 MOL     0.0925
     14 C         -61.6604  -60.7395  -22.1160 C.ar      1 MOL    -0.0406
     15 C         -62.8364  -59.9874  -22.0634 C.ar      1 MOL     0.0196
     16 C         -62.9012  -58.7073  -22.6301 C.ar      1 MOL     0.0723
     17 C         -64.1232  -57.8760  -22.4894 C.2       1 MOL     0.2495
     18 C         -65.7028  -56.6296  -21.1004 C.3       1 MOL     0.1268
     19 C         -66.7310  -57.1154  -20.0270 C.3       1 MOL     0.1265
     20 C         -65.0165  -58.5904  -19.0359 C.3       1 MOL     0.1265
     21 C         -63.9665  -58.0206  -20.0213 C.3       1 MOL     0.1268
     22 C         -66.3840  -57.2623  -17.5525 C.2       1 MOL     0.2187
     23 C         -67.3628  -56.1714  -17.3319 C.3       1 MOL     0.0752
     24 C         -68.0533  -56.3460  -16.0198 C.3       1 MOL     0.0134
     25 C         -68.7779  -56.6255  -17.3031 C.3       1 MOL     0.0134
     26 C         -61.7874  -58.2206  -23.3193 C.ar      1 MOL     0.1355
     27 C         -60.6208  -58.9837  -23.4177 C.ar      1 MOL     0.0392
     28 C         -60.5537  -60.2428  -22.8097 C.ar      1 MOL     0.0066
     29 O         -59.9569  -61.6307  -16.1493 O.2       1 MOL    -0.2658
     30 O         -65.8215  -57.7793  -16.5725 O.2       1 MOL    -0.2753
     31 O         -64.6519  -57.4715  -23.5323 O.2       1 MOL    -0.2699
     32 F         -61.8194  -56.9946  -23.8941 F         1 MOL    -0.2047
     33 H         -58.0972  -63.2409  -16.7974 H         1 MOL     0.0625
     34 H         -56.8022  -64.5901  -18.4134 H         1 MOL     0.0618
     35 H         -57.4962  -64.6855  -20.7857 H         1 MOL     0.0618
     36 H         -59.4966  -63.4592  -21.5424 H         1 MOL     0.0624
     37 H         -62.6263  -62.4812  -21.4143 H         1 MOL     0.0377
     38 H         -60.9230  -62.7138  -21.9963 H         1 MOL     0.0377
     39 H         -63.7021  -60.3943  -21.5599 H         1 MOL     0.0629
     40 H         -66.1907  -56.4742  -22.0897 H         1 MOL     0.0480
     41 H         -65.2821  -55.6466  -20.7726 H         1 MOL     0.0480
     42 H         -67.3158  -57.9643  -20.4612 H         1 MOL     0.0480
     43 H         -67.4467  -56.3080  -19.7574 H         1 MOL     0.0480
     44 H         -65.4679  -59.5167  -19.4587 H         1 MOL     0.0480
     45 H         -64.5470  -58.8429  -18.0588 H         1 MOL     0.0480
     46 H         -63.2022  -58.7918  -20.2684 H         1 MOL     0.0480
     47 H         -63.4373  -57.1532  -19.5538 H         1 MOL     0.0480
     48 H         -67.0815  -55.2158  -17.6912 H         1 MOL     0.0394
     49 H         -68.3109  -55.4450  -15.4808 H         1 MOL     0.0273
     50 H         -67.7467  -57.2085  -15.4374 H         1 MOL     0.0273
     51 H         -69.5428  -55.9014  -17.5629 H         1 MOL     0.0273
     52 H         -68.9729  -57.6611  -17.5480 H         1 MOL     0.0273
     53 H         -59.7684  -58.5976  -23.9564 H         1 MOL     0.0646
     54 H         -59.6478  -60.8283  -22.8713 H         1 MOL     0.0621
     55 H         -61.9037  -60.5162  -17.1629 H         1 MOL     0.1921
@<TRIPOS>BOND
     1    1   18 1 
     2    1   21 1 
     3    1   17 am
     4    2   20 1 
     5    2   22 am
     6    2   19 1 
     7    3    4 ar
     8    3   12 ar
     9    4   55 1 
    10    4    5 ar
    11    5    6 ar
    12    5   29 2 
    13    6    7 ar
    14    6   11 ar
    15    7    8 ar
    16    7   33 1 
    17    8    9 ar
    18    8   34 1 
    19    9   10 ar
    20    9   35 1 
    21   10   11 ar
    22   10   36 1 
    23   11   12 ar
    24   12   13 1 
    25   13   14 1 
    26   13   37 1 
    27   13   38 1 
    28   14   15 ar
    29   14   28 ar
    30   15   16 ar
    31   15   39 1 
    32   16   17 1 
    33   16   26 ar
    34   17   31 2 
    35   18   19 1 
    36   18   40 1 
    37   18   41 1 
    38   19   42 1 
    39   19   43 1 
    40   20   21 1 
    41   20   44 1 
    42   20   45 1 
    43   21   46 1 
    44   21   47 1 
    45   22   23 1 
    46   22   30 2 
    47   23   24 1 
    48   23   25 1 
    49   23   48 1 
    50   24   25 1 
    51   24   49 1 
    52   24   50 1 
    53   25   51 1 
    54   25   52 1 
    55   26   27 ar
    56   26   32 1 
    57   27   28 ar
    58   27   53 1 
    59   28   54 1 
@<TRIPOS>SUBSTRUCTURE
1 MOL         1
@<TRIPOS>MOLECULE
query molecule
   55    59     1     0     0
SMALL
NO_CHARGE

@<TRIPOS>ATOM
      1 N         -41.9162  -24.6493    1.2690 N.am      1 MOL    -0.2945
      2 N         -40.4594  -25.1295    3.6576 N.am      1 MOL    -0.2983
      3 N         -40.0598  -25.3398   -3.2416 N.ar      1 MOL    -0.1750
      4 N         -39.0439  -26.1798   -3.0815 N.ar      1 MOL    -0.2425
      5 C         -37.7816  -25.8940   -3.6489 C.ar      1 MOL     0.2725
      6 C         -37.6363  -24.6981   -4.3856 C.ar      1 MOL     0.0496
      7 C         -36.4319  -24.3705   -5.0084 C.ar      1 MOL     0.0138
      8 C         -36.2991  -23.1722   -5.7100 C.ar      1 MOL     0.0008
      9 C         -37.3707  -22.2861   -5.7989 C.ar      1 MOL     0.0007
     10 C         -38.5859  -22.6069   -5.1981 C.ar      1 MOL     0.0103
     11 C         -38.7452  -23.8115   -4.4954 C.ar      1 MOL     0.0106
     12 C         -39.9718  -24.1521   -3.9064 C.ar      1 MOL     0.0736
     13 C         -41.1623  -23.2433   -4.0013 C.3       1 MOL     0.0925
     14 C         -41.4519  -22.6373   -2.6788 C.ar      1 MOL    -0.0406
     15 C         -41.9844  -23.4404   -1.6673 C.ar      1 MOL     0.0196
     16 C         -42.2323  -22.9088   -0.4028 C.ar      1 MOL     0.0723
     17 C         -42.7611  -23.8142    0.6324 C.2       1 MOL     0.2495
     18 C         -42.4374  -25.6465    2.1936 C.3       1 MOL     0.1268
     19 C         -41.9056  -25.3393    3.6242 C.3       1 MOL     0.1265
     20 C         -39.8556  -24.3309    2.5768 C.3       1 MOL     0.1265
     21 C         -40.4675  -24.6240    1.1720 C.3       1 MOL     0.1268
     22 C         -39.7223  -25.2206    4.8092 C.2       1 MOL     0.2187
     23 C         -40.4132  -25.4150    6.1036 C.3       1 MOL     0.0752
     24 C         -39.7064  -26.4576    6.9155 C.3       1 MOL     0.0134
     25 C         -41.0598  -26.7252    6.3380 C.3       1 MOL     0.0134
     26 C         -41.9755  -21.5663   -0.1519 C.ar      1 MOL     0.1355
     27 C         -41.4603  -20.7479   -1.1607 C.ar      1 MOL     0.0392
     28 C         -41.1935  -21.2857   -2.4274 C.ar      1 MOL     0.0066
     29 O         -36.8632  -26.7075   -3.4580 O.2       1 MOL    -0.2658
     30 O         -38.4921  -25.0391    4.8254 O.2       1 MOL    -0.2753
     31 O         -43.9767  -23.7670    0.8449 O.2       1 MOL    -0.2699
     32 F         -42.2136  -21.0423    1.0744 F         1 MOL    -0.2047
     33 H         -35.5929  -25.0479   -4.9406 H         1 MOL     0.0625
     34 H         -35.3604  -22.9260   -6.1846 H         1 MOL     0.0618
     35 H         -37.2630  -21.3545   -6.3343 H         1 MOL     0.0618
     36 H         -39.4178  -21.9197   -5.2773 H         1 MOL     0.0624
     37 H         -42.0395  -23.8299   -4.3239 H         1 MOL     0.0377
     38 H         -40.9432  -22.4374   -4.7231 H         1 MOL     0.0377
     39 H         -42.1970  -24.4806   -1.8669 H         1 MOL     0.0629
     40 H         -42.0907  -26.6522    1.8541 H         1 MOL     0.0480
     41 H         -43.5493  -25.6383    2.1609 H         1 MOL     0.0480
     42 H         -42.1684  -26.1661    4.3247 H         1 MOL     0.0480
     43 H         -42.4024  -24.4086    3.9909 H         1 MOL     0.0480
     44 H         -38.7522  -24.4742    2.5804 H         1 MOL     0.0480
     45 H         -40.0574  -23.2531    2.8055 H         1 MOL     0.0480
     46 H         -40.1241  -25.6198    0.8026 H         1 MOL     0.0480
     47 H         -40.1579  -23.8554    0.4285 H         1 MOL     0.0480
     48 H         -40.7592  -24.5202    6.5635 H         1 MOL     0.0394
     49 H         -39.6444  -26.2671    7.9796 H         1 MOL     0.0273
     50 H         -38.8767  -26.9707    6.4459 H         1 MOL     0.0273
     51 H         -41.8894  -26.7155    7.0388 H         1 MOL     0.0273
     52 H         -41.1265  -27.3997    5.4968 H         1 MOL     0.0273
     53 H         -41.2632  -19.7049   -0.9627 H         1 MOL     0.0646
     54 H         -40.7916  -20.6553   -3.2070 H         1 MOL     0.0621
     55 H         -39.1266  -27.0332   -2.5591 H         1 MOL     0.1921
@<TRIPOS>BOND
     1    1   18 1 
     2    1   21 1 
     3    1   17 am
     4    2   20 1 
     5    2   22 am
     6    2   19 1 
     7    3    4 ar
     8    3   12 ar
     9    4   55 1 
    10    4    5 ar
    11    5    6 ar
    12    5   29 2 
    13    6    7 ar
    14    6   11 ar
    15    7    8 ar
    16    7   33 1 
    17    8    9 ar
    18    8   34 1 
    19    9   10 ar
    20    9   35 1 
    21   10   11 ar
    22   10   36 1 
    23   11   12 ar
    24   12   13 1 
    25   13   14 1 
    26   13   37 1 
    27   13   38 1 
    28   14   15 ar
    29   14   28 ar
    30   15   16 ar
    31   15   39 1 
    32   16   17 1 
    33   16   26 ar
    34   17   31 2 
    35   18   19 1 
    36   18   40 1 
    37   18   41 1 
    38   19   42 1 
    39   19   43 1 
    40   20   21 1 
    41   20   44 1 
    42   20   45 1 
    43   21   46 1 
    44   21   47 1 
    45   22   23 1 
    46   22   30 2 
    47   23   24 1 
    48   23   25 1 
    49   23   48 1 
    50   24   25 1 
    51   24   49 1 
    52   24   50 1 
    53   25   51 1 
    54   25   52 1 
    55   26   27 ar
    56   26   32 1 
    57   27   28 ar
    58   27   53 1 
    59   28   54 1 
@<TRIPOS>SUBSTRUCTURE
1 MOL         1
@<TRIPOS>MOLECULE
query molecule
   55    59     1     0     0
SMALL
NO_CHARGE

@<TRIPOS>ATOM
      1 N         -67.1961  -51.7038   15.4423 N.am      1 MOL    -0.2945
      2 N         -66.0825  -49.1624   16.1912 N.am      1 MOL    -0.2983
      3 N         -66.7854  -57.9071   18.1242 N.ar      1 MOL    -0.1750
      4 N         -66.0695  -58.9817   17.8201 N.ar      1 MOL    -0.2425
      5 C         -64.7450  -59.1296   18.2902 C.ar      1 MOL     0.2725
      6 C         -64.2181  -58.1160   19.1219 C.ar      1 MOL     0.0496
      7 C         -62.9230  -58.2121   19.6295 C.ar      1 MOL     0.0138
      8 C         -62.4229  -57.2286   20.4835 C.ar      1 MOL     0.0008
      9 C         -63.2231  -56.1484   20.8373 C.ar      1 MOL     0.0007
     10 C         -64.5139  -56.0283   20.3179 C.ar      1 MOL     0.0103
     11 C         -65.0354  -56.9947   19.4467 C.ar      1 MOL     0.0106
     12 C         -66.3321  -56.8872   18.9074 C.ar      1 MOL     0.0736
     13 C         -67.1953  -55.7096   19.2137 C.3       1 MOL     0.0925
     14 C         -68.0199  -55.2344   18.0750 C.ar      1 MOL    -0.0406
     15 C         -67.5083  -54.3401   17.1191 C.ar      1 MOL     0.0196
     16 C         -68.3212  -53.8246   16.0979 C.ar      1 MOL     0.0723
     17 C         -67.8489  -52.8433   15.0881 C.2       1 MOL     0.2495
     18 C         -67.1359  -50.6064   14.4698 C.3       1 MOL     0.1268
     19 C         -67.0711  -49.1890   15.1307 C.3       1 MOL     0.1265
     20 C         -66.3364  -50.1508   17.2345 C.3       1 MOL     0.1265
     21 C         -66.4172  -51.5759   16.6565 C.3       1 MOL     0.1268
     22 C         -65.1071  -48.2287   16.3764 C.2       1 MOL     0.2187
     23 C         -65.1549  -46.9769   15.5824 C.3       1 MOL     0.0752
     24 C         -64.8744  -47.1273   14.1336 C.3       1 MOL     0.0134
     25 C         -63.7967  -46.6398   15.0525 C.3       1 MOL     0.0134
     26 C         -69.6557  -54.2685   16.0308 C.ar      1 MOL     0.1355
     27 C         -70.1663  -55.1781   16.9580 C.ar      1 MOL     0.0392
     28 C         -69.3433  -55.6536   17.9837 C.ar      1 MOL     0.0066
     29 O         -64.1128  -60.1403   17.9520 O.2       1 MOL    -0.2658
     30 O         -64.2204  -48.3413   17.2307 O.2       1 MOL    -0.2753
     31 O         -68.1755  -53.0756   13.9149 O.2       1 MOL    -0.2699
     32 F         -70.4881  -53.8106   15.0633 F         1 MOL    -0.2047
     33 H         -62.3004  -59.0541   19.3648 H         1 MOL     0.0625
     34 H         -61.4183  -57.3041   20.8713 H         1 MOL     0.0618
     35 H         -62.8451  -55.3931   21.5128 H         1 MOL     0.0618
     36 H         -65.1215  -55.1778   20.5930 H         1 MOL     0.0624
     37 H         -66.5482  -54.8798   19.5483 H         1 MOL     0.0377
     38 H         -67.8893  -55.9997   20.0308 H         1 MOL     0.0377
     39 H         -66.4763  -54.0368   17.1817 H         1 MOL     0.0629
     40 H         -67.9978  -50.6864   13.7680 H         1 MOL     0.0480
     41 H         -66.2010  -50.7463   13.8685 H         1 MOL     0.0480
     42 H         -68.0660  -48.9231   15.5610 H         1 MOL     0.0480
     43 H         -66.8093  -48.4147   14.3703 H         1 MOL     0.0480
     44 H         -67.3067  -49.8958   17.7267 H         1 MOL     0.0480
     45 H         -65.5348  -50.0875   18.0045 H         1 MOL     0.0480
     46 H         -66.8098  -52.2937   17.4150 H         1 MOL     0.0480
     47 H         -65.3712  -51.8929   16.4085 H         1 MOL     0.0480
     48 H         -65.7883  -46.2187   15.9710 H         1 MOL     0.0394
     49 H         -65.3200  -46.3841   13.4802 H         1 MOL     0.0273
     50 H         -64.7889  -48.1357   13.7595 H         1 MOL     0.0273
     51 H         -63.5425  -45.5880   14.9789 H         1 MOL     0.0273
     52 H         -62.9945  -47.3388   15.2530 H         1 MOL     0.0273
     53 H         -71.1935  -55.5062   16.8895 H         1 MOL     0.0646
     54 H         -69.7470  -56.3506   18.7112 H         1 MOL     0.0621
     55 H         -66.4311  -59.7323   17.2561 H         1 MOL     0.1921
@<TRIPOS>BOND
     1    1   18 1 
     2    1   21 1 
     3    1   17 am
     4    2   20 1 
     5    2   22 am
     6    2   19 1 
     7    3    4 ar
     8    3   12 ar
     9    4   55 1 
    10    4    5 ar
    11    5    6 ar
    12    5   29 2 
    13    6    7 ar
    14    6   11 ar
    15    7    8 ar
    16    7   33 1 
    17    8    9 ar
    18    8   34 1 
    19    9   10 ar
    20    9   35 1 
    21   10   11 ar
    22   10   36 1 
    23   11   12 ar
    24   12   13 1 
    25   13   14 1 
    26   13   37 1 
    27   13   38 1 
    28   14   15 ar
    29   14   28 ar
    30   15   16 ar
    31   15   39 1 
    32   16   17 1 
    33   16   26 ar
    34   17   31 2 
    35   18   19 1 
    36   18   40 1 
    37   18   41 1 
    38   19   42 1 
    39   19   43 1 
    40   20   21 1 
    41   20   44 1 
    42   20   45 1 
    43   21   46 1 
    44   21   47 1 
    45   22   23 1 
    46   22   30 2 
    47   23   24 1 
    48   23   25 1 
    49   23   48 1 
    50   24   25 1 
    51   24   49 1 
    52   24   50 1 
    53   25   51 1 
    54   25   52 1 
    55   26   27 ar
    56   26   32 1 
    57   27   28 ar
    58   27   53 1 
    59   28   54 1 
@<TRIPOS>SUBSTRUCTURE
1 MOL         1
@<TRIPOS>MOLECULE
query molecule
   55    59     1     0     0
SMALL
NO_CHARGE

@<TRIPOS>ATOM
      1 N         -28.2760  -38.1592  -19.5111 N.am      1 MOL    -0.2945
      2 N         -27.5976  -40.2507  -17.6906 N.am      1 MOL    -0.2983
      3 N         -28.5456  -32.8539  -16.3926 N.ar      1 MOL    -0.1750
      4 N         -28.4561  -32.8175  -15.0658 N.ar      1 MOL    -0.2425
      5 C         -29.4687  -32.2210  -14.2873 C.ar      1 MOL     0.2725
      6 C         -30.5896  -31.6873  -14.9640 C.ar      1 MOL     0.0496
      7 C         -31.6245  -31.0630  -14.2564 C.ar      1 MOL     0.0138
      8 C         -32.7467  -30.5834  -14.9315 C.ar      1 MOL     0.0008
      9 C         -32.8370  -30.7076  -16.3181 C.ar      1 MOL     0.0007
     10 C         -31.8017  -31.3025  -17.0374 C.ar      1 MOL     0.0103
     11 C         -30.6606  -31.7952  -16.3866 C.ar      1 MOL     0.0106
     12 C         -29.6010  -32.3732  -17.1095 C.ar      1 MOL     0.0736
     13 C         -29.5801  -32.4362  -18.6032 C.3       1 MOL     0.0925
     14 C         -29.9674  -33.7452  -19.1800 C.ar      1 MOL    -0.0406
     15 C         -29.0046  -34.7363  -19.4062 C.ar      1 MOL     0.0196
     16 C         -29.3626  -35.9857  -19.9428 C.ar      1 MOL     0.0723
     17 C         -28.2985  -36.9794  -20.1631 C.2       1 MOL     0.2495
     18 C         -27.1558  -39.0586  -19.8041 C.3       1 MOL     0.1268
     19 C         -26.5482  -39.6608  -18.5086 C.3       1 MOL     0.1265
     20 C         -28.6730  -39.3401  -17.3146 C.3       1 MOL     0.1265
     21 C         -29.2867  -38.6598  -18.5915 C.3       1 MOL     0.1268
     22 C         -27.5526  -41.5251  -17.2289 C.2       1 MOL     0.2187
     23 C         -26.7710  -42.5196  -18.0135 C.3       1 MOL     0.0752
     24 C         -27.6360  -43.1092  -19.0848 C.3       1 MOL     0.0134
     25 C         -27.2651  -43.9142  -17.8774 C.3       1 MOL     0.0134
     26 C         -30.6909  -36.2223  -20.2827 C.ar      1 MOL     0.1355
     27 C         -31.6605  -35.2372  -20.0863 C.ar      1 MOL     0.0392
     28 C         -31.2990  -34.0016  -19.5322 C.ar      1 MOL     0.0066
     29 O         -29.3227  -32.2088  -13.0494 O.2       1 MOL    -0.2658
     30 O         -28.1358  -41.8811  -16.1918 O.2       1 MOL    -0.2753
     31 O         -27.4218  -36.6232  -20.9625 O.2       1 MOL    -0.2699
     32 F         -31.0477  -37.4098  -20.8234 F         1 MOL    -0.2047
     33 H         -31.5616  -30.9652  -13.1824 H         1 MOL     0.0625
     34 H         -33.5496  -30.1155  -14.3805 H         1 MOL     0.0618
     35 H         -33.7084  -30.3373  -16.8383 H         1 MOL     0.0618
     36 H         -31.8747  -31.3816  -18.1133 H         1 MOL     0.0624
     37 H         -28.5499  -32.2050  -18.9404 H         1 MOL     0.0377
     38 H         -30.2806  -31.6689  -18.9869 H         1 MOL     0.0377
     39 H         -27.9704  -34.5428  -19.1574 H         1 MOL     0.0629
     40 H         -26.3907  -38.5066  -20.3952 H         1 MOL     0.0480
     41 H         -27.5390  -39.8961  -20.4362 H         1 MOL     0.0480
     42 H         -26.0644  -38.8423  -17.9194 H         1 MOL     0.0480
     43 H         -25.7728  -40.4234  -18.7327 H         1 MOL     0.0480
     44 H         -28.2511  -38.5502  -16.6464 H         1 MOL     0.0480
     45 H         -29.4481  -39.8941  -16.7407 H         1 MOL     0.0480
     46 H         -29.9768  -37.8284  -18.3195 H         1 MOL     0.0480
     47 H         -29.8866  -39.4304  -19.1385 H         1 MOL     0.0480
     48 H         -25.7605  -42.2794  -18.2189 H         1 MOL     0.0394
     49 H         -27.1662  -43.4336  -20.0053 H         1 MOL     0.0273
     50 H         -28.6674  -42.7807  -19.1379 H         1 MOL     0.0273
     51 H         -26.5515  -44.7170  -17.9984 H         1 MOL     0.0273
     52 H         -28.0374  -44.0528  -17.1259 H         1 MOL     0.0273
     53 H         -32.6881  -35.4265  -20.3600 H         1 MOL     0.0646
     54 H         -32.0521  -33.2423  -19.3768 H         1 MOL     0.0621
     55 H         -27.6740  -33.2067  -14.5669 H         1 MOL     0.1921
@<TRIPOS>BOND
     1    1   18 1 
     2    1   21 1 
     3    1   17 am
     4    2   20 1 
     5    2   22 am
     6    2   19 1 
     7    3    4 ar
     8    3   12 ar
     9    4   55 1 
    10    4    5 ar
    11    5    6 ar
    12    5   29 2 
    13    6    7 ar
    14    6   11 ar
    15    7    8 ar
    16    7   33 1 
    17    8    9 ar
    18    8   34 1 
    19    9   10 ar
    20    9   35 1 
    21   10   11 ar
    22   10   36 1 
    23   11   12 ar
    24   12   13 1 
    25   13   14 1 
    26   13   37 1 
    27   13   38 1 
    28   14   15 ar
    29   14   28 ar
    30   15   16 ar
    31   15   39 1 
    32   16   17 1 
    33   16   26 ar
    34   17   31 2 
    35   18   19 1 
    36   18   40 1 
    37   18   41 1 
    38   19   42 1 
    39   19   43 1 
    40   20   21 1 
    41   20   44 1 
    42   20   45 1 
    43   21   46 1 
    44   21   47 1 
    45   22   23 1 
    46   22   30 2 
    47   23   24 1 
    48   23   25 1 
    49   23   48 1 
    50   24   25 1 
    51   24   49 1 
    52   24   50 1 
    53   25   51 1 
    54   25   52 1 
    55   26   27 ar
    56   26   32 1 
    57   27   28 ar
    58   27   53 1 
    59   28   54 1 
@<TRIPOS>SUBSTRUCTURE
1 MOL         1
@<TRIPOS>MOLECULE
query molecule
   55    59     1     0     0
SMALL
NO_CHARGE

@<TRIPOS>ATOM
      1 N         -63.2181  -38.9709   10.3121 N.am      1 MOL    -0.2945
      2 N         -63.3727  -41.7952   10.7315 N.am      1 MOL    -0.2983
      3 N         -64.4140  -35.5337    5.2632 N.ar      1 MOL    -0.1750
      4 N         -63.8181  -35.0268    4.1903 N.ar      1 MOL    -0.2425
      5 C         -64.5421  -34.2830    3.2346 C.ar      1 MOL     0.2725
      6 C         -65.9116  -34.0483    3.4721 C.ar      1 MOL     0.0496
      7 C         -66.6851  -33.2966    2.5824 C.ar      1 MOL     0.0138
      8 C         -68.0299  -33.0444    2.8598 C.ar      1 MOL     0.0008
      9 C         -68.6100  -33.5397    4.0282 C.ar      1 MOL     0.0007
     10 C         -67.8531  -34.3085    4.9118 C.ar      1 MOL     0.0103
     11 C         -66.5005  -34.5870    4.6502 C.ar      1 MOL     0.0106
     12 C         -65.7414  -35.3918    5.5176 C.ar      1 MOL     0.0736
     13 C         -66.3779  -36.0950    6.6710 C.3       1 MOL     0.0925
     14 C         -65.6194  -35.9590    7.9296 C.ar      1 MOL    -0.0406
     15 C         -64.6456  -36.9030    8.2845 C.ar      1 MOL     0.0196
     16 C         -63.9595  -36.7747    9.4937 C.ar      1 MOL     0.0723
     17 C         -62.9087  -37.7228    9.8992 C.2       1 MOL     0.2495
     18 C         -62.2573  -39.6321   11.1997 C.3       1 MOL     0.1268
     19 C         -62.0867  -41.1395   10.8737 C.3       1 MOL     0.1265
     20 C         -64.2783  -41.1773    9.7592 C.3       1 MOL     0.1265
     21 C         -64.4690  -39.6511   10.0268 C.3       1 MOL     0.1268
     22 C         -63.6501  -43.0319   11.2279 C.2       1 MOL     0.2187
     23 C         -62.6060  -43.7700   11.9817 C.3       1 MOL     0.0752
     24 C         -63.1784  -44.4214   13.2014 C.3       1 MOL     0.0134
     25 C         -62.2798  -43.2313   13.3270 C.3       1 MOL     0.0134
     26 C         -64.2523  -35.6992   10.3408 C.ar      1 MOL     0.1355
     27 C         -65.2165  -34.7551    9.9898 C.ar      1 MOL     0.0392
     28 C         -65.9002  -34.8836    8.7796 C.ar      1 MOL     0.0066
     29 O         -63.9306  -33.8709    2.2346 O.2       1 MOL    -0.2658
     30 O         -64.7354  -43.5972   11.0124 O.2       1 MOL    -0.2753
     31 O         -61.7732  -37.2405    9.9669 O.2       1 MOL    -0.2699
     32 F         -63.5986  -35.5610   11.5200 F         1 MOL    -0.2047
     33 H         -66.2418  -32.9036    1.6787 H         1 MOL     0.0625
     34 H         -68.6227  -32.4614    2.1702 H         1 MOL     0.0618
     35 H         -69.6455  -33.3274    4.2489 H         1 MOL     0.0618
     36 H         -68.3116  -34.6941    5.8129 H         1 MOL     0.0624
     37 H         -66.4494  -37.1715    6.4231 H         1 MOL     0.0377
     38 H         -67.3904  -35.6745    6.8265 H         1 MOL     0.0377
     39 H         -64.4243  -37.7277    7.6237 H         1 MOL     0.0629
     40 H         -62.6332  -39.5308   12.2471 H         1 MOL     0.0480
     41 H         -61.2783  -39.1033   11.1374 H         1 MOL     0.0480
     42 H         -61.4995  -41.6562   11.6663 H         1 MOL     0.0480
     43 H         -61.5335  -41.2490    9.9095 H         1 MOL     0.0480
     44 H         -65.2576  -41.7092    9.7770 H         1 MOL     0.0480
     45 H         -63.8368  -41.3164    8.7411 H         1 MOL     0.0480
     46 H         -65.1319  -39.5350   10.9202 H         1 MOL     0.0480
     47 H         -64.9717  -39.1514    9.1669 H         1 MOL     0.0480
     48 H         -61.8910  -44.2807   11.3830 H         1 MOL     0.0394
     49 H         -62.7694  -45.3834   13.4829 H         1 MOL     0.0273
     50 H         -64.2267  -44.2414   13.4100 H         1 MOL     0.0273
     51 H         -61.2832  -43.4292   13.7082 H         1 MOL     0.0273
     52 H         -62.7404  -42.2943   13.6124 H         1 MOL     0.0273
     53 H         -65.4341  -33.9301   10.6513 H         1 MOL     0.0646
     54 H         -66.6478  -34.1548    8.5026 H         1 MOL     0.0621
     55 H         -62.8371  -35.1405    4.0099 H         1 MOL     0.1921
@<TRIPOS>BOND
     1    1   18 1 
     2    1   21 1 
     3    1   17 am
     4    2   20 1 
     5    2   22 am
     6    2   19 1 
     7    3    4 ar
     8    3   12 ar
     9    4   55 1 
    10    4    5 ar
    11    5    6 ar
    12    5   29 2 
    13    6    7 ar
    14    6   11 ar
    15    7    8 ar
    16    7   33 1 
    17    8    9 ar
    18    8   34 1 
    19    9   10 ar
    20    9   35 1 
    21   10   11 ar
    22   10   36 1 
    23   11   12 ar
    24   12   13 1 
    25   13   14 1 
    26   13   37 1 
    27   13   38 1 
    28   14   15 ar
    29   14   28 ar
    30   15   16 ar
    31   15   39 1 
    32   16   17 1 
    33   16   26 ar
    34   17   31 2 
    35   18   19 1 
    36   18   40 1 
    37   18   41 1 
    38   19   42 1 
    39   19   43 1 
    40   20   21 1 
    41   20   44 1 
    42   20   45 1 
    43   21   46 1 
    44   21   47 1 
    45   22   23 1 
    46   22   30 2 
    47   23   24 1 
    48   23   25 1 
    49   23   48 1 
    50   24   25 1 
    51   24   49 1 
    52   24   50 1 
    53   25   51 1 
    54   25   52 1 
    55   26   27 ar
    56   26   32 1 
    57   27   28 ar
    58   27   53 1 
    59   28   54 1 
@<TRIPOS>SUBSTRUCTURE
1 MOL         1
