@<TRIPOS>MOLECULE
query molecule
   55    59     1     0     0
SMALL
NO_CHARGE

@<TRIPOS>ATOM
      1 N         -46.6887  -68.5879    9.3741 N.am      1 MOL    -0.2945
      2 N         -46.6040  -65.9970    9.2044 N.am      1 MOL    -0.2983
      3 N         -41.6479  -72.9876    7.8353 N.ar      1 MOL    -0.1750
      4 N         -41.1298  -72.7790    6.6493 N.ar      1 MOL    -0.2425
      5 C         -41.8454  -72.8219    5.5166 C.ar      1 MOL     0.2725
      6 C         -43.1947  -73.0991    5.5943 C.ar      1 MOL     0.0496
      7 C         -43.9821  -73.1756    4.4448 C.ar      1 MOL     0.0138
      8 C         -45.3237  -73.4750    4.5448 C.ar      1 MOL     0.0008
      9 C         -45.8237  -73.6893    5.8118 C.ar      1 MOL     0.0007
     10 C         -45.0542  -73.6171    6.9609 C.ar      1 MOL     0.0103
     11 C         -43.7282  -73.3175    6.8511 C.ar      1 MOL     0.0106
     12 C         -42.9781  -73.2674    7.9953 C.ar      1 MOL     0.0736
     13 C         -43.4393  -73.4127    9.3698 C.3       1 MOL     0.0925
     14 C         -43.6334  -72.0780   10.0009 C.ar      1 MOL    -0.0406
     15 C         -44.9184  -71.5236    9.8622 C.ar      1 MOL     0.0196
     16 C         -45.1923  -70.2898   10.4020 C.ar      1 MOL     0.0723
     17 C         -46.5339  -69.6782   10.2698 C.2       1 MOL     0.2495
     18 C         -47.9680  -67.9752    9.2160 C.3       1 MOL     0.1268
     19 C         -47.8729  -66.5289    8.7800 C.3       1 MOL     0.1265
     20 C         -45.4004  -66.6174    8.6401 C.3       1 MOL     0.1265
     21 C         -45.5322  -68.1187    8.6338 C.3       1 MOL     0.1268
     22 C         -46.4991  -64.9394   10.1124 C.2       1 MOL     0.2187
     23 C         -47.5998  -64.2298   10.7697 C.3       1 MOL     0.0752
     24 C         -48.4433  -65.0449   11.7239 C.3       1 MOL     0.0134
     25 C         -49.0162  -64.5626   10.4651 C.3       1 MOL     0.0134
     26 C         -44.2637  -69.5438   11.0884 C.ar      1 MOL     0.1355
     27 C         -43.0062  -70.0875   11.2235 C.ar      1 MOL     0.0392
     28 C         -42.7231  -71.3457   10.6731 C.ar      1 MOL     0.0066
     29 O         -41.3669  -72.6234    4.3706 O.2       1 MOL    -0.2658
     30 O         -45.3216  -64.5318   10.4168 O.2       1 MOL    -0.2753
     31 O         -47.5230  -70.0910   10.9178 O.2       1 MOL    -0.2699
     32 F         -44.5848  -68.3223   11.6056 F         1 MOL    -0.2047
     33 H         -43.5597  -73.0071    3.5184 H         1 MOL     0.0625
     34 H         -45.9258  -73.5366    3.7099 H         1 MOL     0.0618
     35 H         -46.8254  -73.9161    5.9088 H         1 MOL     0.0618
     36 H         -45.4771  -73.7869    7.8869 H         1 MOL     0.0624
     37 H         -42.7125  -73.9642    9.9289 H         1 MOL     0.0377
     38 H         -44.3757  -73.9310    9.3669 H         1 MOL     0.0377
     39 H         -45.6534  -72.0416    9.3562 H         1 MOL     0.0629
     40 H         -48.4861  -68.0179   10.1516 H         1 MOL     0.0480
     41 H         -48.4903  -68.5104    8.4499 H         1 MOL     0.0480
     42 H         -48.6661  -65.9663    9.2257 H         1 MOL     0.0480
     43 H         -47.9554  -66.4652    7.7148 H         1 MOL     0.0480
     44 H         -44.5517  -66.3417    9.2302 H         1 MOL     0.0480
     45 H         -45.2757  -66.2783    7.6329 H         1 MOL     0.0480
     46 H         -44.6526  -68.5408    9.0736 H         1 MOL     0.0480
     47 H         -45.6564  -68.4257    7.6172 H         1 MOL     0.0480
     48 H         -47.0444  -63.3157   10.7869 H         1 MOL     0.0394
     49 H         -48.7606  -64.6208   12.6537 H         1 MOL     0.0273
     50 H         -48.3443  -66.0007   12.1946 H         1 MOL     0.0273
     51 H         -49.7582  -63.7918   10.4810 H         1 MOL     0.0273
     52 H         -49.5130  -65.0323    9.6430 H         1 MOL     0.0273
     53 H         -42.2717  -69.5683   11.7307 H         1 MOL     0.0646
     54 H         -41.7721  -71.7303   10.7885 H         1 MOL     0.0621
     55 H         -40.1672  -72.5803    6.5877 H         1 MOL     0.1921
@<TRIPOS>BOND
     1    1   18 1 
     2    1   21 1 
     3    1   17 am
     4    2   20 1 
     5    2   22 am
     6    2   19 1 
     7    3    4 ar
     8    3   12 ar
     9    4   55 1 
    10    4    5 ar
    11    5    6 ar
    12    5   29 2 
    13    6    7 ar
    14    6   11 ar
    15    7    8 ar
    16    7   33 1 
    17    8    9 ar
    18    8   34 1 
    19    9   10 ar
    20    9   35 1 
    21   10   11 ar
    22   10   36 1 
    23   11   12 ar
    24   12   13 1 
    25   13   14 1 
    26   13   37 1 
    27   13   38 1 
    28   14   15 ar
    29   14   28 ar
    30   15   16 ar
    31   15   39 1 
    32   16   17 1 
    33   16   26 ar
    34   17   31 2 
    35   18   19 1 
    36   18   40 1 
    37   18   41 1 
    38   19   42 1 
    39   19   43 1 
    40   20   21 1 
    41   20   44 1 
    42   20   45 1 
    43   21   46 1 
    44   21   47 1 
    45   22   23 1 
    46   22   30 2 
    47   23   24 1 
    48   23   25 1 
    49   23   48 1 
    50   24   25 1 
    51   24   49 1 
    52   24   50 1 
    53   25   51 1 
    54   25   52 1 
    55   26   27 ar
    56   26   32 1 
    57   27   28 ar
    58   27   53 1 
    59   28   54 1 
@<TRIPOS>SUBSTRUCTURE
1 MOL         1
@<TRIPOS>MOLECULE
query molecule
   55    59     1     0     0
SMALL
NO_CHARGE

@<TRIPOS>ATOM
      1 N         -42.9738  -66.2170    8.3569 N.am      1 MOL    -0.2945
      2 N         -43.6841  -66.1972    5.8582 N.am      1 MOL    -0.2983
      3 N         -49.3579  -66.5427   13.2572 N.ar      1 MOL    -0.1750
      4 N         -50.4523  -65.8770   13.5361 N.ar      1 MOL    -0.2425
      5 C         -51.0548  -65.0550   12.6654 C.ar      1 MOL     0.2725
      6 C         -50.5017  -64.8959   11.4114 C.ar      1 MOL     0.0496
      7 C         -51.0768  -64.0374   10.4737 C.ar      1 MOL     0.0138
      8 C         -50.4949  -63.8778    9.2346 C.ar      1 MOL     0.0008
      9 C         -49.3440  -64.5956    8.9872 C.ar      1 MOL     0.0007
     10 C         -48.7622  -65.4507    9.9082 C.ar      1 MOL     0.0103
     11 C         -49.3474  -65.6034   11.1305 C.ar      1 MOL     0.0106
     12 C         -48.7497  -66.4389   12.0356 C.ar      1 MOL     0.0736
     13 C         -47.5784  -67.2813   11.8317 C.3       1 MOL     0.0925
     14 C         -46.3646  -66.4468   11.6137 C.ar      1 MOL    -0.0406
     15 C         -45.3973  -66.9975   10.7543 C.ar      1 MOL     0.0196
     16 C         -44.2371  -66.3065   10.4990 C.ar      1 MOL     0.0723
     17 C         -43.1985  -66.8611    9.6017 C.2       1 MOL     0.2495
     18 C         -41.9775  -66.7196    7.4671 C.3       1 MOL     0.1268
     19 C         -42.2658  -66.3857    6.0192 C.3       1 MOL     0.1265
     20 C         -44.2975  -65.0939    6.6054 C.3       1 MOL     0.1265
     21 C         -43.7695  -65.0522    8.0163 C.3       1 MOL     0.1268
     22 C         -44.4615  -67.0162    5.0342 C.2       1 MOL     0.2187
     23 C         -44.0013  -68.1587    4.2405 C.3       1 MOL     0.0752
     24 C         -43.7773  -69.4489    4.9965 C.3       1 MOL     0.0134
     25 C         -42.6390  -68.7231    4.4284 C.3       1 MOL     0.0134
     26 C         -43.9557  -65.0769   11.0457 C.ar      1 MOL     0.1355
     27 C         -44.9033  -64.5388   11.8868 C.ar      1 MOL     0.0392
     28 C         -46.0877  -65.2416   12.1502 C.ar      1 MOL     0.0066
     29 O         -52.1051  -64.4093   12.9138 O.2       1 MOL    -0.2658
     30 O         -45.7150  -66.7569    4.9506 O.2       1 MOL    -0.2753
     31 O         -42.5213  -67.8696    9.9069 O.2       1 MOL    -0.2699
     32 F         -42.7878  -64.4305   10.7614 F         1 MOL    -0.2047
     33 H         -51.9395  -63.5216   10.7079 H         1 MOL     0.0625
     34 H         -50.9016  -63.2496    8.5251 H         1 MOL     0.0618
     35 H         -48.8916  -64.4896    8.0662 H         1 MOL     0.0618
     36 H         -47.8987  -65.9653    9.6737 H         1 MOL     0.0624
     37 H         -47.7365  -67.9033   10.9754 H         1 MOL     0.0377
     38 H         -47.4297  -67.8830   12.7042 H         1 MOL     0.0377
     39 H         -45.5580  -67.9180   10.3168 H         1 MOL     0.0629
     40 H         -41.9312  -67.7839    7.5709 H         1 MOL     0.0480
     41 H         -41.0483  -66.2561    7.7273 H         1 MOL     0.0480
     42 H         -41.9360  -67.1878    5.3930 H         1 MOL     0.0480
     43 H         -41.7469  -65.4912    5.7432 H         1 MOL     0.0480
     44 H         -45.3581  -65.2321    6.6312 H         1 MOL     0.0480
     45 H         -44.0572  -64.1710    6.1201 H         1 MOL     0.0480
     46 H         -44.5990  -64.9980    8.6902 H         1 MOL     0.0480
     47 H         -43.1342  -64.1959    8.0960 H         1 MOL     0.0480
     48 H         -44.5508  -67.8279    3.3844 H         1 MOL     0.0394
     49 H         -44.0857  -70.3802    4.5690 H         1 MOL     0.0273
     50 H         -44.0361  -69.8109    5.9696 H         1 MOL     0.0273
     51 H         -42.1135  -69.1324    3.5910 H         1 MOL     0.0273
     52 H         -41.7219  -68.3441    4.8265 H         1 MOL     0.0273
     53 H         -44.7414  -63.6172   12.3235 H         1 MOL     0.0646
     54 H         -46.7816  -64.8157   12.7849 H         1 MOL     0.0621
     55 H         -50.8518  -65.9868   14.4295 H         1 MOL     0.1921
@<TRIPOS>BOND
     1    1   18 1 
     2    1   21 1 
     3    1   17 am
     4    2   20 1 
     5    2   22 am
     6    2   19 1 
     7    3    4 ar
     8    3   12 ar
     9    4   55 1 
    10    4    5 ar
    11    5    6 ar
    12    5   29 2 
    13    6    7 ar
    14    6   11 ar
    15    7    8 ar
    16    7   33 1 
    17    8    9 ar
    18    8   34 1 
    19    9   10 ar
    20    9   35 1 
    21   10   11 ar
    22   10   36 1 
    23   11   12 ar
    24   12   13 1 
    25   13   14 1 
    26   13   37 1 
    27   13   38 1 
    28   14   15 ar
    29   14   28 ar
    30   15   16 ar
    31   15   39 1 
    32   16   17 1 
    33   16   26 ar
    34   17   31 2 
    35   18   19 1 
    36   18   40 1 
    37   18   41 1 
    38   19   42 1 
    39   19   43 1 
    40   20   21 1 
    41   20   44 1 
    42   20   45 1 
    43   21   46 1 
    44   21   47 1 
    45   22   23 1 
    46   22   30 2 
    47   23   24 1 
    48   23   25 1 
    49   23   48 1 
    50   24   25 1 
    51   24   49 1 
    52   24   50 1 
    53   25   51 1 
    54   25   52 1 
    55   26   27 ar
    56   26   32 1 
    57   27   28 ar
    58   27   53 1 
    59   28   54 1 
@<TRIPOS>SUBSTRUCTURE
1 MOL         1
@<TRIPOS>MOLECULE
query molecule
   55    59     1     0     0
SMALL
NO_CHARGE

@<TRIPOS>ATOM
      1 N         -51.5014  -29.7831   13.5312 N.am      1 MOL    -0.2945
      2 N         -53.0551  -28.5766   11.8345 N.am      1 MOL    -0.2983
      3 N         -46.1694  -31.1618   10.8602 N.ar      1 MOL    -0.1750
      4 N         -46.4952  -31.4122    9.6153 N.ar      1 MOL    -0.2425
      5 C         -47.3194  -32.4068    9.2570 C.ar      1 MOL     0.2725
      6 C         -47.8553  -33.2116   10.2413 C.ar      1 MOL     0.0496
      7 C         -48.7028  -34.2733    9.9220 C.ar      1 MOL     0.0138
      8 C         -49.2094  -35.0773   10.9202 C.ar      1 MOL     0.0008
      9 C         -48.8372  -34.7778   12.2136 C.ar      1 MOL     0.0007
     10 C         -47.9970  -33.7280   12.5449 C.ar      1 MOL     0.0103
     11 C         -47.5032  -32.9368   11.5498 C.ar      1 MOL     0.0106
     12 C         -46.6600  -31.9142   11.8929 C.ar      1 MOL     0.0736
     13 C         -46.2729  -31.4902   13.2321 C.3       1 MOL     0.0925
     14 C         -47.0243  -30.2685   13.6323 C.ar      1 MOL    -0.0406
     15 C         -48.3856  -30.4639   13.9264 C.ar      1 MOL     0.0196
     16 C         -49.1654  -29.3942   14.2955 C.ar      1 MOL     0.0723
     17 C         -50.6021  -29.5670   14.6079 C.2       1 MOL     0.2495
     18 C         -52.8934  -29.9590   13.7932 C.3       1 MOL     0.1268
     19 C         -53.7638  -29.5495   12.6246 C.3       1 MOL     0.1265
     20 C         -51.8028  -29.0133   11.2078 C.3       1 MOL     0.1265
     21 C         -50.9791  -29.8207   12.1778 C.3       1 MOL     0.1268
     22 C         -53.5193  -27.2696   11.6594 C.2       1 MOL     0.2187
     23 C         -54.7358  -26.6829   12.2277 C.3       1 MOL     0.0752
     24 C         -55.1373  -25.3283   11.6893 C.3       1 MOL     0.0134
     25 C         -54.6748  -25.4613   13.0726 C.3       1 MOL     0.0134
     26 C         -48.6847  -28.1103   14.3986 C.ar      1 MOL     0.1355
     27 C         -47.3522  -27.9202   14.1105 C.ar      1 MOL     0.0392
     28 C         -46.5538  -29.0093   13.7326 C.ar      1 MOL     0.0066
     29 O         -47.6446  -32.6618    8.0691 O.2       1 MOL    -0.2658
     30 O         -52.8192  -26.4833   10.9267 O.2       1 MOL    -0.2753
     31 O         -51.0399  -29.5287   15.7808 O.2       1 MOL    -0.2699
     32 F         -49.5005  -27.0806   14.7687 F         1 MOL    -0.2047
     33 H         -48.9512  -34.4564    8.9372 H         1 MOL     0.0625
     34 H         -49.8377  -35.8672   10.7090 H         1 MOL     0.0618
     35 H         -49.2043  -35.3682   12.9758 H         1 MOL     0.0618
     36 H         -47.7481  -33.5461   13.5299 H         1 MOL     0.0624
     37 H         -45.2241  -31.2786   13.2453 H         1 MOL     0.0377
     38 H         -46.5011  -32.2756   13.9224 H         1 MOL     0.0377
     39 H         -48.7978  -31.4078   13.8650 H         1 MOL     0.0629
     40 H         -53.1594  -29.3657   14.6433 H         1 MOL     0.0480
     41 H         -53.0596  -31.0015   13.9708 H         1 MOL     0.0480
     42 H         -54.6754  -29.1233   12.9875 H         1 MOL     0.0480
     43 H         -53.9931  -30.4063   12.0257 H         1 MOL     0.0480
     44 H         -51.2432  -28.1543   10.9019 H         1 MOL     0.0480
     45 H         -52.0341  -29.6243   10.3604 H         1 MOL     0.0480
     46 H         -49.9825  -29.4310   12.1869 H         1 MOL     0.0480
     47 H         -51.0063  -30.8387   11.8521 H         1 MOL     0.0480
     48 H         -55.1805  -27.6473   12.3567 H         1 MOL     0.0394
     49 H         -56.1666  -25.1164   11.4870 H         1 MOL     0.0273
     50 H         -54.8503  -24.7326   10.8480 H         1 MOL     0.0273
     51 H         -55.3683  -25.3374   13.8780 H         1 MOL     0.0273
     52 H         -53.9088  -24.9912   13.6517 H         1 MOL     0.0273
     53 H         -46.9408  -26.9752   14.1729 H         1 MOL     0.0646
     54 H         -45.5577  -28.8392   13.5216 H         1 MOL     0.0621
     55 H         -46.1160  -30.8409    8.9085 H         1 MOL     0.1921
@<TRIPOS>BOND
     1    1   18 1 
     2    1   21 1 
     3    1   17 am
     4    2   20 1 
     5    2   22 am
     6    2   19 1 
     7    3    4 ar
     8    3   12 ar
     9    4   55 1 
    10    4    5 ar
    11    5    6 ar
    12    5   29 2 
    13    6    7 ar
    14    6   11 ar
    15    7    8 ar
    16    7   33 1 
    17    8    9 ar
    18    8   34 1 
    19    9   10 ar
    20    9   35 1 
    21   10   11 ar
    22   10   36 1 
    23   11   12 ar
    24   12   13 1 
    25   13   14 1 
    26   13   37 1 
    27   13   38 1 
    28   14   15 ar
    29   14   28 ar
    30   15   16 ar
    31   15   39 1 
    32   16   17 1 
    33   16   26 ar
    34   17   31 2 
    35   18   19 1 
    36   18   40 1 
    37   18   41 1 
    38   19   42 1 
    39   19   43 1 
    40   20   21 1 
    41   20   44 1 
    42   20   45 1 
    43   21   46 1 
    44   21   47 1 
    45   22   23 1 
    46   22   30 2 
    47   23   24 1 
    48   23   25 1 
    49   23   48 1 
    50   24   25 1 
    51   24   49 1 
    52   24   50 1 
    53   25   51 1 
    54   25   52 1 
    55   26   27 ar
    56   26   32 1 
    57   27   28 ar
    58   27   53 1 
    59   28   54 1 
@<TRIPOS>SUBSTRUCTURE
1 MOL         1
@<TRIPOS>MOLECULE
query molecule
   55    59     1     0     0
SMALL
NO_CHARGE

@<TRIPOS>ATOM
      1 N         -70.3032  -67.7995  -12.8991 N.am      1 MOL    -0.2945
      2 N         -70.1246  -69.9254  -11.4170 N.am      1 MOL    -0.2983
      3 N         -66.6128  -70.5451  -16.0824 N.ar      1 MOL    -0.1750
      4 N         -66.2122  -71.5483  -15.3396 N.ar      1 MOL    -0.2425
      5 C         -65.0101  -71.5907  -14.7478 C.ar      1 MOL     0.2725
      6 C         -64.1456  -70.5300  -14.9247 C.ar      1 MOL     0.0496
      7 C         -62.8751  -70.5319  -14.3478 C.ar      1 MOL     0.0138
      8 C         -62.0202  -69.4710  -14.5557 C.ar      1 MOL     0.0008
      9 C         -62.4834  -68.4403  -15.3459 C.ar      1 MOL     0.0007
     10 C         -63.7413  -68.4253  -15.9248 C.ar      1 MOL     0.0103
     11 C         -64.5805  -69.4789  -15.7107 C.ar      1 MOL     0.0106
     12 C         -65.8138  -69.4563  -16.3048 C.ar      1 MOL     0.0736
     13 C         -66.4032  -68.3821  -17.0932 C.3       1 MOL     0.0925
     14 C         -67.0702  -67.3879  -16.2079 C.ar      1 MOL    -0.0406
     15 C         -68.2983  -67.7954  -15.6570 C.ar      1 MOL     0.0196
     16 C         -68.9951  -66.9426  -14.8349 C.ar      1 MOL     0.0723
     17 C         -70.2919  -67.3411  -14.2426 C.2       1 MOL     0.2495
     18 C         -71.5351  -68.1879  -12.2919 C.3       1 MOL     0.1268
     19 C         -71.3454  -69.1993  -11.1818 C.3       1 MOL     0.1265
     20 C         -68.8783  -69.1518  -11.4085 C.3       1 MOL     0.1265
     21 C         -69.0508  -67.8621  -12.1690 C.3       1 MOL     0.1268
     22 C         -70.1034  -71.3042  -11.6464 C.2       1 MOL     0.2187
     23 C         -71.2567  -72.2066  -11.6995 C.3       1 MOL     0.0752
     24 C         -71.9345  -72.5008  -10.3803 C.3       1 MOL     0.0134
     25 C         -71.2017  -73.5574  -11.0815 C.3       1 MOL     0.0134
     26 C         -68.5543  -65.6821  -14.5079 C.ar      1 MOL     0.1355
     27 C         -67.3522  -65.2843  -15.0478 C.ar      1 MOL     0.0392
     28 C         -66.6391  -66.1515  -15.8878 C.ar      1 MOL     0.0066
     29 O         -64.6086  -72.5429  -14.0310 O.2       1 MOL    -0.2658
     30 O         -68.9619  -71.8583  -11.8337 O.2       1 MOL    -0.2753
     31 O         -71.3653  -67.2853  -14.8856 O.2       1 MOL    -0.2699
     32 F         -69.2839  -64.8719  -13.6870 F         1 MOL    -0.2047
     33 H         -62.5751  -71.3283  -13.7641 H         1 MOL     0.0625
     34 H         -61.0770  -69.4495  -14.1396 H         1 MOL     0.0618
     35 H         -61.8587  -67.6370  -15.5152 H         1 MOL     0.0618
     36 H         -64.0402  -67.6290  -16.5094 H         1 MOL     0.0624
     37 H         -67.1254  -68.7946  -17.7664 H         1 MOL     0.0377
     38 H         -65.6265  -67.8889  -17.6400 H         1 MOL     0.0377
     39 H         -68.6753  -68.7319  -15.8697 H         1 MOL     0.0629
     40 H         -72.1664  -68.6168  -13.0423 H         1 MOL     0.0480
     41 H         -71.9729  -67.3117  -11.8600 H         1 MOL     0.0480
     42 H         -72.1716  -69.8786  -11.1698 H         1 MOL     0.0480
     43 H         -71.2930  -68.6965  -10.2385 H         1 MOL     0.0480
     44 H         -68.1020  -69.7284  -11.8663 H         1 MOL     0.0480
     45 H         -68.6197  -68.9226  -10.3958 H         1 MOL     0.0480
     46 H         -68.2451  -67.7664  -12.8667 H         1 MOL     0.0480
     47 H         -69.0563  -67.0666  -11.4546 H         1 MOL     0.0480
     48 H         -71.5331  -71.8500  -12.6694 H         1 MOL     0.0394
     49 H         -73.0025  -72.5370  -10.3236 H         1 MOL     0.0273
     50 H         -71.8977  -72.0760   -9.3989 H         1 MOL     0.0273
     51 H         -71.7383  -74.3682  -11.5285 H         1 MOL     0.0273
     52 H         -70.4101  -74.2230  -10.8101 H         1 MOL     0.0273
     53 H         -66.9757  -64.3469  -14.8336 H         1 MOL     0.0646
     54 H         -65.7404  -65.8283  -16.2797 H         1 MOL     0.0621
     55 H         -66.8251  -72.3080  -15.2095 H         1 MOL     0.1921
@<TRIPOS>BOND
     1    1   18 1 
     2    1   21 1 
     3    1   17 am
     4    2   20 1 
     5    2   22 am
     6    2   19 1 
     7    3    4 ar
     8    3   12 ar
     9    4   55 1 
    10    4    5 ar
    11    5    6 ar
    12    5   29 2 
    13    6    7 ar
    14    6   11 ar
    15    7    8 ar
    16    7   33 1 
    17    8    9 ar
    18    8   34 1 
    19    9   10 ar
    20    9   35 1 
    21   10   11 ar
    22   10   36 1 
    23   11   12 ar
    24   12   13 1 
    25   13   14 1 
    26   13   37 1 
    27   13   38 1 
    28   14   15 ar
    29   14   28 ar
    30   15   16 ar
    31   15   39 1 
    32   16   17 1 
    33   16   26 ar
    34   17   31 2 
    35   18   19 1 
    36   18   40 1 
    37   18   41 1 
    38   19   42 1 
    39   19   43 1 
    40   20   21 1 
    41   20   44 1 
    42   20   45 1 
    43   21   46 1 
    44   21   47 1 
    45   22   23 1 
    46   22   30 2 
    47   23   24 1 
    48   23   25 1 
    49   23   48 1 
    50   24   25 1 
    51   24   49 1 
    52   24   50 1 
    53   25   51 1 
    54   25   52 1 
    55   26   27 ar
    56   26   32 1 
    57   27   28 ar
    58   27   53 1 
    59   28   54 1 
@<TRIPOS>SUBSTRUCTURE
1 MOL         1
@<TRIPOS>MOLECULE
query molecule
   55    59     1     0     0
SMALL
NO_CHARGE

@<TRIPOS>ATOM
      1 N         -12.1870  -34.3904   16.4067 N.am      1 MOL    -0.2945
      2 N         -11.1245  -36.7032   15.8869 N.am      1 MOL    -0.2983
      3 N         -15.1888  -36.6037   22.0045 N.ar      1 MOL    -0.1750
      4 N         -15.6542  -37.8283   21.9563 N.ar      1 MOL    -0.2425
      5 C         -14.9148  -38.8815   21.5807 C.ar      1 MOL     0.2725
      6 C         -13.5978  -38.6747   21.2254 C.ar      1 MOL     0.0496
      7 C         -12.7895  -39.7326   20.8076 C.ar      1 MOL     0.0138
      8 C         -11.4827  -39.4992   20.4369 C.ar      1 MOL     0.0008
      9 C         -11.0379  -38.1956   20.5009 C.ar      1 MOL     0.0007
     10 C         -11.8289  -37.1362   20.9131 C.ar      1 MOL     0.0103
     11 C         -13.1198  -37.3784   21.2803 C.ar      1 MOL     0.0106
     12 C         -13.8933  -36.3174   21.6684 C.ar      1 MOL     0.0736
     13 C         -13.4840  -34.9282   21.8284 C.3       1 MOL     0.0925
     14 C         -13.8672  -34.1282   20.6324 C.ar      1 MOL    -0.0406
     15 C         -12.9189  -34.0987   19.5944 C.ar      1 MOL     0.0196
     16 C         -13.1773  -33.3781   18.4529 C.ar      1 MOL     0.0723
     17 C         -12.1977  -33.3247   17.3444 C.2       1 MOL     0.2495
     18 C         -11.2602  -34.3718   15.3215 C.3       1 MOL     0.1268
     19 C         -10.9213  -35.7588   14.8192 C.3       1 MOL     0.1265
     20 C         -12.4903  -36.8377   16.4051 C.3       1 MOL     0.1265
     21 C         -13.1273  -35.4826   16.5756 C.3       1 MOL     0.1268
     22 C         -10.0831  -37.4671   16.4219 C.2       1 MOL     0.2187
     23 C          -8.6732  -37.4363   16.0240 C.3       1 MOL     0.0752
     24 C          -8.1938  -36.1625   15.3654 C.3       1 MOL     0.0134
     25 C          -8.2822  -37.4021   14.5903 C.3       1 MOL     0.0134
     26 C         -14.3366  -32.6658   18.2569 C.ar      1 MOL     0.1355
     27 C         -15.2641  -32.6954   19.2737 C.ar      1 MOL     0.0392
     28 C         -15.0033  -33.4287   20.4401 C.ar      1 MOL     0.0066
     29 O         -15.3428  -40.0630   21.5294 O.2       1 MOL    -0.2658
     30 O         -10.3716  -38.2887   17.3637 O.2       1 MOL    -0.2753
     31 O         -11.3891  -32.3773   17.2126 O.2       1 MOL    -0.2699
     32 F         -14.5461  -31.9647   17.1048 F         1 MOL    -0.2047
     33 H         -13.1702  -40.6913   20.7768 H         1 MOL     0.0625
     34 H         -10.8660  -40.2646   20.1253 H         1 MOL     0.0618
     35 H         -10.0632  -37.9989   20.2265 H         1 MOL     0.0618
     36 H         -11.4478  -36.1775   20.9426 H         1 MOL     0.0624
     37 H         -12.4223  -34.8861   21.9548 H         1 MOL     0.0377
     38 H         -13.9757  -34.5201   22.6869 H         1 MOL     0.0377
     39 H         -12.0314  -34.6162   19.6895 H         1 MOL     0.0629
     40 H         -10.3591  -33.8960   15.6488 H         1 MOL     0.0480
     41 H         -11.7184  -33.8384   14.5142 H         1 MOL     0.0480
     42 H          -9.8996  -35.7869   14.5035 H         1 MOL     0.0480
     43 H         -11.5501  -36.0077   13.9897 H         1 MOL     0.0480
     44 H         -12.4608  -37.3337   17.3525 H         1 MOL     0.0480
     45 H         -13.0706  -37.4061   15.7086 H         1 MOL     0.0480
     46 H         -13.5452  -35.4227   17.5589 H         1 MOL     0.0480
     47 H         -13.8748  -35.3818   15.8178 H         1 MOL     0.0480
     48 H          -8.3921  -38.0546   16.8505 H         1 MOL     0.0394
     49 H          -7.2365  -35.7566   15.6186 H         1 MOL     0.0273
     50 H          -8.5845  -35.1722   15.2584 H         1 MOL     0.0273
     51 H          -7.3867  -37.8938   14.2720 H         1 MOL     0.0273
     52 H          -8.7656  -37.6785   13.6775 H         1 MOL     0.0273
     53 H         -16.1522  -32.1775   19.1769 H         1 MOL     0.0646
     54 H         -15.7154  -33.4340   21.1874 H         1 MOL     0.0621
     55 H         -16.5935  -37.9820   22.2091 H         1 MOL     0.1921
@<TRIPOS>BOND
     1    1   18 1 
     2    1   21 1 
     3    1   17 am
     4    2   20 1 
     5    2   22 am
     6    2   19 1 
     7    3    4 ar
     8    3   12 ar
     9    4   55 1 
    10    4    5 ar
    11    5    6 ar
    12    5   29 2 
    13    6    7 ar
    14    6   11 ar
    15    7    8 ar
    16    7   33 1 
    17    8    9 ar
    18    8   34 1 
    19    9   10 ar
    20    9   35 1 
    21   10   11 ar
    22   10   36 1 
    23   11   12 ar
    24   12   13 1 
    25   13   14 1 
    26   13   37 1 
    27   13   38 1 
    28   14   15 ar
    29   14   28 ar
    30   15   16 ar
    31   15   39 1 
    32   16   17 1 
    33   16   26 ar
    34   17   31 2 
    35   18   19 1 
    36   18   40 1 
    37   18   41 1 
    38   19   42 1 
    39   19   43 1 
    40   20   21 1 
    41   20   44 1 
    42   20   45 1 
    43   21   46 1 
    44   21   47 1 
    45   22   23 1 
    46   22   30 2 
    47   23   24 1 
    48   23   25 1 
    49   23   48 1 
    50   24   25 1 
    51   24   49 1 
    52   24   50 1 
    53   25   51 1 
    54   25   52 1 
    55   26   27 ar
    56   26   32 1 
    57   27   28 ar
    58   27   53 1 
    59   28   54 1 
@<TRIPOS>SUBSTRUCTURE
1 MOL         1
@<TRIPOS>MOLECULE
query molecule
   55    59     1     0     0
SMALL
NO_CHARGE

@<TRIPOS>ATOM
      1 N         -72.0229  -64.7402   14.2558 N.am      1 MOL    -0.2945
      2 N         -70.5041  -65.7469   16.1073 N.am      1 MOL    -0.2983
      3 N         -69.0293  -69.5340    9.9556 N.ar      1 MOL    -0.1750
      4 N         -69.1868  -70.8263    9.8015 N.ar      1 MOL    -0.2425
      5 C         -70.3763  -71.4378    9.8913 C.ar      1 MOL     0.2725
      6 C         -71.4953  -70.6763   10.1592 C.ar      1 MOL     0.0496
      7 C         -72.7545  -71.2646   10.2829 C.ar      1 MOL     0.0138
      8 C         -73.8551  -70.4869   10.5720 C.ar      1 MOL     0.0008
      9 C         -73.6410  -69.1338   10.7282 C.ar      1 MOL     0.0007
     10 C         -72.3971  -68.5367   10.6087 C.ar      1 MOL     0.0103
     11 C         -71.3150  -69.3149   10.3198 C.ar      1 MOL     0.0106
     12 C         -70.0900  -68.7113   10.2225 C.ar      1 MOL     0.0736
     13 C         -69.7893  -67.2880   10.3052 C.3       1 MOL     0.0925
     14 C         -71.0436  -66.4933   10.4167 C.ar      1 MOL    -0.0406
     15 C         -71.4318  -66.1549   11.7253 C.ar      1 MOL     0.0196
     16 C         -72.5818  -65.4311   11.9314 C.ar      1 MOL     0.0723
     17 C         -73.0188  -65.0624   13.2969 C.2       1 MOL     0.2495
     18 C         -72.4056  -64.3752   15.5815 C.3       1 MOL     0.1268
     19 C         -71.3311  -64.6778   16.6036 C.3       1 MOL     0.1265
     20 C         -69.7560  -65.4906   14.8718 C.3       1 MOL     0.1265
     21 C         -70.6273  -64.7898   13.8614 C.3       1 MOL     0.1268
     22 C         -70.4039  -66.9814   16.7555 C.2       1 MOL     0.2187
     23 C         -71.0943  -67.3919   17.9810 C.3       1 MOL     0.0752
     24 C         -71.7457  -68.7561   17.9544 C.3       1 MOL     0.0134
     25 C         -72.5723  -67.5483   18.0120 C.3       1 MOL     0.0134
     26 C         -73.3980  -65.0050   10.9105 C.ar      1 MOL     0.1355
     27 C         -73.0170  -65.3369    9.6300 C.ar      1 MOL     0.0392
     28 C         -71.8448  -66.0762    9.4162 C.ar      1 MOL     0.0066
     29 O         -70.5475  -72.6752    9.7455 O.2       1 MOL    -0.2658
     30 O         -69.6303  -67.8637   16.2375 O.2       1 MOL    -0.2753
     31 O         -74.2270  -65.0271   13.6249 O.2       1 MOL    -0.2699
     32 F         -74.5310  -64.2887   11.1671 F         1 MOL    -0.2047
     33 H         -72.8623  -72.2832   10.1571 H         1 MOL     0.0625
     34 H         -74.7956  -70.8986   10.6678 H         1 MOL     0.0618
     35 H         -74.4513  -68.5338   10.9463 H         1 MOL     0.0618
     36 H         -72.2899  -67.5181   10.7358 H         1 MOL     0.0624
     37 H         -69.2595  -66.9881    9.4252 H         1 MOL     0.0377
     38 H         -69.1919  -67.1112   11.1754 H         1 MOL     0.0377
     39 H         -70.8551  -66.4495   12.5285 H         1 MOL     0.0629
     40 H         -73.2906  -64.9169   15.8438 H         1 MOL     0.0480
     41 H         -72.5719  -63.3177   15.5903 H         1 MOL     0.0480
     42 H         -71.7854  -64.9728   17.5260 H         1 MOL     0.0480
     43 H         -70.7345  -63.8053   16.7716 H         1 MOL     0.0480
     44 H         -69.4218  -66.4208   14.4624 H         1 MOL     0.0480
     45 H         -68.9183  -64.8643   15.0976 H         1 MOL     0.0480
     46 H         -70.5556  -65.3101   12.9290 H         1 MOL     0.0480
     47 H         -70.2806  -63.7814   13.7830 H         1 MOL     0.0480
     48 H         -70.3961  -66.8597   18.5923 H         1 MOL     0.0394
     49 H         -71.6768  -69.3989   18.8073 H         1 MOL     0.0273
     50 H         -71.6925  -69.6081   17.3092 H         1 MOL     0.0273
     51 H         -73.1122  -67.3172   18.9065 H         1 MOL     0.0273
     52 H         -73.3765  -67.1655   17.4204 H         1 MOL     0.0273
     53 H         -73.5948  -65.0409    8.8270 H         1 MOL     0.0646
     54 H         -71.5822  -66.3120    8.4462 H         1 MOL     0.0621
     55 H         -68.3917  -71.3749    9.6098 H         1 MOL     0.1921
@<TRIPOS>BOND
     1    1   18 1 
     2    1   21 1 
     3    1   17 am
     4    2   20 1 
     5    2   22 am
     6    2   19 1 
     7    3    4 ar
     8    3   12 ar
     9    4   55 1 
    10    4    5 ar
    11    5    6 ar
    12    5   29 2 
    13    6    7 ar
    14    6   11 ar
    15    7    8 ar
    16    7   33 1 
    17    8    9 ar
    18    8   34 1 
    19    9   10 ar
    20    9   35 1 
    21   10   11 ar
    22   10   36 1 
    23   11   12 ar
    24   12   13 1 
    25   13   14 1 
    26   13   37 1 
    27   13   38 1 
    28   14   15 ar
    29   14   28 ar
    30   15   16 ar
    31   15   39 1 
    32   16   17 1 
    33   16   26 ar
    34   17   31 2 
    35   18   19 1 
    36   18   40 1 
    37   18   41 1 
    38   19   42 1 
    39   19   43 1 
    40   20   21 1 
    41   20   44 1 
    42   20   45 1 
    43   21   46 1 
    44   21   47 1 
    45   22   23 1 
    46   22   30 2 
    47   23   24 1 
    48   23   25 1 
    49   23   48 1 
    50   24   25 1 
    51   24   49 1 
    52   24   50 1 
    53   25   51 1 
    54   25   52 1 
    55   26   27 ar
    56   26   32 1 
    57   27   28 ar
    58   27   53 1 
    59   28   54 1 
@<TRIPOS>SUBSTRUCTURE
1 MOL         1
@<TRIPOS>MOLECULE
query molecule
   55    59     1     0     0
SMALL
NO_CHARGE

@<TRIPOS>ATOM
      1 N         -41.3715  -27.8740   -0.6800 N.am      1 MOL    -0.2945
      2 N         -42.1256  -29.2207   -2.7695 N.am      1 MOL    -0.2983
      3 N         -41.4050  -20.8600   -2.5687 N.ar      1 MOL    -0.1750
      4 N         -40.8947  -19.6619   -2.7193 N.ar      1 MOL    -0.2425
      5 C         -39.7724  -19.4227   -3.4122 C.ar      1 MOL     0.2725
      6 C         -39.1155  -20.4849   -3.9987 C.ar      1 MOL     0.0496
      7 C         -37.9327  -20.2945   -4.7141 C.ar      1 MOL     0.0138
      8 C         -37.2822  -21.3732   -5.2733 C.ar      1 MOL     0.0008
      9 C         -37.8541  -22.6139   -5.0866 C.ar      1 MOL     0.0007
     10 C         -39.0270  -22.8175   -4.3789 C.ar      1 MOL     0.0103
     11 C         -39.6642  -21.7430   -3.8317 C.ar      1 MOL     0.0106
     12 C         -40.8130  -21.9639   -3.1204 C.ar      1 MOL     0.0736
     13 C         -41.5167  -23.2261   -2.9343 C.3       1 MOL     0.0925
     14 C         -41.4759  -23.6428   -1.5053 C.ar      1 MOL    -0.0406
     15 C         -41.6447  -25.0190   -1.2707 C.ar      1 MOL     0.0196
     16 C         -41.6325  -25.4994    0.0168 C.ar      1 MOL     0.0723
     17 C         -41.8111  -26.9421    0.2964 C.2       1 MOL     0.2495
     18 C         -41.5223  -29.2735   -0.4442 C.3       1 MOL     0.1268
     19 C         -41.6218  -30.0740   -1.7250 C.3       1 MOL     0.1265
     20 C         -41.3029  -28.0634   -3.1378 C.3       1 MOL     0.1265
     21 C         -40.7736  -27.3767   -1.9051 C.3       1 MOL     0.1268
     22 C         -43.3408  -29.4634   -3.4165 C.2       1 MOL     0.2187
     23 C         -44.2754  -30.5609   -3.1536 C.3       1 MOL     0.0752
     24 C         -43.8939  -31.5092   -2.0394 C.3       1 MOL     0.0134
     25 C         -43.8970  -31.9719   -3.4290 C.3       1 MOL     0.0134
     26 C         -41.4602  -24.6969    1.1197 C.ar      1 MOL     0.1355
     27 C         -41.2951  -23.3499    0.8888 C.ar      1 MOL     0.0392
     28 C         -41.3080  -22.8563   -0.4236 C.ar      1 MOL     0.0066
     29 O         -39.2685  -18.2811   -3.5689 O.2       1 MOL    -0.2658
     30 O         -43.6945  -28.6489   -4.3422 O.2       1 MOL    -0.2753
     31 O         -42.3322  -27.3576    1.3569 O.2       1 MOL    -0.2699
     32 F         -41.4564  -25.2224    2.3792 F         1 MOL    -0.2047
     33 H         -37.5446  -19.3448   -4.8252 H         1 MOL     0.0625
     34 H         -36.4072  -21.2576   -5.8066 H         1 MOL     0.0618
     35 H         -37.3824  -23.4349   -5.4959 H         1 MOL     0.0618
     36 H         -39.4139  -23.7678   -4.2672 H         1 MOL     0.0624
     37 H         -41.0519  -23.9803   -3.5344 H         1 MOL     0.0377
     38 H         -42.5384  -23.0981   -3.2260 H         1 MOL     0.0377
     39 H         -41.7777  -25.6664   -2.0631 H         1 MOL     0.0629
     40 H         -42.4129  -29.4303    0.1282 H         1 MOL     0.0480
     41 H         -40.6511  -29.6087    0.0799 H         1 MOL     0.0480
     42 H         -42.2873  -30.8992   -1.5821 H         1 MOL     0.0480
     43 H         -40.6558  -30.4472   -1.9952 H         1 MOL     0.0480
     44 H         -41.8973  -27.3718   -3.6973 H         1 MOL     0.0480
     45 H         -40.4754  -28.4000   -3.7268 H         1 MOL     0.0480
     46 H         -40.9785  -26.3292   -1.9828 H         1 MOL     0.0480
     47 H         -39.7242  -27.5749   -1.8529 H         1 MOL     0.0480
     48 H         -45.1145  -29.9559   -3.4258 H         1 MOL     0.0394
     49 H         -44.6394  -31.8602   -1.3566 H         1 MOL     0.0273
     50 H         -43.1753  -31.4958   -1.2466 H         1 MOL     0.0273
     51 H         -44.6419  -32.6676   -3.7548 H         1 MOL     0.0273
     52 H         -43.1734  -32.4415   -4.0608 H         1 MOL     0.0273
     53 H         -41.1615  -22.7032    1.6827 H         1 MOL     0.0646
     54 H         -41.1823  -21.8420   -0.5688 H         1 MOL     0.0621
     55 H         -41.3594  -18.8998   -2.3032 H         1 MOL     0.1921
@<TRIPOS>BOND
     1    1   18 1 
     2    1   21 1 
     3    1   17 am
     4    2   20 1 
     5    2   22 am
     6    2   19 1 
     7    3    4 ar
     8    3   12 ar
     9    4   55 1 
    10    4    5 ar
    11    5    6 ar
    12    5   29 2 
    13    6    7 ar
    14    6   11 ar
    15    7    8 ar
    16    7   33 1 
    17    8    9 ar
    18    8   34 1 
    19    9   10 ar
    20    9   35 1 
    21   10   11 ar
    22   10   36 1 
    23   11   12 ar
    24   12   13 1 
    25   13   14 1 
    26   13   37 1 
    27   13   38 1 
    28   14   15 ar
    29   14   28 ar
    30   15   16 ar
    31   15   39 1 
    32   16   17 1 
    33   16   26 ar
    34   17   31 2 
    35   18   19 1 
    36   18   40 1 
    37   18   41 1 
    38   19   42 1 
    39   19   43 1 
    40   20   21 1 
    41   20   44 1 
    42   20   45 1 
    43   21   46 1 
    44   21   47 1 
    45   22   23 1 
    46   22   30 2 
    47   23   24 1 
    48   23   25 1 
    49   23   48 1 
    50   24   25 1 
    51   24   49 1 
    52   24   50 1 
    53   25   51 1 
    54   25   52 1 
    55   26   27 ar
    56   26   32 1 
    57   27   28 ar
    58   27   53 1 
    59   28   54 1 
@<TRIPOS>SUBSTRUCTURE
1 MOL         1
@<TRIPOS>MOLECULE
query molecule
   55    59     1     0     0
SMALL
NO_CHARGE

@<TRIPOS>ATOM
      1 N         -16.5306  -72.3871   -1.4025 N.am      1 MOL    -0.2945
      2 N         -18.7249  -70.9980   -1.3388 N.am      1 MOL    -0.2983
      3 N         -11.0682  -75.0870   -2.7595 N.ar      1 MOL    -0.1750
      4 N         -11.3813  -76.3477   -2.9360 N.ar      1 MOL    -0.2425
      5 C         -12.0324  -76.7990   -4.0173 C.ar      1 MOL     0.2725
      6 C         -12.3948  -75.8983   -4.9976 C.ar      1 MOL     0.0496
      7 C         -13.0914  -76.3113   -6.1339 C.ar      1 MOL     0.0138
      8 C         -13.4619  -75.3904   -7.0901 C.ar      1 MOL     0.0008
      9 C         -13.1138  -74.0761   -6.8605 C.ar      1 MOL     0.0007
     10 C         -12.4231  -73.6521   -5.7375 C.ar      1 MOL     0.0103
     11 C         -12.0589  -74.5718   -4.7987 C.ar      1 MOL     0.0106
     12 C         -11.3921  -74.1333   -3.6862 C.ar      1 MOL     0.0736
     13 C         -10.9287  -72.7818   -3.4005 C.3       1 MOL     0.0925
     14 C         -12.0684  -71.9110   -3.0003 C.ar      1 MOL    -0.0406
     15 C         -13.0457  -72.5241   -2.1962 C.ar      1 MOL     0.0196
     16 C         -14.1416  -71.8044   -1.7841 C.ar      1 MOL     0.0723
     17 C         -15.1890  -72.4225   -0.9401 C.2       1 MOL     0.2495
     18 C         -17.5674  -72.9768   -0.6188 C.3       1 MOL     0.1268
     19 C         -18.9199  -72.3451   -0.8694 C.3       1 MOL     0.1265
     20 C         -18.0153  -70.8335   -2.6122 C.3       1 MOL     0.1265
     21 C         -16.8180  -71.7467   -2.6726 C.3       1 MOL     0.1268
     22 C         -19.1808  -69.8825   -0.6303 C.2       1 MOL     0.2187
     23 C         -19.8880  -69.8824    0.6531 C.3       1 MOL     0.0752
     24 C         -19.0787  -70.2986    1.8605 C.3       1 MOL     0.0134
     25 C         -20.1656  -71.1519    1.3750 C.3       1 MOL     0.0134
     26 C         -14.3473  -70.4866   -2.1173 C.ar      1 MOL     0.1355
     27 C         -13.3901  -69.8875   -2.9045 C.ar      1 MOL     0.0392
     28 C         -12.2712  -70.6192   -3.3276 C.ar      1 MOL     0.0066
     29 O         -12.3402  -78.0039   -4.2051 O.2       1 MOL    -0.2658
     30 O         -18.9664  -68.7255   -1.1408 O.2       1 MOL    -0.2753
     31 O         -14.9273  -72.9690    0.1561 O.2       1 MOL    -0.2699
     32 F         -15.4533  -69.8150   -1.6834 F         1 MOL    -0.2047
     33 H         -13.3290  -77.3077   -6.2591 H         1 MOL     0.0625
     34 H         -13.9767  -75.6716   -7.9382 H         1 MOL     0.0618
     35 H         -13.3828  -73.3705   -7.5632 H         1 MOL     0.0618
     36 H         -12.1868  -72.6552   -5.6124 H         1 MOL     0.0624
     37 H         -10.4657  -72.3758   -4.2756 H         1 MOL     0.0377
     38 H         -10.2262  -72.8208   -2.5940 H         1 MOL     0.0377
     39 H         -12.9405  -73.5117   -1.9166 H         1 MOL     0.0629
     40 H         -17.3217  -72.8616    0.4165 H         1 MOL     0.0480
     41 H         -17.6357  -74.0084   -0.8967 H         1 MOL     0.0480
     42 H         -19.4839  -72.3313    0.0394 H         1 MOL     0.0480
     43 H         -19.4543  -72.9117   -1.6034 H         1 MOL     0.0480
     44 H         -17.6885  -69.8191   -2.7054 H         1 MOL     0.0480
     45 H         -18.6794  -71.0825   -3.4135 H         1 MOL     0.0480
     46 H         -15.9640  -71.1717   -2.9645 H         1 MOL     0.0480
     47 H         -17.0388  -72.5191   -3.3781 H         1 MOL     0.0480
     48 H         -20.4973  -69.0552    0.3551 H         1 MOL     0.0394
     49 H         -19.1854  -69.7696    2.7846 H         1 MOL     0.0273
     50 H         -18.0372  -70.4389    2.0621 H         1 MOL     0.0273
     51 H         -21.0614  -71.2498    1.9521 H         1 MOL     0.0273
     52 H         -20.2349  -72.1779    1.0822 H         1 MOL     0.0273
     53 H         -13.4963  -68.8989   -3.1831 H         1 MOL     0.0646
     54 H         -11.5684  -70.1461   -3.9174 H         1 MOL     0.0621
     55 H         -11.1249  -76.9953   -2.2398 H         1 MOL     0.1921
@<TRIPOS>BOND
     1    1   18 1 
     2    1   21 1 
     3    1   17 am
     4    2   20 1 
     5    2   22 am
     6    2   19 1 
     7    3    4 ar
     8    3   12 ar
     9    4   55 1 
    10    4    5 ar
    11    5    6 ar
    12    5   29 2 
    13    6    7 ar
    14    6   11 ar
    15    7    8 ar
    16    7   33 1 
    17    8    9 ar
    18    8   34 1 
    19    9   10 ar
    20    9   35 1 
    21   10   11 ar
    22   10   36 1 
    23   11   12 ar
    24   12   13 1 
    25   13   14 1 
    26   13   37 1 
    27   13   38 1 
    28   14   15 ar
    29   14   28 ar
    30   15   16 ar
    31   15   39 1 
    32   16   17 1 
    33   16   26 ar
    34   17   31 2 
    35   18   19 1 
    36   18   40 1 
    37   18   41 1 
    38   19   42 1 
    39   19   43 1 
    40   20   21 1 
    41   20   44 1 
    42   20   45 1 
    43   21   46 1 
    44   21   47 1 
    45   22   23 1 
    46   22   30 2 
    47   23   24 1 
    48   23   25 1 
    49   23   48 1 
    50   24   25 1 
    51   24   49 1 
    52   24   50 1 
    53   25   51 1 
    54   25   52 1 
    55   26   27 ar
    56   26   32 1 
    57   27   28 ar
    58   27   53 1 
    59   28   54 1 
@<TRIPOS>SUBSTRUCTURE
1 MOL         1
@<TRIPOS>MOLECULE
query molecule
   55    59     1     0     0
SMALL
NO_CHARGE

@<TRIPOS>ATOM
      1 N         -56.9954  -49.4208   29.5293 N.am      1 MOL    -0.2945
      2 N         -55.5090  -50.0914   31.5516 N.am      1 MOL    -0.2983
      3 N         -52.1591  -48.1917   25.8693 N.ar      1 MOL    -0.1750
      4 N         -51.2547  -47.2616   25.6806 N.ar      1 MOL    -0.2425
      5 C         -50.4853  -47.1960   24.5849 C.ar      1 MOL     0.2725
      6 C         -50.6467  -48.1512   23.6025 C.ar      1 MOL     0.0496
      7 C         -49.8583  -48.1413   22.4512 C.ar      1 MOL     0.0138
      8 C         -50.0225  -49.1182   21.4929 C.ar      1 MOL     0.0008
      9 C         -50.9833  -50.0770   21.7356 C.ar      1 MOL     0.0007
     10 C         -51.7723  -50.0993   22.8735 C.ar      1 MOL     0.0103
     11 C         -51.6036  -49.1266   23.8144 C.ar      1 MOL     0.0106
     12 C         -52.3796  -49.1734   24.9414 C.ar      1 MOL     0.0736
     13 C         -53.4575  -50.1063   25.2425 C.3       1 MOL     0.0925
     14 C         -54.7039  -49.3710   25.5932 C.ar      1 MOL    -0.0406
     15 C         -55.4259  -49.8882   26.6835 C.ar      1 MOL     0.0196
     16 C         -56.5959  -49.2840   27.0770 C.ar      1 MOL     0.0723
     17 C         -57.3800  -49.8067   28.2186 C.2       1 MOL     0.2495
     18 C         -57.7302  -49.9006   30.6550 C.3       1 MOL     0.1268
     19 C         -56.8953  -49.9567   31.9163 C.3       1 MOL     0.1265
     20 C         -54.9142  -48.9937   30.7813 C.3       1 MOL     0.1265
     21 C         -55.8544  -48.5396   29.6946 C.3       1 MOL     0.1268
     22 C         -54.7452  -51.2082   31.9031 C.2       1 MOL     0.2187
     23 C         -55.1962  -52.3837   32.6526 C.3       1 MOL     0.0752
     24 C         -56.1467  -52.1197   33.7985 C.3       1 MOL     0.0134
     25 C         -54.7872  -52.5943   34.0662 C.3       1 MOL     0.0134
     26 C         -57.1183  -48.1750   26.4548 C.ar      1 MOL     0.1355
     27 C         -56.4109  -47.6696   25.3875 C.ar      1 MOL     0.0392
     28 C         -55.2173  -48.2843   24.9828 C.ar      1 MOL     0.0066
     29 O         -49.6138  -46.3113   24.3854 O.2       1 MOL    -0.2658
     30 O         -53.5153  -51.2257   31.5393 O.2       1 MOL    -0.2753
     31 O         -58.3608  -50.5698   28.0617 O.2       1 MOL    -0.2699
     32 F         -58.2852  -47.6115   26.8832 F         1 MOL    -0.2047
     33 H         -49.1518  -47.4013   22.3166 H         1 MOL     0.0625
     34 H         -49.4523  -49.1315   20.6338 H         1 MOL     0.0618
     35 H         -51.1214  -50.8181   21.0314 H         1 MOL     0.0618
     36 H         -52.4780  -50.8404   23.0080 H         1 MOL     0.0624
     37 H         -53.1689  -50.7236   26.0676 H         1 MOL     0.0377
     38 H         -53.6451  -50.7080   24.3776 H         1 MOL     0.0377
     39 H         -55.0783  -50.7193   27.1866 H         1 MOL     0.0629
     40 H         -58.0875  -50.8854   30.4361 H         1 MOL     0.0480
     41 H         -58.5356  -49.2174   30.8302 H         1 MOL     0.0480
     42 H         -57.1948  -50.7959   32.5083 H         1 MOL     0.0480
     43 H         -57.0361  -49.0606   32.4843 H         1 MOL     0.0480
     44 H         -54.0002  -49.3290   30.3376 H         1 MOL     0.0480
     45 H         -54.7253  -48.1714   31.4394 H         1 MOL     0.0480
     46 H         -55.3163  -48.5029   28.7704 H         1 MOL     0.0480
     47 H         -56.2298  -47.5788   29.9759 H         1 MOL     0.0480
     48 H         -55.1632  -52.9964   31.7763 H         1 MOL     0.0394
     49 H         -56.9821  -52.7686   33.9612 H         1 MOL     0.0273
     50 H         -56.7345  -51.2844   34.1174 H         1 MOL     0.0273
     51 H         -54.6348  -53.5881   34.4326 H         1 MOL     0.0273
     52 H         -53.9790  -52.2411   34.6705 H         1 MOL     0.0273
     53 H         -56.7595  -46.8375   24.8853 H         1 MOL     0.0646
     54 H         -54.7065  -47.8853   24.1793 H         1 MOL     0.0621
     55 H         -51.1352  -46.5769   26.3783 H         1 MOL     0.1921
@<TRIPOS>BOND
     1    1   18 1 
     2    1   21 1 
     3    1   17 am
     4    2   20 1 
     5    2   22 am
     6    2   19 1 
     7    3    4 ar
     8    3   12 ar
     9    4   55 1 
    10    4    5 ar
    11    5    6 ar
    12    5   29 2 
    13    6    7 ar
    14    6   11 ar
    15    7    8 ar
    16    7   33 1 
    17    8    9 ar
    18    8   34 1 
    19    9   10 ar
    20    9   35 1 
    21   10   11 ar
    22   10   36 1 
    23   11   12 ar
    24   12   13 1 
    25   13   14 1 
    26   13   37 1 
    27   13   38 1 
    28   14   15 ar
    29   14   28 ar
    30   15   16 ar
    31   15   39 1 
    32   16   17 1 
    33   16   26 ar
    34   17   31 2 
    35   18   19 1 
    36   18   40 1 
    37   18   41 1 
    38   19   42 1 
    39   19   43 1 
    40   20   21 1 
    41   20   44 1 
    42   20   45 1 
    43   21   46 1 
    44   21   47 1 
    45   22   23 1 
    46   22   30 2 
    47   23   24 1 
    48   23   25 1 
    49   23   48 1 
    50   24   25 1 
    51   24   49 1 
    52   24   50 1 
    53   25   51 1 
    54   25   52 1 
    55   26   27 ar
    56   26   32 1 
    57   27   28 ar
    58   27   53 1 
    59   28   54 1 
@<TRIPOS>SUBSTRUCTURE
1 MOL         1
@<TRIPOS>MOLECULE
query molecule
   55    59     1     0     0
SMALL
NO_CHARGE

@<TRIPOS>ATOM
      1 N         -16.7857  -40.8775  -28.8411 N.am      1 MOL    -0.2945
      2 N         -16.4824  -38.2976  -28.8163 N.am      1 MOL    -0.2983
      3 N         -14.9269  -47.0488  -24.6009 N.ar      1 MOL    -0.1750
      4 N         -15.3739  -48.1738  -24.0977 N.ar      1 MOL    -0.2425
      5 C         -16.1001  -49.0556  -24.7992 C.ar      1 MOL     0.2725
      6 C         -16.3965  -48.7723  -26.1166 C.ar      1 MOL     0.0496
      7 C         -17.1657  -49.6459  -26.8861 C.ar      1 MOL     0.0138
      8 C         -17.4673  -49.3321  -28.1939 C.ar      1 MOL     0.0008
      9 C         -16.9783  -48.1376  -28.6790 C.ar      1 MOL     0.0007
     10 C         -16.2143  -47.2611  -27.9267 C.ar      1 MOL     0.0103
     11 C         -15.9194  -47.5823  -26.6345 C.ar      1 MOL     0.0106
     12 C         -15.1779  -46.6967  -25.8994 C.ar      1 MOL     0.0736
     13 C         -14.5688  -45.4532  -26.3531 C.3       1 MOL     0.0925
     14 C         -15.4679  -44.2986  -26.0775 C.ar      1 MOL    -0.0406
     15 C         -16.0391  -43.6919  -27.2103 C.ar      1 MOL     0.0196
     16 C         -16.8751  -42.6118  -27.0588 C.ar      1 MOL     0.0723
     17 C         -17.4890  -41.9494  -28.2318 C.2       1 MOL     0.2495
     18 C         -17.3432  -40.2174  -29.9771 C.3       1 MOL     0.1268
     19 C         -16.8646  -38.7880  -30.1149 C.3       1 MOL     0.1265
     20 C         -15.3697  -38.9812  -28.1481 C.3       1 MOL     0.1265
     21 C         -15.5051  -40.4755  -28.2896 C.3       1 MOL     0.1268
     22 C         -17.1282  -37.2217  -28.2001 C.2       1 MOL     0.2187
     23 C         -18.2564  -36.4508  -28.7292 C.3       1 MOL     0.0752
     24 C         -19.6352  -36.9874  -28.4178 C.3       1 MOL     0.0134
     25 C         -19.1326  -37.0073  -29.7934 C.3       1 MOL     0.0134
     26 C         -17.1973  -42.0731  -25.8356 C.ar      1 MOL     0.1355
     27 C         -16.6376  -42.6678  -24.7274 C.ar      1 MOL     0.0392
     28 C         -15.7833  -43.7694  -24.8786 C.ar      1 MOL     0.0066
     29 O         -16.5364  -50.1399  -24.3347 O.2       1 MOL    -0.2658
     30 O         -16.7033  -36.8548  -27.0468 O.2       1 MOL    -0.2753
     31 O         -18.5970  -42.3045  -28.6954 O.2       1 MOL    -0.2699
     32 F         -18.0326  -40.9983  -25.7375 F         1 MOL    -0.2047
     33 H         -17.5087  -50.5286  -26.4760 H         1 MOL     0.0625
     34 H         -18.0334  -49.9617  -28.7823 H         1 MOL     0.0618
     35 H         -17.1937  -47.8829  -29.6551 H         1 MOL     0.0618
     36 H         -15.8725  -46.3779  -28.3372 H         1 MOL     0.0624
     37 H         -14.3862  -45.5139  -27.4057 H         1 MOL     0.0377
     38 H         -13.6494  -45.3064  -25.8255 H         1 MOL     0.0377
     39 H         -15.8308  -44.0566  -28.1528 H         1 MOL     0.0629
     40 H         -18.4092  -40.2144  -29.8823 H         1 MOL     0.0480
     41 H         -17.0250  -40.7506  -30.8491 H         1 MOL     0.0480
     42 H         -17.6522  -38.1821  -30.5109 H         1 MOL     0.0480
     43 H         -16.0263  -38.7489  -30.7791 H         1 MOL     0.0480
     44 H         -15.3711  -38.7251  -27.1093 H         1 MOL     0.0480
     45 H         -14.4511  -38.6739  -28.6029 H         1 MOL     0.0480
     46 H         -15.3958  -40.9215  -27.3230 H         1 MOL     0.0480
     47 H         -14.7468  -40.8036  -28.9682 H         1 MOL     0.0480
     48 H         -17.7217  -35.5307  -28.6205 H         1 MOL     0.0394
     49 H         -20.4221  -36.3153  -28.1450 H         1 MOL     0.0273
     50 H         -20.0282  -37.7197  -27.7438 H         1 MOL     0.0273
     51 H         -19.5611  -36.3537  -30.5242 H         1 MOL     0.0273
     52 H         -19.0160  -37.7693  -30.5343 H         1 MOL     0.0273
     53 H         -16.8473  -42.3022  -23.7848 H         1 MOL     0.0646
     54 H         -15.3767  -44.1964  -24.0312 H         1 MOL     0.0621
     55 H         -15.1652  -48.3815  -23.1580 H         1 MOL     0.1921
@<TRIPOS>BOND
     1    1   18 1 
     2    1   21 1 
     3    1   17 am
     4    2   20 1 
     5    2   22 am
     6    2   19 1 
     7    3    4 ar
     8    3   12 ar
     9    4   55 1 
    10    4    5 ar
    11    5    6 ar
    12    5   29 2 
    13    6    7 ar
    14    6   11 ar
    15    7    8 ar
    16    7   33 1 
    17    8    9 ar
    18    8   34 1 
    19    9   10 ar
    20    9   35 1 
    21   10   11 ar
    22   10   36 1 
    23   11   12 ar
    24   12   13 1 
    25   13   14 1 
    26   13   37 1 
    27   13   38 1 
    28   14   15 ar
    29   14   28 ar
    30   15   16 ar
    31   15   39 1 
    32   16   17 1 
    33   16   26 ar
    34   17   31 2 
    35   18   19 1 
    36   18   40 1 
    37   18   41 1 
    38   19   42 1 
    39   19   43 1 
    40   20   21 1 
    41   20   44 1 
    42   20   45 1 
    43   21   46 1 
    44   21   47 1 
    45   22   23 1 
    46   22   30 2 
    47   23   24 1 
    48   23   25 1 
    49   23   48 1 
    50   24   25 1 
    51   24   49 1 
    52   24   50 1 
    53   25   51 1 
    54   25   52 1 
    55   26   27 ar
    56   26   32 1 
    57   27   28 ar
    58   27   53 1 
    59   28   54 1 
@<TRIPOS>SUBSTRUCTURE
1 MOL         1
@<TRIPOS>MOLECULE
query molecule
   55    59     1     0     0
SMALL
NO_CHARGE

@<TRIPOS>ATOM
      1 N         -21.7412  -83.1598   21.3612 N.am      1 MOL    -0.2945
      2 N         -22.4267  -81.0573   19.9982 N.am      1 MOL    -0.2983
      3 N         -16.6441  -82.8354   26.5869 N.ar      1 MOL    -0.1750
      4 N         -15.7668  -81.8690   26.7093 N.ar      1 MOL    -0.2425
      5 C         -15.1319  -81.3162   25.6661 C.ar      1 MOL     0.2725
      6 C         -15.4097  -81.7820   24.3974 C.ar      1 MOL     0.0496
      7 C         -14.7627  -81.2556   23.2788 C.ar      1 MOL     0.0138
      8 C         -15.0405  -81.7512   22.0230 C.ar      1 MOL     0.0008
      9 C         -15.9674  -82.7689   21.9434 C.ar      1 MOL     0.0007
     10 C         -16.6167  -83.3009   23.0449 C.ar      1 MOL     0.0103
     11 C         -16.3365  -82.8016   24.2827 C.ar      1 MOL     0.0106
     12 C         -16.9742  -83.3507   25.3627 C.ar      1 MOL     0.0736
     13 C         -18.0106  -84.3749   25.3592 C.3       1 MOL     0.0925
     14 C         -19.3561  -83.7578   25.1985 C.ar      1 MOL    -0.0406
     15 C         -20.0401  -84.0953   24.0170 C.ar      1 MOL     0.0196
     16 C         -21.2852  -83.5671   23.7734 C.ar      1 MOL     0.0723
     17 C         -22.0287  -83.9005   22.5375 C.2       1 MOL     0.2495
     18 C         -22.4341  -83.4554   20.1490 C.3       1 MOL     0.1268
     19 C         -22.5172  -82.2644   19.2186 C.3       1 MOL     0.1265
     20 C         -21.1825  -80.8386   20.7438 C.3       1 MOL     0.1265
     21 C         -20.7403  -82.1107   21.4202 C.3       1 MOL     0.1268
     22 C         -23.4645  -80.1226   20.0579 C.2       1 MOL     0.2187
     23 C         -24.7643  -80.2048   19.3863 C.3       1 MOL     0.0752
     24 C         -24.7383  -80.6154   17.9314 C.3       1 MOL     0.0134
     25 C         -25.1287  -79.2537   18.3036 C.3       1 MOL     0.0134
     26 C         -21.9215  -82.7067   24.6364 C.ar      1 MOL     0.1355
     27 C         -21.2511  -82.3770   25.7926 C.ar      1 MOL     0.0392
     28 C         -19.9801  -82.9133   26.0438 C.ar      1 MOL     0.0066
     29 O         -14.2887  -80.3881   25.7632 O.2       1 MOL    -0.2658
     30 O         -23.2795  -79.0738   20.7727 O.2       1 MOL    -0.2753
     31 O         -22.8929  -84.8064   22.5016 O.2       1 MOL    -0.2699
     32 F         -23.1590  -82.2082   24.3486 F         1 MOL    -0.2047
     33 H         -14.0757  -80.4938   23.3914 H         1 MOL     0.0625
     34 H         -14.5756  -81.3782   21.1816 H         1 MOL     0.0618
     35 H         -16.1889  -83.1551   21.0128 H         1 MOL     0.0618
     36 H         -17.3028  -84.0636   22.9315 H         1 MOL     0.0624
     37 H         -17.9778  -84.9124   26.2839 H         1 MOL     0.0377
     38 H         -17.8368  -85.0392   24.5383 H         1 MOL     0.0377
     39 H         -19.6080  -84.7374   23.3347 H         1 MOL     0.0629
     40 H         -23.4276  -83.7716   20.3908 H         1 MOL     0.0480
     41 H         -21.8866  -84.2237   19.6430 H         1 MOL     0.0480
     42 H         -23.4482  -82.2840   18.6922 H         1 MOL     0.0480
     43 H         -21.7151  -82.3007   18.5109 H         1 MOL     0.0480
     44 H         -21.3434  -80.0842   21.4851 H         1 MOL     0.0480
     45 H         -20.4193  -80.5283   20.0608 H         1 MOL     0.0480
     46 H         -20.5320  -81.8967   22.4478 H         1 MOL     0.0480
     47 H         -19.8742  -82.4648   20.9030 H         1 MOL     0.0480
     48 H         -25.2480  -80.5160   20.2883 H         1 MOL     0.0394
     49 H         -25.4711  -81.2984   17.5548 H         1 MOL     0.0273
     50 H         -24.0061  -81.0421   17.2781 H         1 MOL     0.0273
     51 H         -26.1465  -78.9437   18.1893 H         1 MOL     0.0273
     52 H         -24.7936  -78.2781   18.0224 H         1 MOL     0.0273
     53 H         -21.6849  -81.7347   26.4749 H         1 MOL     0.0646
     54 H         -19.4990  -82.6494   26.9182 H         1 MOL     0.0621
     55 H         -15.5647  -81.5322   27.6123 H         1 MOL     0.1921
@<TRIPOS>BOND
     1    1   18 1 
     2    1   21 1 
     3    1   17 am
     4    2   20 1 
     5    2   22 am
     6    2   19 1 
     7    3    4 ar
     8    3   12 ar
     9    4   55 1 
    10    4    5 ar
    11    5    6 ar
    12    5   29 2 
    13    6    7 ar
    14    6   11 ar
    15    7    8 ar
    16    7   33 1 
    17    8    9 ar
    18    8   34 1 
    19    9   10 ar
    20    9   35 1 
    21   10   11 ar
    22   10   36 1 
    23   11   12 ar
    24   12   13 1 
    25   13   14 1 
    26   13   37 1 
    27   13   38 1 
    28   14   15 ar
    29   14   28 ar
    30   15   16 ar
    31   15   39 1 
    32   16   17 1 
    33   16   26 ar
    34   17   31 2 
    35   18   19 1 
    36   18   40 1 
    37   18   41 1 
    38   19   42 1 
    39   19   43 1 
    40   20   21 1 
    41   20   44 1 
    42   20   45 1 
    43   21   46 1 
    44   21   47 1 
    45   22   23 1 
    46   22   30 2 
    47   23   24 1 
    48   23   25 1 
    49   23   48 1 
    50   24   25 1 
    51   24   49 1 
    52   24   50 1 
    53   25   51 1 
    54   25   52 1 
    55   26   27 ar
    56   26   32 1 
    57   27   28 ar
    58   27   53 1 
    59   28   54 1 
@<TRIPOS>SUBSTRUCTURE
1 MOL         1
@<TRIPOS>MOLECULE
query molecule
   55    59     1     0     0
SMALL
NO_CHARGE

@<TRIPOS>ATOM
      1 N         -48.1508  -67.3200  -20.0082 N.am      1 MOL    -0.2945
      2 N         -47.0761  -66.8314  -17.6942 N.am      1 MOL    -0.2983
      3 N         -53.0260  -62.8490  -23.7538 N.ar      1 MOL    -0.1750
      4 N         -53.4724  -61.8818  -24.5180 N.ar      1 MOL    -0.2425
      5 C         -53.3887  -61.9037  -25.8556 C.ar      1 MOL     0.2725
      6 C         -52.8046  -62.9945  -26.4662 C.ar      1 MOL     0.0496
      7 C         -52.6739  -63.0592  -27.8540 C.ar      1 MOL     0.0138
      8 C         -52.0678  -64.1490  -28.4408 C.ar      1 MOL     0.0008
      9 C         -51.6113  -65.1399  -27.5976 C.ar      1 MOL     0.0007
     10 C         -51.7340  -65.0887  -26.2192 C.ar      1 MOL     0.0103
     11 C         -52.3377  -64.0071  -25.6487 C.ar      1 MOL     0.0106
     12 C         -52.4351  -63.9641  -24.2837 C.ar      1 MOL     0.0736
     13 C         -52.0428  -64.9933  -23.3299 C.3       1 MOL     0.0925
     14 C         -50.6173  -64.8245  -22.9340 C.ar      1 MOL    -0.0406
     15 C         -50.0011  -65.9647  -22.3883 C.ar      1 MOL     0.0196
     16 C         -48.6893  -65.9049  -21.9831 C.ar      1 MOL     0.0723
     17 C         -48.0139  -67.0869  -21.4018 C.2       1 MOL     0.2495
     18 C         -47.5183  -68.4521  -19.4122 C.3       1 MOL     0.1268
     19 C         -47.2084  -68.2429  -17.9455 C.3       1 MOL     0.1265
     20 C         -48.2620  -66.0001  -17.9281 C.3       1 MOL     0.1265
     21 C         -48.9382  -66.3933  -19.2163 C.3       1 MOL     0.1268
     22 C         -45.8822  -66.2567  -17.2486 C.2       1 MOL     0.2187
     23 C         -44.6168  -66.9468  -16.9846 C.3       1 MOL     0.0752
     24 C         -43.6478  -66.2351  -16.0677 C.3       1 MOL     0.0134
     25 C         -43.3280  -66.4026  -17.4872 C.3       1 MOL     0.0134
     26 C         -47.9206  -64.7693  -22.0812 C.ar      1 MOL     0.1355
     27 C         -48.5248  -63.6537  -22.6155 C.ar      1 MOL     0.0392
     28 C         -49.8635  -63.7110  -23.0290 C.ar      1 MOL     0.0066
     29 O         -53.8120  -60.9867  -26.6052 O.2       1 MOL    -0.2658
     30 O         -45.8721  -64.9906  -17.0435 O.2       1 MOL    -0.2753
     31 O         -47.3342  -67.8769  -22.0966 O.2       1 MOL    -0.2699
     32 F         -46.6213  -64.7602  -21.6638 F         1 MOL    -0.2047
     33 H         -53.0320  -62.2904  -28.4420 H         1 MOL     0.0625
     34 H         -51.9601  -64.2197  -29.4639 H         1 MOL     0.0618
     35 H         -51.1533  -65.9639  -28.0165 H         1 MOL     0.0618
     36 H         -51.3745  -65.8575  -25.6317 H         1 MOL     0.0624
     37 H         -52.1721  -65.9565  -23.7779 H         1 MOL     0.0377
     38 H         -52.6548  -64.9059  -22.4563 H         1 MOL     0.0377
     39 H         -50.5326  -66.8439  -22.2921 H         1 MOL     0.0629
     40 H         -46.6028  -68.6458  -19.9318 H         1 MOL     0.0480
     41 H         -48.1967  -69.2770  -19.4851 H         1 MOL     0.0480
     42 H         -46.2943  -68.7398  -17.6970 H         1 MOL     0.0480
     43 H         -47.9989  -68.6459  -17.3470 H         1 MOL     0.0480
     44 H         -47.9672  -64.9732  -17.9854 H         1 MOL     0.0480
     45 H         -48.9495  -66.1423  -17.1207 H         1 MOL     0.0480
     46 H         -49.1090  -65.5102  -19.7960 H         1 MOL     0.0480
     47 H         -49.8522  -66.8861  -18.9615 H         1 MOL     0.0480
     48 H         -45.0877  -67.9052  -17.0487 H         1 MOL     0.0394
     49 H         -43.1066  -66.7878  -15.3282 H         1 MOL     0.0273
     50 H         -43.7113  -65.4029  -15.3981 H         1 MOL     0.0273
     51 H         -42.5465  -67.0725  -17.7794 H         1 MOL     0.0273
     52 H         -43.0566  -65.7326  -18.2750 H         1 MOL     0.0273
     53 H         -47.9916  -62.7747  -22.7118 H         1 MOL     0.0646
     54 H         -50.2925  -62.8601  -23.4258 H         1 MOL     0.0621
     55 H         -53.8905  -61.1009  -24.0877 H         1 MOL     0.1921
@<TRIPOS>BOND
     1    1   18 1 
     2    1   21 1 
     3    1   17 am
     4    2   20 1 
     5    2   22 am
     6    2   19 1 
     7    3    4 ar
     8    3   12 ar
     9    4   55 1 
    10    4    5 ar
    11    5    6 ar
    12    5   29 2 
    13    6    7 ar
    14    6   11 ar
    15    7    8 ar
    16    7   33 1 
    17    8    9 ar
    18    8   34 1 
    19    9   10 ar
    20    9   35 1 
    21   10   11 ar
    22   10   36 1 
    23   11   12 ar
    24   12   13 1 
    25   13   14 1 
    26   13   37 1 
    27   13   38 1 
    28   14   15 ar
    29   14   28 ar
    30   15   16 ar
    31   15   39 1 
    32   16   17 1 
    33   16   26 ar
    34   17   31 2 
    35   18   19 1 
    36   18   40 1 
    37   18   41 1 
    38   19   42 1 
    39   19   43 1 
    40   20   21 1 
    41   20   44 1 
    42   20   45 1 
    43   21   46 1 
    44   21   47 1 
    45   22   23 1 
    46   22   30 2 
    47   23   24 1 
    48   23   25 1 
    49   23   48 1 
    50   24   25 1 
    51   24   49 1 
    52   24   50 1 
    53   25   51 1 
    54   25   52 1 
    55   26   27 ar
    56   26   32 1 
    57   27   28 ar
    58   27   53 1 
    59   28   54 1 
@<TRIPOS>SUBSTRUCTURE
1 MOL         1
@<TRIPOS>MOLECULE
query molecule
   55    59     1     0     0
SMALL
NO_CHARGE

@<TRIPOS>ATOM
      1 N         -35.1582  -65.7883  -26.5900 N.am      1 MOL    -0.2945
      2 N         -35.6918  -67.7065  -28.2585 N.am      1 MOL    -0.2983
      3 N         -38.3318  -61.4239  -29.4941 N.ar      1 MOL    -0.1750
      4 N         -39.5577  -61.0555  -29.2112 N.ar      1 MOL    -0.2425
      5 C         -39.8613  -59.8693  -28.6655 C.ar      1 MOL     0.2725
      6 C         -38.8386  -58.9870  -28.3843 C.ar      1 MOL     0.0496
      7 C         -39.0971  -57.7474  -27.7979 C.ar      1 MOL     0.0138
      8 C         -38.0575  -56.8908  -27.5062 C.ar      1 MOL     0.0008
      9 C         -36.7856  -57.3219  -27.8187 C.ar      1 MOL     0.0007
     10 C         -36.5145  -58.5491  -28.4003 C.ar      1 MOL     0.0103
     11 C         -37.5506  -59.3883  -28.6872 C.ar      1 MOL     0.0106
     12 C         -37.2637  -60.6049  -29.2458 C.ar      1 MOL     0.0736
     13 C         -35.9624  -61.1067  -29.6676 C.3       1 MOL     0.0925
     14 C         -35.1932  -61.6152  -28.4984 C.ar      1 MOL    -0.0406
     15 C         -35.7131  -62.7702  -27.8874 C.ar      1 MOL     0.0196
     16 C         -35.0787  -63.3095  -26.7940 C.ar      1 MOL     0.0723
     17 C         -35.6032  -64.5224  -26.1268 C.2       1 MOL     0.2495
     18 C         -35.6379  -66.9803  -25.9686 C.3       1 MOL     0.1268
     19 C         -35.6137  -68.1740  -26.8989 C.3       1 MOL     0.1265
     20 C         -34.5910  -66.8627  -28.7360 C.3       1 MOL     0.1265
     21 C         -34.2175  -65.8402  -27.6937 C.3       1 MOL     0.1268
     22 C         -36.7584  -68.0282  -29.1029 C.2       1 MOL     0.2187
     23 C         -37.9306  -68.8424  -28.7711 C.3       1 MOL     0.0752
     24 C         -38.3229  -68.8827  -27.3114 C.3       1 MOL     0.0134
     25 C         -37.7976  -70.0839  -27.9645 C.3       1 MOL     0.0134
     26 C         -33.9362  -62.7763  -26.2459 C.ar      1 MOL     0.1355
     27 C         -33.4282  -61.6457  -26.8448 C.ar      1 MOL     0.0392
     28 C         -34.0736  -61.0923  -27.9599 C.ar      1 MOL     0.0066
     29 O         -41.0305  -59.4976  -28.3883 O.2       1 MOL    -0.2658
     30 O         -36.7272  -67.5706  -30.3008 O.2       1 MOL    -0.2753
     31 O         -36.4178  -64.4631  -25.1773 O.2       1 MOL    -0.2699
     32 F         -33.3435  -63.3490  -25.1581 F         1 MOL    -0.2047
     33 H         -40.0679  -57.4712  -27.5828 H         1 MOL     0.0625
     34 H         -38.2236  -55.9697  -27.0734 H         1 MOL     0.0618
     35 H         -35.9930  -56.6964  -27.6073 H         1 MOL     0.0618
     36 H         -35.5432  -58.8252  -28.6140 H         1 MOL     0.0624
     37 H         -35.4134  -60.3149  -30.1329 H         1 MOL     0.0377
     38 H         -36.1098  -61.9110  -30.3582 H         1 MOL     0.0377
     39 H         -36.5687  -63.2114  -28.2587 H         1 MOL     0.0629
     40 H         -36.6453  -66.8169  -25.6465 H         1 MOL     0.0480
     41 H         -34.9898  -67.1988  -25.1451 H         1 MOL     0.0480
     42 H         -36.4476  -68.8102  -26.6887 H         1 MOL     0.0480
     43 H         -34.7083  -68.7265  -26.7562 H         1 MOL     0.0480
     44 H         -34.8949  -66.3586  -29.6294 H         1 MOL     0.0480
     45 H         -33.7402  -67.4813  -28.9322 H         1 MOL     0.0480
     46 H         -34.1834  -64.8764  -28.1573 H         1 MOL     0.0480
     47 H         -33.2679  -66.1234  -27.2922 H         1 MOL     0.0480
     48 H         -38.3931  -68.6185  -29.7093 H         1 MOL     0.0394
     49 H         -39.3550  -68.8327  -27.0330 H         1 MOL     0.0273
     50 H         -38.0617  -68.3173  -26.4413 H         1 MOL     0.0273
     51 H         -38.4480  -70.9123  -28.1535 H         1 MOL     0.0273
     52 H         -36.9927  -70.7558  -27.7548 H         1 MOL     0.0273
     53 H         -32.5716  -61.2055  -26.4725 H         1 MOL     0.0646
     54 H         -33.6720  -60.2440  -28.3898 H         1 MOL     0.0621
     55 H         -40.2918  -61.6810  -29.4100 H         1 MOL     0.1921
@<TRIPOS>BOND
     1    1   18 1 
     2    1   21 1 
     3    1   17 am
     4    2   20 1 
     5    2   22 am
     6    2   19 1 
     7    3    4 ar
     8    3   12 ar
     9    4   55 1 
    10    4    5 ar
    11    5    6 ar
    12    5   29 2 
    13    6    7 ar
    14    6   11 ar
    15    7    8 ar
    16    7   33 1 
    17    8    9 ar
    18    8   34 1 
    19    9   10 ar
    20    9   35 1 
    21   10   11 ar
    22   10   36 1 
    23   11   12 ar
    24   12   13 1 
    25   13   14 1 
    26   13   37 1 
    27   13   38 1 
    28   14   15 ar
    29   14   28 ar
    30   15   16 ar
    31   15   39 1 
    32   16   17 1 
    33   16   26 ar
    34   17   31 2 
    35   18   19 1 
    36   18   40 1 
    37   18   41 1 
    38   19   42 1 
    39   19   43 1 
    40   20   21 1 
    41   20   44 1 
    42   20   45 1 
    43   21   46 1 
    44   21   47 1 
    45   22   23 1 
    46   22   30 2 
    47   23   24 1 
    48   23   25 1 
    49   23   48 1 
    50   24   25 1 
    51   24   49 1 
    52   24   50 1 
    53   25   51 1 
    54   25   52 1 
    55   26   27 ar
    56   26   32 1 
    57   27   28 ar
    58   27   53 1 
    59   28   54 1 
@<TRIPOS>SUBSTRUCTURE
1 MOL         1
@<TRIPOS>MOLECULE
query molecule
   55    59     1     0     0
SMALL
NO_CHARGE

@<TRIPOS>ATOM
      1 N          -8.3181  -44.9042  -22.7772 N.am      1 MOL    -0.2945
      2 N          -8.7121  -45.7997  -20.3707 N.am      1 MOL    -0.2983
      3 N          -7.7197  -39.4856  -20.2596 N.ar      1 MOL    -0.1750
      4 N          -8.4580  -39.5113  -19.1766 N.ar      1 MOL    -0.2425
      5 C          -8.1902  -40.2955  -18.1229 C.ar      1 MOL     0.2725
      6 C          -7.0848  -41.1196  -18.1729 C.ar      1 MOL     0.0496
      7 C          -6.7716  -41.9704  -17.1122 C.ar      1 MOL     0.0138
      8 C          -5.6744  -42.8005  -17.1930 C.ar      1 MOL     0.0008
      9 C          -4.9294  -42.7412  -18.3518 C.ar      1 MOL     0.0007
     10 C          -5.2287  -41.9023  -19.4122 C.ar      1 MOL     0.0103
     11 C          -6.3151  -41.0829  -19.3210 C.ar      1 MOL     0.0106
     12 C          -6.6070  -40.2726  -20.3853 C.ar      1 MOL     0.0736
     13 C          -5.8379  -40.1002  -21.6108 C.3       1 MOL     0.0925
     14 C          -6.5225  -40.7612  -22.7561 C.ar      1 MOL    -0.0406
     15 C          -6.6203  -42.1618  -22.6766 C.ar      1 MOL     0.0196
     16 C          -7.2265  -42.8632  -23.6911 C.ar      1 MOL     0.0723
     17 C          -7.3418  -44.3381  -23.6382 C.2       1 MOL     0.2495
     18 C          -8.4625  -46.3222  -22.7028 C.3       1 MOL     0.1268
     19 C          -9.0245  -46.7829  -21.3750 C.3       1 MOL     0.1265
     20 C          -9.2821  -44.4601  -20.5512 C.3       1 MOL     0.1265
     21 C          -9.1537  -44.0194  -21.9867 C.3       1 MOL     0.1268
     22 C          -7.9040  -46.0851  -19.2663 C.2       1 MOL     0.2187
     23 C          -7.2544  -47.3613  -18.9560 C.3       1 MOL     0.0752
     24 C          -7.6530  -48.5391  -19.8163 C.3       1 MOL     0.0134
     25 C          -8.0307  -48.5014  -18.4017 C.3       1 MOL     0.0134
     26 C          -7.7583  -42.2649  -24.8088 C.ar      1 MOL     0.1355
     27 C          -7.6620  -40.8938  -24.8855 C.ar      1 MOL     0.0392
     28 C          -7.0432  -40.1751  -23.8526 C.ar      1 MOL     0.0066
     29 O          -8.8854  -40.3332  -17.0754 O.2       1 MOL    -0.2658
     30 O          -7.6959  -45.1418  -18.4224 O.2       1 MOL    -0.2753
     31 O          -6.6115  -45.0903  -24.3236 O.2       1 MOL    -0.2699
     32 F          -8.3502  -43.0061  -25.7901 F         1 MOL    -0.2047
     33 H          -7.3617  -41.9777  -16.2656 H         1 MOL     0.0625
     34 H          -5.4226  -43.4374  -16.4221 H         1 MOL     0.0618
     35 H          -4.1046  -43.3554  -18.4333 H         1 MOL     0.0618
     36 H          -4.6387  -41.8963  -20.2590 H         1 MOL     0.0624
     37 H          -4.8682  -40.5341  -21.4821 H         1 MOL     0.0377
     38 H          -5.7509  -39.0541  -21.8196 H         1 MOL     0.0377
     39 H          -6.2377  -42.6615  -21.8590 H         1 MOL     0.0629
     40 H          -7.5015  -46.7720  -22.8430 H         1 MOL     0.0480
     41 H          -9.1526  -46.6173  -23.4661 H         1 MOL     0.0480
     42 H          -8.5885  -47.7222  -21.1069 H         1 MOL     0.0480
     43 H         -10.0856  -46.8996  -21.4514 H         1 MOL     0.0480
     44 H          -8.7616  -43.7677  -19.9233 H         1 MOL     0.0480
     45 H         -10.3196  -44.4871  -20.2906 H         1 MOL     0.0480
     46 H          -8.7249  -43.0392  -22.0062 H         1 MOL     0.0480
     47 H         -10.1328  -44.0351  -22.4160 H         1 MOL     0.0480
     48 H          -6.3534  -46.8681  -18.6572 H         1 MOL     0.0394
     49 H          -6.9098  -49.2312  -20.1537 H         1 MOL     0.0273
     50 H          -8.1816  -48.6581  -20.7390 H         1 MOL     0.0273
     51 H          -7.5668  -49.1739  -17.7107 H         1 MOL     0.0273
     52 H          -8.9566  -48.5883  -17.8740 H         1 MOL     0.0273
     53 H          -8.0459  -40.3949  -25.7040 H         1 MOL     0.0646
     54 H          -6.9839  -39.1479  -23.9352 H         1 MOL     0.0621
     55 H          -9.2481  -38.9250  -19.1351 H         1 MOL     0.1921
@<TRIPOS>BOND
     1    1   18 1 
     2    1   21 1 
     3    1   17 am
     4    2   20 1 
     5    2   22 am
     6    2   19 1 
     7    3    4 ar
     8    3   12 ar
     9    4   55 1 
    10    4    5 ar
    11    5    6 ar
    12    5   29 2 
    13    6    7 ar
    14    6   11 ar
    15    7    8 ar
    16    7   33 1 
    17    8    9 ar
    18    8   34 1 
    19    9   10 ar
    20    9   35 1 
    21   10   11 ar
    22   10   36 1 
    23   11   12 ar
    24   12   13 1 
    25   13   14 1 
    26   13   37 1 
    27   13   38 1 
    28   14   15 ar
    29   14   28 ar
    30   15   16 ar
    31   15   39 1 
    32   16   17 1 
    33   16   26 ar
    34   17   31 2 
    35   18   19 1 
    36   18   40 1 
    37   18   41 1 
    38   19   42 1 
    39   19   43 1 
    40   20   21 1 
    41   20   44 1 
    42   20   45 1 
    43   21   46 1 
    44   21   47 1 
    45   22   23 1 
    46   22   30 2 
    47   23   24 1 
    48   23   25 1 
    49   23   48 1 
    50   24   25 1 
    51   24   49 1 
    52   24   50 1 
    53   25   51 1 
    54   25   52 1 
    55   26   27 ar
    56   26   32 1 
    57   27   28 ar
    58   27   53 1 
    59   28   54 1 
@<TRIPOS>SUBSTRUCTURE
1 MOL         1
@<TRIPOS>MOLECULE
query molecule
   55    59     1     0     0
SMALL
NO_CHARGE

@<TRIPOS>ATOM
      1 N         -59.0093  -76.0768  -23.4057 N.am      1 MOL    -0.2945
      2 N         -59.7439  -75.6809  -20.9456 N.am      1 MOL    -0.2983
      3 N         -54.8481  -78.1356  -20.6436 N.ar      1 MOL    -0.1750
      4 N         -54.5404  -77.4109  -19.5955 N.ar      1 MOL    -0.2425
      5 C         -53.3114  -76.9238  -19.3736 C.ar      1 MOL     0.2725
      6 C         -52.3151  -77.1946  -20.2888 C.ar      1 MOL     0.0496
      7 C         -51.0138  -76.7291  -20.0964 C.ar      1 MOL     0.0138
      8 C         -50.0297  -77.0299  -21.0132 C.ar      1 MOL     0.0008
      9 C         -50.3989  -77.7970  -22.0979 C.ar      1 MOL     0.0007
     10 C         -51.6860  -78.2659  -22.3012 C.ar      1 MOL     0.0103
     11 C         -52.6530  -77.9604  -21.3894 C.ar      1 MOL     0.0106
     12 C         -53.9160  -78.4466  -21.5964 C.ar      1 MOL     0.0736
     13 C         -54.4028  -79.2020  -22.7434 C.3       1 MOL     0.0925
     14 C         -55.0405  -78.2937  -23.7362 C.ar      1 MOL    -0.0406
     15 C         -56.4248  -78.1016  -23.5796 C.ar      1 MOL     0.0196
     16 C         -57.1051  -77.2883  -24.4539 C.ar      1 MOL     0.0723
     17 C         -58.5627  -77.0689  -24.3174 C.2       1 MOL     0.2495
     18 C         -60.4070  -75.8331  -23.2502 C.3       1 MOL     0.1268
     19 C         -60.7540  -75.2735  -21.8873 C.3       1 MOL     0.1265
     20 C         -58.3779  -75.2040  -21.1874 C.3       1 MOL     0.1265
     21 C         -58.0251  -75.3272  -22.6474 C.3       1 MOL     0.1268
     22 C         -60.0282  -76.4943  -19.8448 C.2       1 MOL     0.2187
     23 C         -61.3300  -77.0584  -19.4787 C.3       1 MOL     0.0752
     24 C         -62.1738  -76.2313  -18.5353 C.3       1 MOL     0.0134
     25 C         -61.6075  -77.5060  -18.0886 C.3       1 MOL     0.0134
     26 C         -56.5005  -76.6324  -25.4999 C.ar      1 MOL     0.1355
     27 C         -55.1455  -76.8213  -25.6523 C.ar      1 MOL     0.0392
     28 C         -54.4484  -77.6513  -24.7627 C.ar      1 MOL     0.0066
     29 O         -52.9975  -76.2260  -18.3754 O.2       1 MOL    -0.2658
     30 O         -59.0589  -76.7909  -19.0588 O.2       1 MOL    -0.2753
     31 O         -59.4017  -77.7258  -24.9758 O.2       1 MOL    -0.2699
     32 F         -57.2206  -75.8355  -26.3420 F         1 MOL    -0.2047
     33 H         -50.7879  -76.1582  -19.2670 H         1 MOL     0.0625
     34 H         -49.0612  -76.6969  -20.8929 H         1 MOL     0.0618
     35 H         -49.6771  -78.0347  -22.7954 H         1 MOL     0.0618
     36 H         -51.9110  -78.8378  -23.1305 H         1 MOL     0.0624
     37 H         -55.1218  -79.9217  -22.4118 H         1 MOL     0.0377
     38 H         -53.5744  -79.6937  -23.2098 H         1 MOL     0.0377
     39 H         -56.9283  -78.5703  -22.8106 H         1 MOL     0.0629
     40 H         -60.9326  -76.7555  -23.3860 H         1 MOL     0.0480
     41 H         -60.6913  -75.1045  -23.9811 H         1 MOL     0.0480
     42 H         -61.7070  -75.6476  -21.5773 H         1 MOL     0.0480
     43 H         -60.7969  -74.2051  -21.9344 H         1 MOL     0.0480
     44 H         -57.6928  -75.7886  -20.6099 H         1 MOL     0.0480
     45 H         -58.3152  -74.1742  -20.9035 H         1 MOL     0.0480
     46 H         -57.0811  -75.8245  -22.7300 H         1 MOL     0.0480
     47 H         -57.9921  -74.3389  -23.0540 H         1 MOL     0.0480
     48 H         -61.4365  -77.5209  -20.4374 H         1 MOL     0.0394
     49 H         -63.2276  -76.1416  -18.6987 H         1 MOL     0.0273
     50 H         -62.1440  -75.2225  -18.1797 H         1 MOL     0.0273
     51 H         -62.2527  -78.3426  -17.9187 H         1 MOL     0.0273
     52 H         -60.9959  -77.8024  -17.2632 H         1 MOL     0.0273
     53 H         -54.6426  -76.3512  -26.4220 H         1 MOL     0.0646
     54 H         -53.4328  -77.7760  -24.8996 H         1 MOL     0.0621
     55 H         -55.2476  -77.2141  -18.9389 H         1 MOL     0.1921
@<TRIPOS>BOND
     1    1   18 1 
     2    1   21 1 
     3    1   17 am
     4    2   20 1 
     5    2   22 am
     6    2   19 1 
     7    3    4 ar
     8    3   12 ar
     9    4   55 1 
    10    4    5 ar
    11    5    6 ar
    12    5   29 2 
    13    6    7 ar
    14    6   11 ar
    15    7    8 ar
    16    7   33 1 
    17    8    9 ar
    18    8   34 1 
    19    9   10 ar
    20    9   35 1 
    21   10   11 ar
    22   10   36 1 
    23   11   12 ar
    24   12   13 1 
    25   13   14 1 
    26   13   37 1 
    27   13   38 1 
    28   14   15 ar
    29   14   28 ar
    30   15   16 ar
    31   15   39 1 
    32   16   17 1 
    33   16   26 ar
    34   17   31 2 
    35   18   19 1 
    36   18   40 1 
    37   18   41 1 
    38   19   42 1 
    39   19   43 1 
    40   20   21 1 
    41   20   44 1 
    42   20   45 1 
    43   21   46 1 
    44   21   47 1 
    45   22   23 1 
    46   22   30 2 
    47   23   24 1 
    48   23   25 1 
    49   23   48 1 
    50   24   25 1 
    51   24   49 1 
    52   24   50 1 
    53   25   51 1 
    54   25   52 1 
    55   26   27 ar
    56   26   32 1 
    57   27   28 ar
    58   27   53 1 
    59   28   54 1 
@<TRIPOS>SUBSTRUCTURE
1 MOL         1
@<TRIPOS>MOLECULE
query molecule
   55    59     1     0     0
SMALL
NO_CHARGE

@<TRIPOS>ATOM
      1 N         -64.9220  -78.8872   16.3318 N.am      1 MOL    -0.2945
      2 N         -67.1974  -77.6718   16.6376 N.am      1 MOL    -0.2983
      3 N         -61.4560  -76.1150   10.7943 N.ar      1 MOL    -0.1750
      4 N         -60.6748  -75.4372    9.9887 N.ar      1 MOL    -0.2425
      5 C         -59.6272  -75.9796    9.3521 C.ar      1 MOL     0.2725
      6 C         -59.3505  -77.3168    9.5494 C.ar      1 MOL     0.0496
      7 C         -58.2605  -77.9266    8.9272 C.ar      1 MOL     0.0138
      8 C         -57.9906  -79.2587    9.1558 C.ar      1 MOL     0.0008
      9 C         -58.8372  -79.9301   10.0123 C.ar      1 MOL     0.0007
     10 C         -59.9221  -79.3377   10.6368 C.ar      1 MOL     0.0103
     11 C         -60.1819  -78.0197   10.4018 C.ar      1 MOL     0.0106
     12 C         -61.2477  -77.4451   11.0408 C.ar      1 MOL     0.0736
     13 C         -62.2262  -78.0958   11.9023 C.3       1 MOL     0.0925
     14 C         -61.9729  -77.7586   13.3304 C.ar      1 MOL    -0.0406
     15 C         -62.8122  -78.3962   14.2613 C.ar      1 MOL     0.0196
     16 C         -62.6626  -78.1411   15.6034 C.ar      1 MOL     0.0723
     17 C         -63.5327  -78.7939   16.6075 C.2       1 MOL     0.2495
     18 C         -65.7921  -79.5142   17.2736 C.3       1 MOL     0.1268
     19 C         -67.2142  -79.0036   17.1845 C.3       1 MOL     0.1265
     20 C         -66.6799  -77.5193   15.2735 C.3       1 MOL     0.1265
     21 C         -65.4285  -78.3384   15.0876 C.3       1 MOL     0.1268
     22 C         -67.6475  -76.5598   17.3552 C.2       1 MOL     0.2187
     23 C         -68.1753  -76.5477   18.7221 C.3       1 MOL     0.0752
     24 C         -69.6120  -76.1032   18.8783 C.3       1 MOL     0.0134
     25 C         -68.5247  -75.2703   19.3972 C.3       1 MOL     0.0134
     26 C         -61.7175  -77.2786   16.1064 C.ar      1 MOL     0.1355
     27 C         -60.8966  -76.6549   15.1943 C.ar      1 MOL     0.0392
     28 C         -61.0472  -76.9122   13.8241 C.ar      1 MOL     0.0066
     29 O         -58.8676  -75.3465    8.5749 O.2       1 MOL    -0.2658
     30 O         -67.6010  -75.4179   16.7729 O.2       1 MOL    -0.2753
     31 O         -63.0825  -79.2603   17.6792 O.2       1 MOL    -0.2699
     32 F         -61.6091  -77.0580   17.4489 F         1 MOL    -0.2047
     33 H         -57.6559  -77.3799    8.2943 H         1 MOL     0.0625
     34 H         -57.1915  -79.7313    8.7072 H         1 MOL     0.0618
     35 H         -58.6522  -80.9278   10.1982 H         1 MOL     0.0618
     36 H         -60.5257  -79.8849   11.2706 H         1 MOL     0.0624
     37 H         -62.1590  -79.1560   11.7736 H         1 MOL     0.0377
     38 H         -63.2039  -77.7516   11.6360 H         1 MOL     0.0377
     39 H         -63.5385  -79.0536   13.9376 H         1 MOL     0.0629
     40 H         -65.4215  -79.3263   18.2599 H         1 MOL     0.0480
     41 H         -65.8096  -80.5610   17.0504 H         1 MOL     0.0480
     42 H         -67.6516  -78.9864   18.1605 H         1 MOL     0.0480
     43 H         -67.7918  -79.6477   16.5544 H         1 MOL     0.0480
     44 H         -66.4549  -76.4888   15.0947 H         1 MOL     0.0480
     45 H         -67.4212  -77.8609   14.5815 H         1 MOL     0.0480
     46 H         -64.6725  -77.7147   14.6582 H         1 MOL     0.0480
     47 H         -65.6753  -79.1615   14.4514 H         1 MOL     0.0480
     48 H         -67.5716  -77.3866   18.9981 H         1 MOL     0.0394
     49 H         -70.2612  -76.6187   19.5550 H         1 MOL     0.0273
     50 H         -70.4333  -75.9477   18.2102 H         1 MOL     0.0273
     51 H         -68.3886  -75.1736   20.4542 H         1 MOL     0.0273
     52 H         -68.2359  -74.2499   19.2606 H         1 MOL     0.0273
     53 H         -60.1697  -75.9977   15.5196 H         1 MOL     0.0646
     54 H         -60.4188  -76.4310   13.1614 H         1 MOL     0.0621
     55 H         -60.8677  -74.4825    9.8437 H         1 MOL     0.1921
@<TRIPOS>BOND
     1    1   18 1 
     2    1   21 1 
     3    1   17 am
     4    2   20 1 
     5    2   22 am
     6    2   19 1 
     7    3    4 ar
     8    3   12 ar
     9    4   55 1 
    10    4    5 ar
    11    5    6 ar
    12    5   29 2 
    13    6    7 ar
    14    6   11 ar
    15    7    8 ar
    16    7   33 1 
    17    8    9 ar
    18    8   34 1 
    19    9   10 ar
    20    9   35 1 
    21   10   11 ar
    22   10   36 1 
    23   11   12 ar
    24   12   13 1 
    25   13   14 1 
    26   13   37 1 
    27   13   38 1 
    28   14   15 ar
    29   14   28 ar
    30   15   16 ar
    31   15   39 1 
    32   16   17 1 
    33   16   26 ar
    34   17   31 2 
    35   18   19 1 
    36   18   40 1 
    37   18   41 1 
    38   19   42 1 
    39   19   43 1 
    40   20   21 1 
    41   20   44 1 
    42   20   45 1 
    43   21   46 1 
    44   21   47 1 
    45   22   23 1 
    46   22   30 2 
    47   23   24 1 
    48   23   25 1 
    49   23   48 1 
    50   24   25 1 
    51   24   49 1 
    52   24   50 1 
    53   25   51 1 
    54   25   52 1 
    55   26   27 ar
    56   26   32 1 
    57   27   28 ar
    58   27   53 1 
    59   28   54 1 
@<TRIPOS>SUBSTRUCTURE
1 MOL         1
@<TRIPOS>MOLECULE
query molecule
   55    59     1     0     0
SMALL
NO_CHARGE

@<TRIPOS>ATOM
      1 N           0.4461  -66.5595    5.3684 N.am      1 MOL    -0.2945
      2 N          -0.7038  -65.0184    3.6216 N.am      1 MOL    -0.2983
      3 N          -1.0913  -70.9870   10.1118 N.ar      1 MOL    -0.1750
      4 N          -1.6031  -72.1825   10.2775 N.ar      1 MOL    -0.2425
      5 C          -1.3752  -72.9358   11.3627 C.ar      1 MOL     0.2725
      6 C          -0.5624  -72.4354   12.3590 C.ar      1 MOL     0.0496
      7 C          -0.2761  -73.1856   13.5002 C.ar      1 MOL     0.0138
      8 C           0.5557  -72.6740   14.4727 C.ar      1 MOL     0.0008
      9 C           1.0728  -71.4146   14.2541 C.ar      1 MOL     0.0007
     10 C           0.7976  -70.6593   13.1264 C.ar      1 MOL     0.0103
     11 C          -0.0288  -71.1737   12.1713 C.ar      1 MOL     0.0106
     12 C          -0.2764  -70.4212   11.0547 C.ar      1 MOL     0.0736
     13 C           0.1721  -69.0626   10.7787 C.3       1 MOL     0.0925
     14 C          -0.5540  -68.4992    9.6071 C.ar      1 MOL    -0.0406
     15 C           0.1854  -68.4291    8.4129 C.ar      1 MOL     0.0196
     16 C          -0.3953  -67.9141    7.2788 C.ar      1 MOL     0.0723
     17 C           0.3579  -67.8238    6.0076 C.2       1 MOL     0.2495
     18 C           1.1679  -66.4319    4.1437 C.3       1 MOL     0.1268
     19 C           0.6720  -65.2842    3.2905 C.3       1 MOL     0.1265
     20 C          -0.9861  -64.5870    4.9949 C.3       1 MOL     0.1265
     21 C          -0.2053  -65.4168    5.9814 C.3       1 MOL     0.1268
     22 C          -1.7400  -65.1592    2.6938 C.2       1 MOL     0.2187
     23 C          -1.6211  -65.5917    1.2989 C.3       1 MOL     0.0752
     24 C          -1.2477  -64.5213    0.2984 C.3       1 MOL     0.0134
     25 C          -2.5827  -65.1229    0.2668 C.3       1 MOL     0.0134
     26 C          -1.6892  -67.4512    7.2375 C.ar      1 MOL     0.1355
     27 C          -2.4119  -67.5202    8.4070 C.ar      1 MOL     0.0392
     28 C          -1.8222  -68.0442    9.5663 C.ar      1 MOL     0.0066
     29 O          -1.8579  -74.0835   11.5402 O.2       1 MOL    -0.2658
     30 O          -2.9303  -64.8863    3.0861 O.2       1 MOL    -0.2753
     31 O           0.9125  -68.8193    5.4876 O.2       1 MOL    -0.2699
     32 F          -2.2205  -66.9477    6.0855 F         1 MOL    -0.2047
     33 H          -0.6882  -74.1245   13.6167 H         1 MOL     0.0625
     34 H           0.7815  -73.2091   15.3247 H         1 MOL     0.0618
     35 H           1.6988  -71.0136   14.9692 H         1 MOL     0.0618
     36 H           1.2110  -69.7207   13.0100 H         1 MOL     0.0624
     37 H           1.2216  -69.0735   10.5706 H         1 MOL     0.0377
     38 H          -0.0296  -68.4519   11.6342 H         1 MOL     0.0377
     39 H           1.1613  -68.7631    8.3884 H         1 MOL     0.0629
     40 H           1.0644  -67.3413    3.5890 H         1 MOL     0.0480
     41 H           2.1905  -66.2333    4.3905 H         1 MOL     0.0480
     42 H           0.7491  -65.5460    2.2562 H         1 MOL     0.0480
     43 H           1.2650  -64.4126    3.4753 H         1 MOL     0.0480
     44 H          -2.0318  -64.6988    5.1919 H         1 MOL     0.0480
     45 H          -0.6977  -63.5622    5.1023 H         1 MOL     0.0480
     46 H          -0.8761  -65.7719    6.7357 H         1 MOL     0.0480
     47 H           0.5605  -64.7928    6.3903 H         1 MOL     0.0480
     48 H          -1.2684  -66.5576    1.5936 H         1 MOL     0.0394
     49 H          -0.5447  -64.7372   -0.4791 H         1 MOL     0.0273
     50 H          -0.8675  -63.5233    0.3639 H         1 MOL     0.0273
     51 H          -2.8535  -65.7711   -0.5404 H         1 MOL     0.0273
     52 H          -3.5779  -64.7328    0.2954 H         1 MOL     0.0273
     53 H          -3.3887  -67.1862    8.4300 H         1 MOL     0.0646
     54 H          -2.3862  -68.0843   10.4299 H         1 MOL     0.0621
     55 H          -2.1844  -72.5447    9.5699 H         1 MOL     0.1921
@<TRIPOS>BOND
     1    1   18 1 
     2    1   21 1 
     3    1   17 am
     4    2   20 1 
     5    2   22 am
     6    2   19 1 
     7    3    4 ar
     8    3   12 ar
     9    4   55 1 
    10    4    5 ar
    11    5    6 ar
    12    5   29 2 
    13    6    7 ar
    14    6   11 ar
    15    7    8 ar
    16    7   33 1 
    17    8    9 ar
    18    8   34 1 
    19    9   10 ar
    20    9   35 1 
    21   10   11 ar
    22   10   36 1 
    23   11   12 ar
    24   12   13 1 
    25   13   14 1 
    26   13   37 1 
    27   13   38 1 
    28   14   15 ar
    29   14   28 ar
    30   15   16 ar
    31   15   39 1 
    32   16   17 1 
    33   16   26 ar
    34   17   31 2 
    35   18   19 1 
    36   18   40 1 
    37   18   41 1 
    38   19   42 1 
    39   19   43 1 
    40   20   21 1 
    41   20   44 1 
    42   20   45 1 
    43   21   46 1 
    44   21   47 1 
    45   22   23 1 
    46   22   30 2 
    47   23   24 1 
    48   23   25 1 
    49   23   48 1 
    50   24   25 1 
    51   24   49 1 
    52   24   50 1 
    53   25   51 1 
    54   25   52 1 
    55   26   27 ar
    56   26   32 1 
    57   27   28 ar
    58   27   53 1 
    59   28   54 1 
@<TRIPOS>SUBSTRUCTURE
1 MOL         1
@<TRIPOS>MOLECULE
query molecule
   55    59     1     0     0
SMALL
NO_CHARGE

@<TRIPOS>ATOM
      1 N         -13.4160  -76.3249   25.6412 N.am      1 MOL    -0.2945
      2 N         -15.3247  -74.7711   24.8100 N.am      1 MOL    -0.2983
      3 N         -15.3173  -79.9325   21.8802 N.ar      1 MOL    -0.1750
      4 N         -16.6012  -79.9463   21.6157 N.ar      1 MOL    -0.2425
      5 C         -17.2485  -81.0326   21.1709 C.ar      1 MOL     0.2725
      6 C         -16.5350  -82.1979   20.9790 C.ar      1 MOL     0.0496
      7 C         -17.1553  -83.3519   20.4987 C.ar      1 MOL     0.0138
      8 C         -16.4184  -84.4985   20.2944 C.ar      1 MOL     0.0008
      9 C         -15.0717  -84.4361   20.5834 C.ar      1 MOL     0.0007
     10 C         -14.4430  -83.2979   21.0601 C.ar      1 MOL     0.0103
     11 C         -15.1817  -82.1694   21.2613 C.ar      1 MOL     0.0106
     12 C         -14.5414  -81.0480   21.7162 C.ar      1 MOL     0.0736
     13 C         -13.1442  -80.9174   22.1084 C.3       1 MOL     0.0925
     14 C         -13.0374  -80.4698   23.5245 C.ar      1 MOL    -0.0406
     15 C         -12.7680  -79.1019   23.7086 C.ar      1 MOL     0.0196
     16 C         -12.6411  -78.5953   24.9798 C.ar      1 MOL     0.0723
     17 C         -12.3543  -77.1608   25.2061 C.2       1 MOL     0.2495
     18 C         -13.1770  -74.9373   25.8747 C.3       1 MOL     0.1268
     19 C         -14.4220  -74.0936   25.7040 C.3       1 MOL     0.1265
     20 C         -15.8370  -76.0753   25.2444 C.3       1 MOL     0.1265
     21 C         -14.7303  -76.9068   25.8401 C.3       1 MOL     0.1268
     22 C         -15.7086  -74.2310   23.5791 C.2       1 MOL     0.2187
     23 C         -15.2752  -72.9554   23.0029 C.3       1 MOL     0.0752
     24 C         -15.4566  -71.7337   23.8750 C.3       1 MOL     0.0134
     25 C         -16.2596  -71.8953   22.6609 C.3       1 MOL     0.0134
     26 C         -12.7652  -79.3630   26.1135 C.ar      1 MOL     0.1355
     27 C         -13.0288  -80.7018   25.9321 C.ar      1 MOL     0.0392
     28 C         -13.1579  -81.2222   24.6364 C.ar      1 MOL     0.0066
     29 O         -18.4790  -81.0658   20.9131 O.2       1 MOL    -0.2658
     30 O         -16.5270  -74.9096   22.8615 O.2       1 MOL    -0.2753
     31 O         -11.2156  -76.6708   25.0270 O.2       1 MOL    -0.2699
     32 F         -12.6297  -78.8125   27.3550 F         1 MOL    -0.2047
     33 H         -18.1674  -83.3473   20.2969 H         1 MOL     0.0625
     34 H         -16.8545  -85.3634   19.9408 H         1 MOL     0.0618
     35 H         -14.5015  -85.2831   20.4362 H         1 MOL     0.0618
     36 H         -13.4305  -83.3030   21.2606 H         1 MOL     0.0624
     37 H         -12.6662  -80.1995   21.4751 H         1 MOL     0.0377
     38 H         -12.6681  -81.8711   22.0125 H         1 MOL     0.0377
     39 H         -12.6655  -78.4803   22.8915 H         1 MOL     0.0629
     40 H         -12.4345  -74.5966   25.1832 H         1 MOL     0.0480
     41 H         -12.8511  -74.8317   26.8889 H         1 MOL     0.0480
     42 H         -14.1574  -73.1414   25.2947 H         1 MOL     0.0480
     43 H         -14.8934  -73.9467   26.6536 H         1 MOL     0.0480
     44 H         -16.2492  -76.5906   24.4022 H         1 MOL     0.0480
     45 H         -16.5908  -75.9212   25.9881 H         1 MOL     0.0480
     46 H         -14.7465  -77.8746   25.3838 H         1 MOL     0.0480
     47 H         -14.9008  -76.9601   26.8943 H         1 MOL     0.0480
     48 H         -14.4852  -73.4308   22.4605 H         1 MOL     0.0394
     49 H         -14.6915  -70.9865   23.9154 H         1 MOL     0.0273
     50 H         -15.6723  -71.5675   24.9099 H         1 MOL     0.0273
     51 H         -16.0831  -71.2582   21.8195 H         1 MOL     0.0273
     52 H         -17.3085  -71.8888   22.4535 H         1 MOL     0.0273
     53 H         -13.1318  -81.3227   26.7508 H         1 MOL     0.0646
     54 H         -13.3553  -82.2296   24.5284 H         1 MOL     0.0621
     55 H         -17.1157  -79.1176   21.7512 H         1 MOL     0.1921
@<TRIPOS>BOND
     1    1   18 1 
     2    1   21 1 
     3    1   17 am
     4    2   20 1 
     5    2   22 am
     6    2   19 1 
     7    3    4 ar
     8    3   12 ar
     9    4   55 1 
    10    4    5 ar
    11    5    6 ar
    12    5   29 2 
    13    6    7 ar
    14    6   11 ar
    15    7    8 ar
    16    7   33 1 
    17    8    9 ar
    18    8   34 1 
    19    9   10 ar
    20    9   35 1 
    21   10   11 ar
    22   10   36 1 
    23   11   12 ar
    24   12   13 1 
    25   13   14 1 
    26   13   37 1 
    27   13   38 1 
    28   14   15 ar
    29   14   28 ar
    30   15   16 ar
    31   15   39 1 
    32   16   17 1 
    33   16   26 ar
    34   17   31 2 
    35   18   19 1 
    36   18   40 1 
    37   18   41 1 
    38   19   42 1 
    39   19   43 1 
    40   20   21 1 
    41   20   44 1 
    42   20   45 1 
    43   21   46 1 
    44   21   47 1 
    45   22   23 1 
    46   22   30 2 
    47   23   24 1 
    48   23   25 1 
    49   23   48 1 
    50   24   25 1 
    51   24   49 1 
    52   24   50 1 
    53   25   51 1 
    54   25   52 1 
    55   26   27 ar
    56   26   32 1 
    57   27   28 ar
    58   27   53 1 
    59   28   54 1 
@<TRIPOS>SUBSTRUCTURE
1 MOL         1
@<TRIPOS>MOLECULE
query molecule
   55    59     1     0     0
SMALL
NO_CHARGE

@<TRIPOS>ATOM
      1 N         -70.5859  -75.4357   -0.6661 N.am      1 MOL    -0.2945
      2 N         -71.4830  -75.5652   -3.1006 N.am      1 MOL    -0.2983
      3 N         -65.5264  -75.1691    2.4853 N.ar      1 MOL    -0.1750
      4 N         -65.0334  -75.4237    3.6730 N.ar      1 MOL    -0.2425
      5 C         -63.7741  -75.8374    3.8729 C.ar      1 MOL     0.2725
      6 C         -62.9497  -76.0065    2.7796 C.ar      1 MOL     0.0496
      7 C         -61.6366  -76.4542    2.9295 C.ar      1 MOL     0.0138
      8 C         -60.8378  -76.6363    1.8212 C.ar      1 MOL     0.0008
      9 C         -61.3998  -76.3587    0.5930 C.ar      1 MOL     0.0007
     10 C         -62.7011  -75.9142    0.4295 C.ar      1 MOL     0.0103
     11 C         -63.4823  -75.7349    1.5329 C.ar      1 MOL     0.0106
     12 C         -64.7719  -75.3118    1.3523 C.ar      1 MOL     0.0736
     13 C         -65.4183  -74.9331    0.1026 C.3       1 MOL     0.0925
     14 C         -66.5855  -74.0464    0.3644 C.ar      1 MOL    -0.0406
     15 C         -67.8462  -74.6636    0.2791 C.ar      1 MOL     0.0196
     16 C         -68.9849  -73.9249    0.4944 C.ar      1 MOL     0.0723
     17 C         -70.3263  -74.5450    0.4083 C.2       1 MOL     0.2495
     18 C         -71.8658  -76.0568   -0.7799 C.3       1 MOL     0.1268
     19 C         -72.2097  -76.4285   -2.2063 C.3       1 MOL     0.1265
     20 C         -70.0188  -75.6432   -3.0571 C.3       1 MOL     0.1265
     21 C         -69.5338  -75.6959   -1.6311 C.3       1 MOL     0.1268
     22 C         -72.1219  -74.6841   -3.9780 C.2       1 MOL     0.2187
     23 C         -73.5654  -74.4818   -4.1278 C.3       1 MOL     0.0752
     24 C         -74.3860  -75.7189   -4.4146 C.3       1 MOL     0.0134
     25 C         -74.2353  -74.6834   -5.4394 C.3       1 MOL     0.0134
     26 C         -68.9680  -72.5839    0.7969 C.ar      1 MOL     0.1355
     27 C         -67.7334  -71.9807    0.8801 C.ar      1 MOL     0.0392
     28 C         -66.5696  -72.7313    0.6600 C.ar      1 MOL     0.0066
     29 O         -63.2830  -76.0854    5.0039 O.2       1 MOL    -0.2658
     30 O         -71.3831  -73.9660   -4.7420 O.2       1 MOL    -0.2753
     31 O         -71.2266  -74.3087    1.2464 O.2       1 MOL    -0.2699
     32 F         -70.1274  -71.8935    1.0013 F         1 MOL    -0.2047
     33 H         -61.2626  -76.6487    3.8715 H         1 MOL     0.0625
     34 H         -59.8644  -76.9657    1.9067 H         1 MOL     0.0618
     35 H         -60.8193  -76.4896   -0.2497 H         1 MOL     0.0618
     36 H         -63.0749  -75.7210   -0.5130 H         1 MOL     0.0624
     37 H         -65.7526  -75.8152   -0.4026 H         1 MOL     0.0377
     38 H         -64.7135  -74.4035   -0.5041 H         1 MOL     0.0377
     39 H         -67.9161  -75.6684    0.0551 H         1 MOL     0.0629
     40 H         -72.6090  -75.3794   -0.4134 H         1 MOL     0.0480
     41 H         -71.8382  -76.9612   -0.2076 H         1 MOL     0.0480
     42 H         -73.2607  -76.3087   -2.3654 H         1 MOL     0.0480
     43 H         -71.9429  -77.4486   -2.3895 H         1 MOL     0.0480
     44 H         -69.6052  -74.7811   -3.5371 H         1 MOL     0.0480
     45 H         -69.7042  -76.5331   -3.5611 H         1 MOL     0.0480
     46 H         -68.7662  -74.9613   -1.5039 H         1 MOL     0.0480
     47 H         -69.1721  -76.6859   -1.4516 H         1 MOL     0.0480
     48 H         -73.5606  -73.6820   -3.4174 H         1 MOL     0.0394
     49 H         -75.3298  -75.8593   -3.9301 H         1 MOL     0.0273
     50 H         -74.2073  -76.7730   -4.3702 H         1 MOL     0.0273
     51 H         -75.0742  -74.0752   -5.7064 H         1 MOL     0.0273
     52 H         -73.9032  -74.6821   -6.4557 H         1 MOL     0.0273
     53 H         -67.6648  -70.9753    1.1049 H         1 MOL     0.0646
     54 H         -65.6566  -72.2545    0.7282 H         1 MOL     0.0621
     55 H         -65.6171  -75.3046    4.4571 H         1 MOL     0.1921
@<TRIPOS>BOND
     1    1   18 1 
     2    1   21 1 
     3    1   17 am
     4    2   20 1 
     5    2   22 am
     6    2   19 1 
     7    3    4 ar
     8    3   12 ar
     9    4   55 1 
    10    4    5 ar
    11    5    6 ar
    12    5   29 2 
    13    6    7 ar
    14    6   11 ar
    15    7    8 ar
    16    7   33 1 
    17    8    9 ar
    18    8   34 1 
    19    9   10 ar
    20    9   35 1 
    21   10   11 ar
    22   10   36 1 
    23   11   12 ar
    24   12   13 1 
    25   13   14 1 
    26   13   37 1 
    27   13   38 1 
    28   14   15 ar
    29   14   28 ar
    30   15   16 ar
    31   15   39 1 
    32   16   17 1 
    33   16   26 ar
    34   17   31 2 
    35   18   19 1 
    36   18   40 1 
    37   18   41 1 
    38   19   42 1 
    39   19   43 1 
    40   20   21 1 
    41   20   44 1 
    42   20   45 1 
    43   21   46 1 
    44   21   47 1 
    45   22   23 1 
    46   22   30 2 
    47   23   24 1 
    48   23   25 1 
    49   23   48 1 
    50   24   25 1 
    51   24   49 1 
    52   24   50 1 
    53   25   51 1 
    54   25   52 1 
    55   26   27 ar
    56   26   32 1 
    57   27   28 ar
    58   27   53 1 
    59   28   54 1 
@<TRIPOS>SUBSTRUCTURE
1 MOL         1
@<TRIPOS>MOLECULE
query molecule
   55    59     1     0     0
SMALL
NO_CHARGE

@<TRIPOS>ATOM
      1 N          -9.2757  -78.9285   13.7524 N.am      1 MOL    -0.2945
      2 N          -8.4642  -76.4619   13.8271 N.am      1 MOL    -0.2983
      3 N         -10.7302  -77.4858   18.3404 N.ar      1 MOL    -0.1750
      4 N          -9.7644  -76.9404   19.0393 N.ar      1 MOL    -0.2425
      5 C          -9.6667  -77.0534   20.3714 C.ar      1 MOL     0.2725
      6 C         -10.6265  -77.7777   21.0481 C.ar      1 MOL     0.0496
      7 C         -10.5837  -77.9101   22.4365 C.ar      1 MOL     0.0138
      8 C         -11.5652  -78.6205   23.0935 C.ar      1 MOL     0.0008
      9 C         -12.5621  -79.1736   22.3179 C.ar      1 MOL     0.0007
     10 C         -12.6173  -79.0499   20.9396 C.ar      1 MOL     0.0103
     11 C         -11.6397  -78.3471   20.2990 C.ar      1 MOL     0.0106
     12 C         -11.7188  -78.2196   18.9382 C.ar      1 MOL     0.0736
     13 C         -12.6946  -78.8261   18.0420 C.3       1 MOL     0.0925
     14 C         -12.0435  -79.8411   17.1684 C.ar      1 MOL    -0.0406
     15 C         -11.5591  -79.3604   15.9388 C.ar      1 MOL     0.0196
     16 C         -10.9511  -80.2238   15.0592 C.ar      1 MOL     0.0723
     17 C         -10.4341  -79.7490   13.7559 C.2       1 MOL     0.2495
     18 C          -8.7447  -78.4553   12.5150 C.3       1 MOL     0.1268
     19 C          -7.9755  -77.1605   12.6668 C.3       1 MOL     0.1265
     20 C          -8.2972  -77.1275   15.1237 C.3       1 MOL     0.1265
     21 C          -8.6536  -78.5880   15.0185 C.3       1 MOL     0.1268
     22 C          -9.0741  -75.2067   13.7461 C.2       1 MOL     0.2187
     23 C          -9.3245  -74.4252   12.5321 C.3       1 MOL     0.0752
     24 C          -9.7094  -75.2124   11.2999 C.3       1 MOL     0.0134
     25 C          -8.4185  -74.5229   11.3577 C.3       1 MOL     0.0134
     26 C         -10.7817  -81.5642   15.3135 C.ar      1 MOL     0.1355
     27 C         -11.2563  -82.0335   16.5174 C.ar      1 MOL     0.0392
     28 C         -11.8781  -81.1556   17.4168 C.ar      1 MOL     0.0066
     29 O          -8.7476  -76.5390   21.0587 O.2       1 MOL    -0.2658
     30 O          -9.4646  -74.6637   14.8407 O.2       1 MOL    -0.2753
     31 O         -10.9832  -80.0477   12.6705 O.2       1 MOL    -0.2699
     32 F         -10.1715  -82.3814   14.4065 F         1 MOL    -0.2047
     33 H          -9.8158  -77.4763   22.9723 H         1 MOL     0.0625
     34 H         -11.5547  -78.7325   24.1185 H         1 MOL     0.0618
     35 H         -13.3073  -79.7082   22.7900 H         1 MOL     0.0618
     36 H         -13.3862  -79.4831   20.4045 H         1 MOL     0.0624
     37 H         -13.1328  -78.0647   17.4310 H         1 MOL     0.0377
     38 H         -13.4481  -79.3097   18.6283 H         1 MOL     0.0377
     39 H         -11.6601  -78.3624   15.6975 H         1 MOL     0.0629
     40 H          -9.5544  -78.2952   11.8338 H         1 MOL     0.0480
     41 H          -8.0626  -79.1961   12.1517 H         1 MOL     0.0480
     42 H          -8.1162  -76.5549   11.7964 H         1 MOL     0.0480
     43 H          -6.9322  -77.3699   12.7816 H         1 MOL     0.0480
     44 H          -8.9357  -76.6612   15.8444 H         1 MOL     0.0480
     45 H          -7.2746  -77.0434   15.4271 H         1 MOL     0.0480
     46 H          -9.3337  -78.8316   15.8080 H         1 MOL     0.0480
     47 H          -7.7444  -79.1461   15.0889 H         1 MOL     0.0480
     48 H          -9.7100  -73.6046   13.0999 H         1 MOL     0.0394
     49 H         -10.4813  -74.8503   10.6530 H         1 MOL     0.0273
     50 H         -10.0241  -76.2176   11.1114 H         1 MOL     0.0273
     51 H          -8.2489  -73.6624   10.7447 H         1 MOL     0.0273
     52 H          -7.4029  -74.8279   11.2211 H         1 MOL     0.0273
     53 H         -11.1541  -83.0325   16.7579 H         1 MOL     0.0646
     54 H         -12.2254  -81.5334   18.3124 H         1 MOL     0.0621
     55 H          -9.0762  -76.4226   18.5617 H         1 MOL     0.1921
@<TRIPOS>BOND
     1    1   18 1 
     2    1   21 1 
     3    1   17 am
     4    2   20 1 
     5    2   22 am
     6    2   19 1 
     7    3    4 ar
     8    3   12 ar
     9    4   55 1 
    10    4    5 ar
    11    5    6 ar
    12    5   29 2 
    13    6    7 ar
    14    6   11 ar
    15    7    8 ar
    16    7   33 1 
    17    8    9 ar
    18    8   34 1 
    19    9   10 ar
    20    9   35 1 
    21   10   11 ar
    22   10   36 1 
    23   11   12 ar
    24   12   13 1 
    25   13   14 1 
    26   13   37 1 
    27   13   38 1 
    28   14   15 ar
    29   14   28 ar
    30   15   16 ar
    31   15   39 1 
    32   16   17 1 
    33   16   26 ar
    34   17   31 2 
    35   18   19 1 
    36   18   40 1 
    37   18   41 1 
    38   19   42 1 
    39   19   43 1 
    40   20   21 1 
    41   20   44 1 
    42   20   45 1 
    43   21   46 1 
    44   21   47 1 
    45   22   23 1 
    46   22   30 2 
    47   23   24 1 
    48   23   25 1 
    49   23   48 1 
    50   24   25 1 
    51   24   49 1 
    52   24   50 1 
    53   25   51 1 
    54   25   52 1 
    55   26   27 ar
    56   26   32 1 
    57   27   28 ar
    58   27   53 1 
    59   28   54 1 
@<TRIPOS>SUBSTRUCTURE
1 MOL         1
@<TRIPOS>MOLECULE
query molecule
   55    59     1     0     0
SMALL
NO_CHARGE

@<TRIPOS>ATOM
      1 N         -29.4035  -66.3700  -21.5728 N.am      1 MOL    -0.2945
      2 N         -29.3314  -63.8824  -22.3178 N.am      1 MOL    -0.2983
      3 N         -23.7666  -69.0476  -20.3666 N.ar      1 MOL    -0.1750
      4 N         -23.1909  -69.2341  -19.2037 N.ar      1 MOL    -0.2425
      5 C         -22.1633  -68.4936  -18.7650 C.ar      1 MOL     0.2725
      6 C         -21.6814  -67.4832  -19.5716 C.ar      1 MOL     0.0496
      7 C         -20.6010  -66.6955  -19.1723 C.ar      1 MOL     0.0138
      8 C         -20.1229  -65.7057  -20.0037 C.ar      1 MOL     0.0008
      9 C         -20.7576  -65.5481  -21.2175 C.ar      1 MOL     0.0007
     10 C         -21.8303  -66.3225  -21.6268 C.ar      1 MOL     0.0103
     11 C         -22.2973  -67.2975  -20.7955 C.ar      1 MOL     0.0106
     12 C         -23.3471  -68.0657  -21.2228 C.ar      1 MOL     0.0736
     13 C         -24.1136  -67.9211  -22.4535 C.3       1 MOL     0.0925
     14 C         -25.4674  -68.5222  -22.3010 C.ar      1 MOL    -0.0406
     15 C         -26.4229  -67.7092  -21.6656 C.ar      1 MOL     0.0196
     16 C         -27.6990  -68.1801  -21.4693 C.ar      1 MOL     0.0723
     17 C         -28.7260  -67.3498  -20.8007 C.2       1 MOL     0.2495
     18 C         -30.4036  -65.5535  -20.9644 C.3       1 MOL     0.1268
     19 C         -30.5652  -64.2163  -21.6549 C.3       1 MOL     0.1265
     20 C         -28.8863  -64.7823  -23.3874 C.3       1 MOL     0.1265
     21 C         -29.0600  -66.2213  -22.9748 C.3       1 MOL     0.1268
     22 C         -28.5749  -62.7583  -21.9743 C.2       1 MOL     0.2187
     23 C         -28.8771  -61.7791  -20.9269 C.3       1 MOL     0.0752
     24 C         -30.3391  -61.5945  -20.5884 C.3       1 MOL     0.0134
     25 C         -29.5947  -60.5162  -21.2427 C.3       1 MOL     0.0134
     26 C         -28.1111  -69.4300  -21.8668 C.ar      1 MOL     0.1355
     27 C         -27.1750  -70.2249  -22.4886 C.ar      1 MOL     0.0392
     28 C         -25.8718  -69.7479  -22.6895 C.ar      1 MOL     0.0066
     29 O         -21.5991  -68.6564  -17.6528 O.2       1 MOL    -0.2658
     30 O         -27.4962  -62.5433  -22.6342 O.2       1 MOL    -0.2753
     31 O         -29.0101  -67.4864  -19.5885 O.2       1 MOL    -0.2699
     32 F         -29.3905  -69.8522  -21.6482 F         1 MOL    -0.2047
     33 H         -20.1597  -66.8537  -18.2529 H         1 MOL     0.0625
     34 H         -19.3263  -65.1107  -19.7304 H         1 MOL     0.0618
     35 H         -20.4146  -64.8136  -21.8555 H         1 MOL     0.0618
     36 H         -22.2705  -66.1645  -22.5469 H         1 MOL     0.0624
     37 H         -23.5970  -68.4144  -23.2503 H         1 MOL     0.0377
     38 H         -24.2228  -66.8791  -22.6720 H         1 MOL     0.0377
     39 H         -26.1665  -66.7618  -21.3473 H         1 MOL     0.0629
     40 H         -30.1310  -65.3817  -19.9437 H         1 MOL     0.0480
     41 H         -31.3364  -66.0729  -21.0426 H         1 MOL     0.0480
     42 H         -30.7998  -63.4643  -20.9312 H         1 MOL     0.0480
     43 H         -31.3588  -64.2716  -22.3709 H         1 MOL     0.0480
     44 H         -27.8531  -64.5988  -23.5956 H         1 MOL     0.0480
     45 H         -29.4769  -64.6007  -24.2611 H         1 MOL     0.0480
     46 H         -28.1433  -66.7422  -23.1576 H         1 MOL     0.0480
     47 H         -29.8684  -66.6239  -23.5471 H         1 MOL     0.0480
     48 H         -27.9667  -62.0007  -20.4107 H         1 MOL     0.0394
     49 H         -30.6434  -61.4921  -19.5675 H         1 MOL     0.0273
     50 H         -31.2394  -62.1321  -20.8019 H         1 MOL     0.0273
     51 H         -29.3647  -59.6241  -20.6983 H         1 MOL     0.0273
     52 H         -29.7403  -59.9424  -22.1332 H         1 MOL     0.0273
     53 H         -27.4330  -71.1726  -22.8071 H         1 MOL     0.0646
     54 H         -25.1891  -70.3645  -23.1580 H         1 MOL     0.0621
     55 H         -23.5307  -69.9537  -18.6236 H         1 MOL     0.1921
@<TRIPOS>BOND
     1    1   18 1 
     2    1   21 1 
     3    1   17 am
     4    2   20 1 
     5    2   22 am
     6    2   19 1 
     7    3    4 ar
     8    3   12 ar
     9    4   55 1 
    10    4    5 ar
    11    5    6 ar
    12    5   29 2 
    13    6    7 ar
    14    6   11 ar
    15    7    8 ar
    16    7   33 1 
    17    8    9 ar
    18    8   34 1 
    19    9   10 ar
    20    9   35 1 
    21   10   11 ar
    22   10   36 1 
    23   11   12 ar
    24   12   13 1 
    25   13   14 1 
    26   13   37 1 
    27   13   38 1 
    28   14   15 ar
    29   14   28 ar
    30   15   16 ar
    31   15   39 1 
    32   16   17 1 
    33   16   26 ar
    34   17   31 2 
    35   18   19 1 
    36   18   40 1 
    37   18   41 1 
    38   19   42 1 
    39   19   43 1 
    40   20   21 1 
    41   20   44 1 
    42   20   45 1 
    43   21   46 1 
    44   21   47 1 
    45   22   23 1 
    46   22   30 2 
    47   23   24 1 
    48   23   25 1 
    49   23   48 1 
    50   24   25 1 
    51   24   49 1 
    52   24   50 1 
    53   25   51 1 
    54   25   52 1 
    55   26   27 ar
    56   26   32 1 
    57   27   28 ar
    58   27   53 1 
    59   28   54 1 
@<TRIPOS>SUBSTRUCTURE
1 MOL         1
@<TRIPOS>MOLECULE
query molecule
   55    59     1     0     0
SMALL
NO_CHARGE

@<TRIPOS>ATOM
      1 N         -58.0522  -31.1959    2.4657 N.am      1 MOL    -0.2945
      2 N         -60.0069  -32.5855    1.4673 N.am      1 MOL    -0.2983
      3 N         -54.8535  -27.5752   -2.3709 N.ar      1 MOL    -0.1750
      4 N         -55.1051  -27.9636   -3.5975 N.ar      1 MOL    -0.2425
      5 C         -55.2325  -29.2507   -3.9495 C.ar      1 MOL     0.2725
      6 C         -55.0929  -30.2211   -2.9786 C.ar      1 MOL     0.0496
      7 C         -55.1961  -31.5764   -3.2943 C.ar      1 MOL     0.0138
      8 C         -55.0318  -32.5291   -2.3120 C.ar      1 MOL     0.0008
      9 C         -54.7659  -32.0741   -1.0379 C.ar      1 MOL     0.0007
     10 C         -54.6605  -30.7326   -0.7105 C.ar      1 MOL     0.0103
     11 C         -54.8273  -29.7979   -1.6894 C.ar      1 MOL     0.0106
     12 C         -54.7025  -28.4768   -1.3523 C.ar      1 MOL     0.0736
     13 C         -54.4918  -27.9122   -0.0257 C.3       1 MOL     0.0925
     14 C         -55.7869  -27.7733    0.6961 C.ar      1 MOL    -0.0406
     15 C         -56.1432  -28.8594    1.5152 C.ar      1 MOL     0.0196
     16 C         -57.3261  -28.8291    2.2142 C.ar      1 MOL     0.0723
     17 C         -57.7306  -29.9582    3.0818 C.2       1 MOL     0.2495
     18 C         -58.4419  -32.3090    3.2696 C.3       1 MOL     0.1268
     19 C         -59.3257  -33.2863    2.5247 C.3       1 MOL     0.1265
     20 C         -59.1721  -31.9912    0.4176 C.3       1 MOL     0.1265
     21 C         -57.9759  -31.3006    1.0204 C.3       1 MOL     0.1268
     22 C         -61.3988  -32.4631    1.4227 C.2       1 MOL     0.2187
     23 C         -62.3610  -32.9851    2.3968 C.3       1 MOL     0.0752
     24 C         -62.8514  -32.0066    3.4399 C.3       1 MOL     0.0134
     25 C         -61.9972  -33.1303    3.8307 C.3       1 MOL     0.0134
     26 C         -58.2063  -27.7744    2.1618 C.ar      1 MOL     0.1355
     27 C         -57.8565  -26.7118    1.3597 C.ar      1 MOL     0.0392
     28 C         -56.6508  -26.7399    0.6443 C.ar      1 MOL     0.0066
     29 O         -55.4749  -29.6425   -5.1198 O.2       1 MOL    -0.2658
     30 O         -61.9082  -31.8286    0.4312 O.2       1 MOL    -0.2753
     31 O         -57.7958  -29.8529    4.3282 O.2       1 MOL    -0.2699
     32 F         -59.3699  -27.7922    2.8749 F         1 MOL    -0.2047
     33 H         -55.3963  -31.8660   -4.2644 H         1 MOL     0.0625
     34 H         -55.1039  -33.5363   -2.5208 H         1 MOL     0.0618
     35 H         -54.6382  -32.7709   -0.2880 H         1 MOL     0.0618
     36 H         -54.4591  -30.4437    0.2597 H         1 MOL     0.0624
     37 H         -54.0368  -26.9484   -0.1212 H         1 MOL     0.0377
     38 H         -53.8562  -28.5683    0.5319 H         1 MOL     0.0377
     39 H         -55.5185  -29.6771    1.5909 H         1 MOL     0.0629
     40 H         -58.9761  -31.9450    4.1226 H         1 MOL     0.0480
     41 H         -57.5510  -32.8302    3.5536 H         1 MOL     0.0480
     42 H         -60.0428  -33.7072    3.1976 H         1 MOL     0.0480
     43 H         -58.7290  -34.0736    2.1130 H         1 MOL     0.0480
     44 H         -59.7502  -31.2775   -0.1310 H         1 MOL     0.0480
     45 H         -58.8296  -32.7679   -0.2338 H         1 MOL     0.0480
     46 H         -57.9085  -30.3142    0.6110 H         1 MOL     0.0480
     47 H         -57.1142  -31.8891    0.7869 H         1 MOL     0.0480
     48 H         -62.7845  -33.6488    1.6725 H         1 MOL     0.0394
     49 H         -63.8841  -31.9962    3.7204 H         1 MOL     0.0273
     50 H         -62.8087  -30.9442    3.5608 H         1 MOL     0.0273
     51 H         -62.4084  -33.9348    4.4041 H         1 MOL     0.0273
     52 H         -61.0733  -33.2159    4.3620 H         1 MOL     0.0273
     53 H         -58.4823  -25.8939    1.2853 H         1 MOL     0.0646
     54 H         -56.4126  -25.9302    0.0498 H         1 MOL     0.0621
     55 H         -55.2060  -27.2754   -4.2946 H         1 MOL     0.1921
@<TRIPOS>BOND
     1    1   18 1 
     2    1   21 1 
     3    1   17 am
     4    2   20 1 
     5    2   22 am
     6    2   19 1 
     7    3    4 ar
     8    3   12 ar
     9    4   55 1 
    10    4    5 ar
    11    5    6 ar
    12    5   29 2 
    13    6    7 ar
    14    6   11 ar
    15    7    8 ar
    16    7   33 1 
    17    8    9 ar
    18    8   34 1 
    19    9   10 ar
    20    9   35 1 
    21   10   11 ar
    22   10   36 1 
    23   11   12 ar
    24   12   13 1 
    25   13   14 1 
    26   13   37 1 
    27   13   38 1 
    28   14   15 ar
    29   14   28 ar
    30   15   16 ar
    31   15   39 1 
    32   16   17 1 
    33   16   26 ar
    34   17   31 2 
    35   18   19 1 
    36   18   40 1 
    37   18   41 1 
    38   19   42 1 
    39   19   43 1 
    40   20   21 1 
    41   20   44 1 
    42   20   45 1 
    43   21   46 1 
    44   21   47 1 
    45   22   23 1 
    46   22   30 2 
    47   23   24 1 
    48   23   25 1 
    49   23   48 1 
    50   24   25 1 
    51   24   49 1 
    52   24   50 1 
    53   25   51 1 
    54   25   52 1 
    55   26   27 ar
    56   26   32 1 
    57   27   28 ar
    58   27   53 1 
    59   28   54 1 
@<TRIPOS>SUBSTRUCTURE
1 MOL         1
@<TRIPOS>MOLECULE
query molecule
   55    59     1     0     0
SMALL
NO_CHARGE

@<TRIPOS>ATOM
      1 N         -49.6025  -58.7631   27.1640 N.am      1 MOL    -0.2945
      2 N         -50.8836  -57.6416   25.2020 N.am      1 MOL    -0.2983
      3 N         -44.9178  -61.2407   30.5914 N.ar      1 MOL    -0.1750
      4 N         -45.4426  -62.2560   31.2335 N.ar      1 MOL    -0.2425
      5 C         -46.2340  -62.1174   32.3065 C.ar      1 MOL     0.2725
      6 C         -46.5146  -60.8464   32.7644 C.ar      1 MOL     0.0496
      7 C         -47.3162  -60.6461   33.8889 C.ar      1 MOL     0.0138
      8 C         -47.5657  -59.3683   34.3409 C.ar      1 MOL     0.0008
      9 C         -46.9905  -58.3322   33.6359 C.ar      1 MOL     0.0007
     10 C         -46.1929  -58.5163   32.5189 C.ar      1 MOL     0.0103
     11 C         -45.9544  -59.7847   32.0783 C.ar      1 MOL     0.0106
     12 C         -45.1495  -59.9499   30.9831 C.ar      1 MOL     0.0736
     13 C         -44.5616  -58.9129   30.1452 C.3       1 MOL     0.0925
     14 C         -45.6227  -58.0427   29.5671 C.ar      1 MOL    -0.0406
     15 C         -46.8572  -58.6718   29.3263 C.ar      1 MOL     0.0196
     16 C         -47.8960  -57.9535   28.7842 C.ar      1 MOL     0.0723
     17 C         -49.2062  -58.5881   28.5158 C.2       1 MOL     0.2495
     18 C         -50.8567  -59.3753   26.8655 C.3       1 MOL     0.1268
     19 C         -51.4159  -58.9389   25.5284 C.3       1 MOL     0.1265
     20 C         -49.4304  -57.5435   25.0276 C.3       1 MOL     0.1265
     21 C         -48.7146  -58.3115   26.1088 C.3       1 MOL     0.1268
     22 C         -51.6948  -56.5127   25.0543 C.2       1 MOL     0.2187
     23 C         -53.1503  -56.4470   25.2096 C.3       1 MOL     0.0752
     24 C         -53.8146  -55.1735   24.7373 C.3       1 MOL     0.0134
     25 C         -53.7767  -55.4963   26.1654 C.3       1 MOL     0.0134
     26 C         -47.8013  -56.6223   28.4543 C.ar      1 MOL     0.1355
     27 C         -46.5924  -56.0076   28.6904 C.ar      1 MOL     0.0392
     28 C         -45.5301  -56.7377   29.2425 C.ar      1 MOL     0.0066
     29 O         -46.7475  -63.0784   32.9347 O.2       1 MOL    -0.2658
     30 O         -51.1229  -55.4053   24.7511 O.2       1 MOL    -0.2753
     31 O         -49.9646  -58.9700   29.4366 O.2       1 MOL    -0.2699
     32 F         -48.8623  -55.9527   27.9172 F         1 MOL    -0.2047
     33 H         -47.7235  -61.4557   34.3825 H         1 MOL     0.0625
     34 H         -48.1551  -59.1951   35.1691 H         1 MOL     0.0618
     35 H         -47.1635  -57.3677   33.9583 H         1 MOL     0.0618
     36 H         -45.7850  -57.7061   32.0264 H         1 MOL     0.0624
     37 H         -44.0110  -59.3719   29.3508 H         1 MOL     0.0377
     38 H         -43.9124  -58.3103   30.7459 H         1 MOL     0.0377
     39 H         -46.9827  -59.6699   29.5557 H         1 MOL     0.0629
     40 H         -51.5566  -59.1135   27.6318 H         1 MOL     0.0480
     41 H         -50.6974  -60.4329   26.8199 H         1 MOL     0.0480
     42 H         -52.4828  -58.8863   25.5851 H         1 MOL     0.0480
     43 H         -51.1408  -59.6450   24.7726 H         1 MOL     0.0480
     44 H         -49.1380  -56.5154   25.0747 H         1 MOL     0.0480
     45 H         -49.1667  -57.9592   24.0775 H         1 MOL     0.0480
     46 H         -47.9677  -57.6783   26.5405 H         1 MOL     0.0480
     47 H         -48.2873  -59.1807   25.6559 H         1 MOL     0.0480
     48 H         -53.2487  -57.4994   25.0450 H         1 MOL     0.0394
     49 H         -54.7404  -55.2193   24.2025 H         1 MOL     0.0273
     50 H         -53.5123  -54.3382   24.1408 H         1 MOL     0.0273
     51 H         -54.6791  -55.7694   26.6717 H         1 MOL     0.0273
     52 H         -53.4358  -54.9812   27.0382 H         1 MOL     0.0273
     53 H         -46.4684  -55.0086   28.4609 H         1 MOL     0.0646
     54 H         -44.6342  -56.2528   29.4091 H         1 MOL     0.0621
     55 H         -45.2461  -63.1655   30.9111 H         1 MOL     0.1921
@<TRIPOS>BOND
     1    1   18 1 
     2    1   21 1 
     3    1   17 am
     4    2   20 1 
     5    2   22 am
     6    2   19 1 
     7    3    4 ar
     8    3   12 ar
     9    4   55 1 
    10    4    5 ar
    11    5    6 ar
    12    5   29 2 
    13    6    7 ar
    14    6   11 ar
    15    7    8 ar
    16    7   33 1 
    17    8    9 ar
    18    8   34 1 
    19    9   10 ar
    20    9   35 1 
    21   10   11 ar
    22   10   36 1 
    23   11   12 ar
    24   12   13 1 
    25   13   14 1 
    26   13   37 1 
    27   13   38 1 
    28   14   15 ar
    29   14   28 ar
    30   15   16 ar
    31   15   39 1 
    32   16   17 1 
    33   16   26 ar
    34   17   31 2 
    35   18   19 1 
    36   18   40 1 
    37   18   41 1 
    38   19   42 1 
    39   19   43 1 
    40   20   21 1 
    41   20   44 1 
    42   20   45 1 
    43   21   46 1 
    44   21   47 1 
    45   22   23 1 
    46   22   30 2 
    47   23   24 1 
    48   23   25 1 
    49   23   48 1 
    50   24   25 1 
    51   24   49 1 
    52   24   50 1 
    53   25   51 1 
    54   25   52 1 
    55   26   27 ar
    56   26   32 1 
    57   27   28 ar
    58   27   53 1 
    59   28   54 1 
@<TRIPOS>SUBSTRUCTURE
1 MOL         1
@<TRIPOS>MOLECULE
query molecule
   55    59     1     0     0
SMALL
NO_CHARGE

@<TRIPOS>ATOM
      1 N         -45.2614  -25.7266    2.0838 N.am      1 MOL    -0.2945
      2 N         -44.6404  -25.8774    4.6018 N.am      1 MOL    -0.2983
      3 N         -40.8512  -29.8298   -0.1170 N.ar      1 MOL    -0.1750
      4 N         -41.2510  -31.0739   -0.0130 N.ar      1 MOL    -0.2425
      5 C         -42.1811  -31.6164   -0.8116 C.ar      1 MOL     0.2725
      6 C         -42.7509  -30.8329   -1.7940 C.ar      1 MOL     0.0496
      7 C         -43.7377  -31.3415   -2.6393 C.ar      1 MOL     0.0138
      8 C         -44.3082  -30.5342   -3.5997 C.ar      1 MOL     0.0008
      9 C         -43.8584  -29.2327   -3.6702 C.ar      1 MOL     0.0007
     10 C         -42.8804  -28.7146   -2.8377 C.ar      1 MOL     0.0103
     11 C         -42.3205  -29.5226   -1.8924 C.ar      1 MOL     0.0106
     12 C         -41.3677  -28.9898   -1.0662 C.ar      1 MOL     0.0736
     13 C         -40.7905  -27.6529   -1.1180 C.3       1 MOL     0.0925
     14 C         -41.8554  -26.6180   -1.0064 C.ar      1 MOL    -0.0406
     15 C         -42.9428  -26.9546   -0.1806 C.ar      1 MOL     0.0196
     16 C         -43.9810  -26.0681   -0.0225 C.ar      1 MOL     0.0723
     17 C         -45.1411  -26.3947    0.8371 C.2       1 MOL     0.2495
     18 C         -46.3688  -26.0114    2.9379 C.3       1 MOL     0.1268
     19 C         -46.0607  -25.7574    4.3979 C.3       1 MOL     0.1265
     20 C         -43.7831  -24.9251    3.8876 C.3       1 MOL     0.1265
     21 C         -44.2465  -24.7612    2.4629 C.3       1 MOL     0.1268
     22 C         -44.0812  -26.8495    5.4363 C.2       1 MOL     0.2187
     23 C         -44.7986  -27.8732    6.2007 C.3       1 MOL     0.0752
     24 C         -44.9866  -29.2078    5.5154 C.3       1 MOL     0.0134
     25 C         -46.1421  -28.3461    5.7751 C.3       1 MOL     0.0134
     26 C         -44.0238  -24.8393   -0.6373 C.ar      1 MOL     0.1355
     27 C         -42.9589  -24.5109   -1.4455 C.ar      1 MOL     0.0392
     28 C         -41.8984  -25.4135   -1.6098 C.ar      1 MOL     0.0066
     29 O         -42.5765  -32.8074   -0.7281 O.2       1 MOL    -0.2658
     30 O         -42.8045  -26.8645    5.5590 O.2       1 MOL    -0.2753
     31 O         -46.0080  -27.2331    0.4990 O.2       1 MOL    -0.2699
     32 F         -45.0785  -23.9939   -0.4488 F         1 MOL    -0.2047
     33 H         -44.0405  -32.3237   -2.5460 H         1 MOL     0.0625
     34 H         -45.0386  -30.8875   -4.2361 H         1 MOL     0.0618
     35 H         -44.2733  -28.6112   -4.3813 H         1 MOL     0.0618
     36 H         -42.5789  -27.7319   -2.9310 H         1 MOL     0.0624
     37 H         -40.2740  -27.5279   -2.0468 H         1 MOL     0.0377
     38 H         -40.1120  -27.5376   -0.2984 H         1 MOL     0.0377
     39 H         -42.9613  -27.8648    0.3050 H         1 MOL     0.0629
     40 H         -46.6378  -27.0404    2.8182 H         1 MOL     0.0480
     41 H         -47.1694  -25.3582    2.6578 H         1 MOL     0.0480
     42 H         -46.5730  -26.4751    5.0034 H         1 MOL     0.0480
     43 H         -46.3851  -24.7748    4.6712 H         1 MOL     0.0480
     44 H         -42.7761  -25.2864    3.8900 H         1 MOL     0.0480
     45 H         -43.8359  -23.9757    4.3784 H         1 MOL     0.0480
     46 H         -43.4042  -24.8804    1.8137 H         1 MOL     0.0480
     47 H         -44.6817  -23.7884    2.3769 H         1 MOL     0.0480
     48 H         -44.4047  -27.5064    7.1252 H         1 MOL     0.0394
     49 H         -44.8608  -30.1156    6.0679 H         1 MOL     0.0273
     50 H         -44.5719  -29.6788    4.6487 H         1 MOL     0.0273
     51 H         -46.8625  -28.6328    6.5126 H         1 MOL     0.0273
     52 H         -46.9197  -27.9368    5.1659 H         1 MOL     0.0273
     53 H         -42.9414  -23.5995   -1.9304 H         1 MOL     0.0646
     54 H         -41.1123  -25.1426   -2.2217 H         1 MOL     0.0621
     55 H         -40.8476  -31.6380    0.6862 H         1 MOL     0.1921
@<TRIPOS>BOND
     1    1   18 1 
     2    1   21 1 
     3    1   17 am
     4    2   20 1 
     5    2   22 am
     6    2   19 1 
     7    3    4 ar
     8    3   12 ar
     9    4   55 1 
    10    4    5 ar
    11    5    6 ar
    12    5   29 2 
    13    6    7 ar
    14    6   11 ar
    15    7    8 ar
    16    7   33 1 
    17    8    9 ar
    18    8   34 1 
    19    9   10 ar
    20    9   35 1 
    21   10   11 ar
    22   10   36 1 
    23   11   12 ar
    24   12   13 1 
    25   13   14 1 
    26   13   37 1 
    27   13   38 1 
    28   14   15 ar
    29   14   28 ar
    30   15   16 ar
    31   15   39 1 
    32   16   17 1 
    33   16   26 ar
    34   17   31 2 
    35   18   19 1 
    36   18   40 1 
    37   18   41 1 
    38   19   42 1 
    39   19   43 1 
    40   20   21 1 
    41   20   44 1 
    42   20   45 1 
    43   21   46 1 
    44   21   47 1 
    45   22   23 1 
    46   22   30 2 
    47   23   24 1 
    48   23   25 1 
    49   23   48 1 
    50   24   25 1 
    51   24   49 1 
    52   24   50 1 
    53   25   51 1 
    54   25   52 1 
    55   26   27 ar
    56   26   32 1 
    57   27   28 ar
    58   27   53 1 
    59   28   54 1 
@<TRIPOS>SUBSTRUCTURE
1 MOL         1
@<TRIPOS>MOLECULE
query molecule
   55    59     1     0     0
SMALL
NO_CHARGE

@<TRIPOS>ATOM
      1 N         -16.4084  -46.8976  -20.1993 N.am      1 MOL    -0.2945
      2 N         -15.7835  -48.4115  -22.2157 N.am      1 MOL    -0.2983
      3 N         -19.4174  -41.0965  -17.1320 N.ar      1 MOL    -0.1750
      4 N         -20.5214  -40.5204  -16.7220 N.ar      1 MOL    -0.2425
      5 C         -21.0817  -39.4759  -17.3479 C.ar      1 MOL     0.2725
      6 C         -20.4723  -38.9761  -18.4804 C.ar      1 MOL     0.0496
      7 C         -21.0022  -37.8779  -19.1589 C.ar      1 MOL     0.0138
      8 C         -20.3647  -37.3823  -20.2758 C.ar      1 MOL     0.0008
      9 C         -19.2057  -38.0181  -20.6680 C.ar      1 MOL     0.0007
     10 C         -18.6684  -39.1083  -20.0041 C.ar      1 MOL     0.0103
     11 C         -19.3085  -39.5926  -18.9016 C.ar      1 MOL     0.0106
     12 C         -18.7545  -40.6598  -18.2469 C.ar      1 MOL     0.0736
     13 C         -17.5776  -41.4277  -18.6319 C.3       1 MOL     0.0925
     14 C         -17.9523  -42.5303  -19.5599 C.ar      1 MOL    -0.0406
     15 C         -17.5829  -43.8224  -19.1456 C.ar      1 MOL     0.0196
     16 C         -17.8762  -44.9049  -19.9399 C.ar      1 MOL     0.0723
     17 C         -17.4974  -46.2768  -19.5331 C.2       1 MOL     0.2495
     18 C         -16.0106  -48.2180  -19.8314 C.3       1 MOL     0.1268
     19 C         -15.3328  -48.9602  -20.9631 C.3       1 MOL     0.1265
     20 C         -15.4682  -47.0028  -22.4766 C.3       1 MOL     0.1265
     21 C         -15.7195  -46.1678  -21.2474 C.3       1 MOL     0.1268
     22 C         -16.4915  -49.1670  -23.1549 C.2       1 MOL     0.2187
     23 C         -16.8922  -50.5713  -23.0348 C.3       1 MOL     0.0752
     24 C         -17.8773  -50.8919  -21.9335 C.3       1 MOL     0.0134
     25 C         -16.4994  -51.3817  -21.8522 C.3       1 MOL     0.0134
     26 C         -18.5264  -44.8006  -21.1467 C.ar      1 MOL     0.1355
     27 C         -18.8875  -43.5354  -21.5513 C.ar      1 MOL     0.0392
     28 C         -18.5889  -42.4287  -20.7437 C.ar      1 MOL     0.0066
     29 O         -22.1403  -38.9111  -16.9709 O.2       1 MOL    -0.2658
     30 O         -16.8377  -48.5870  -24.2453 O.2       1 MOL    -0.2753
     31 O         -18.1032  -46.8967  -18.6289 O.2       1 MOL    -0.2699
     32 F         -18.7944  -45.9067  -21.9000 F         1 MOL    -0.2047
     33 H         -21.8731  -37.4365  -18.8246 H         1 MOL     0.0625
     34 H         -20.7372  -36.5724  -20.7940 H         1 MOL     0.0618
     35 H         -18.7121  -37.6622  -21.5009 H         1 MOL     0.0618
     36 H         -17.7968  -39.5486  -20.3384 H         1 MOL     0.0624
     37 H         -17.1259  -41.8433  -17.7555 H         1 MOL     0.0377
     38 H         -16.8891  -40.7777  -19.1308 H         1 MOL     0.0377
     39 H         -17.0927  -43.9574  -18.2478 H         1 MOL     0.0629
     40 H         -16.8797  -48.7669  -19.5333 H         1 MOL     0.0480
     41 H         -15.3038  -48.1316  -19.0320 H         1 MOL     0.0480
     42 H         -15.5850  -49.9986  -20.9136 H         1 MOL     0.0480
     43 H         -14.2709  -48.8545  -20.8813 H         1 MOL     0.0480
     44 H         -16.0837  -46.6458  -23.2756 H         1 MOL     0.0480
     45 H         -14.4348  -46.9225  -22.7423 H         1 MOL     0.0480
     46 H         -16.3170  -45.3241  -21.5237 H         1 MOL     0.0480
     47 H         -14.7677  -45.8727  -20.8599 H         1 MOL     0.0480
     48 H         -16.8094  -50.7198  -24.0910 H         1 MOL     0.0394
     49 H         -18.6791  -51.5770  -22.1153 H         1 MOL     0.0273
     50 H         -18.5155  -50.3152  -21.2971 H         1 MOL     0.0273
     51 H         -16.3003  -52.4268  -21.9669 H         1 MOL     0.0273
     52 H         -15.7231  -51.3079  -21.1206 H         1 MOL     0.0273
     53 H         -19.3786  -43.4018  -22.4497 H         1 MOL     0.0646
     54 H         -18.8705  -41.4909  -21.0707 H         1 MOL     0.0621
     55 H         -20.9610  -40.8731  -15.9144 H         1 MOL     0.1921
@<TRIPOS>BOND
     1    1   18 1 
     2    1   21 1 
     3    1   17 am
     4    2   20 1 
     5    2   22 am
     6    2   19 1 
     7    3    4 ar
     8    3   12 ar
     9    4   55 1 
    10    4    5 ar
    11    5    6 ar
    12    5   29 2 
    13    6    7 ar
    14    6   11 ar
    15    7    8 ar
    16    7   33 1 
    17    8    9 ar
    18    8   34 1 
    19    9   10 ar
    20    9   35 1 
    21   10   11 ar
    22   10   36 1 
    23   11   12 ar
    24   12   13 1 
    25   13   14 1 
    26   13   37 1 
    27   13   38 1 
    28   14   15 ar
    29   14   28 ar
    30   15   16 ar
    31   15   39 1 
    32   16   17 1 
    33   16   26 ar
    34   17   31 2 
    35   18   19 1 
    36   18   40 1 
    37   18   41 1 
    38   19   42 1 
    39   19   43 1 
    40   20   21 1 
    41   20   44 1 
    42   20   45 1 
    43   21   46 1 
    44   21   47 1 
    45   22   23 1 
    46   22   30 2 
    47   23   24 1 
    48   23   25 1 
    49   23   48 1 
    50   24   25 1 
    51   24   49 1 
    52   24   50 1 
    53   25   51 1 
    54   25   52 1 
    55   26   27 ar
    56   26   32 1 
    57   27   28 ar
    58   27   53 1 
    59   28   54 1 
@<TRIPOS>SUBSTRUCTURE
1 MOL         1
@<TRIPOS>MOLECULE
query molecule
   55    59     1     0     0
SMALL
NO_CHARGE

@<TRIPOS>ATOM
      1 N         -19.1960  -34.7910    1.1748 N.am      1 MOL    -0.2945
      2 N         -19.7595  -34.1342   -1.2746 N.am      1 MOL    -0.2983
      3 N         -18.4921  -42.2535   -0.3575 N.ar      1 MOL    -0.1750
      4 N         -19.3227  -43.2495   -0.5493 N.ar      1 MOL    -0.2425
      5 C         -20.6121  -43.2120   -0.1849 C.ar      1 MOL     0.2725
      6 C         -21.0969  -42.0724    0.4233 C.ar      1 MOL     0.0496
      7 C         -22.4257  -41.9879    0.8407 C.ar      1 MOL     0.0138
      8 C         -22.8826  -40.8475    1.4654 C.ar      1 MOL     0.0008
      9 C         -21.9730  -39.8275    1.6483 C.ar      1 MOL     0.0007
     10 C         -20.6516  -39.8978    1.2397 C.ar      1 MOL     0.0103
     11 C         -20.2103  -41.0297    0.6201 C.ar      1 MOL     0.0106
     12 C         -18.8968  -41.0896    0.2383 C.ar      1 MOL     0.0736
     13 C         -17.8932  -40.0375    0.3319 C.3       1 MOL     0.0925
     14 C         -18.1774  -39.1441    1.4888 C.ar      1 MOL    -0.0406
     15 C         -18.0781  -37.7658    1.2282 C.ar      1 MOL     0.0196
     16 C         -18.3122  -36.8611    2.2360 C.ar      1 MOL     0.0723
     17 C         -18.2121  -35.4041    1.9940 C.2       1 MOL     0.2495
     18 C         -19.1357  -33.3876    0.9225 C.3       1 MOL     0.1268
     19 C         -19.7894  -33.0010   -0.3868 C.3       1 MOL     0.1265
     20 C         -20.4947  -35.3308   -0.8509 C.3       1 MOL     0.1265
     21 C         -20.2492  -35.6135    0.6089 C.3       1 MOL     0.1268
     22 C         -19.0674  -34.1184   -2.4891 C.2       1 MOL     0.2187
     23 C         -18.2802  -33.0123   -3.0405 C.3       1 MOL     0.0752
     24 C         -18.8021  -32.3942   -4.3179 C.3       1 MOL     0.0134
     25 C         -17.5521  -33.1574   -4.3283 C.3       1 MOL     0.0134
     26 C         -18.6471  -37.2294    3.5174 C.ar      1 MOL     0.1355
     27 C         -18.7440  -38.5789    3.7713 C.ar      1 MOL     0.0392
     28 C         -18.5048  -39.5047    2.7457 C.ar      1 MOL     0.0066
     29 O         -21.4241  -44.1561   -0.3615 O.2       1 MOL    -0.2658
     30 O         -19.1129  -35.1762   -3.2131 O.2       1 MOL    -0.2753
     31 O         -17.2955  -34.7066    2.4860 O.2       1 MOL    -0.2699
     32 F         -18.8692  -36.2921    4.4842 F         1 MOL    -0.2047
     33 H         -23.0677  -42.7799    0.6808 H         1 MOL     0.0625
     34 H         -23.8601  -40.7614    1.7822 H         1 MOL     0.0618
     35 H         -22.2941  -38.9655    2.1151 H         1 MOL     0.0618
     36 H         -20.0099  -39.1057    1.4009 H         1 MOL     0.0624
     37 H         -17.9025  -39.4606   -0.5692 H         1 MOL     0.0377
     38 H         -16.9328  -40.4881    0.4734 H         1 MOL     0.0377
     39 H         -17.8299  -37.4345    0.2831 H         1 MOL     0.0629
     40 H         -18.1084  -33.0886    0.8942 H         1 MOL     0.0480
     41 H         -19.6696  -32.8946    1.7086 H         1 MOL     0.0480
     42 H         -19.2565  -32.1847   -0.8272 H         1 MOL     0.0480
     43 H         -20.8024  -32.7031   -0.2122 H         1 MOL     0.0480
     44 H         -20.1688  -36.1687   -1.4307 H         1 MOL     0.0480
     45 H         -21.5414  -35.1645   -0.9983 H         1 MOL     0.0480
     46 H         -19.9725  -36.6417    0.7160 H         1 MOL     0.0480
     47 H         -21.1512  -35.3863    1.1359 H         1 MOL     0.0480
     48 H         -17.9922  -32.6862   -2.0632 H         1 MOL     0.0394
     49 H         -18.7819  -31.3319   -4.4457 H         1 MOL     0.0273
     50 H         -19.7233  -32.4411   -4.8603 H         1 MOL     0.0273
     51 H         -16.6215  -32.6493   -4.4725 H         1 MOL     0.0273
     52 H         -17.1913  -33.9909   -4.8925 H         1 MOL     0.0273
     53 H         -18.9931  -38.9090    4.7175 H         1 MOL     0.0646
     54 H         -18.5838  -40.5108    2.9630 H         1 MOL     0.0621
     55 H         -18.9824  -44.0654   -0.9833 H         1 MOL     0.1921
@<TRIPOS>BOND
     1    1   18 1 
     2    1   21 1 
     3    1   17 am
     4    2   20 1 
     5    2   22 am
     6    2   19 1 
     7    3    4 ar
     8    3   12 ar
     9    4   55 1 
    10    4    5 ar
    11    5    6 ar
    12    5   29 2 
    13    6    7 ar
    14    6   11 ar
    15    7    8 ar
    16    7   33 1 
    17    8    9 ar
    18    8   34 1 
    19    9   10 ar
    20    9   35 1 
    21   10   11 ar
    22   10   36 1 
    23   11   12 ar
    24   12   13 1 
    25   13   14 1 
    26   13   37 1 
    27   13   38 1 
    28   14   15 ar
    29   14   28 ar
    30   15   16 ar
    31   15   39 1 
    32   16   17 1 
    33   16   26 ar
    34   17   31 2 
    35   18   19 1 
    36   18   40 1 
    37   18   41 1 
    38   19   42 1 
    39   19   43 1 
    40   20   21 1 
    41   20   44 1 
    42   20   45 1 
    43   21   46 1 
    44   21   47 1 
    45   22   23 1 
    46   22   30 2 
    47   23   24 1 
    48   23   25 1 
    49   23   48 1 
    50   24   25 1 
    51   24   49 1 
    52   24   50 1 
    53   25   51 1 
    54   25   52 1 
    55   26   27 ar
    56   26   32 1 
    57   27   28 ar
    58   27   53 1 
    59   28   54 1 
@<TRIPOS>SUBSTRUCTURE
1 MOL         1
@<TRIPOS>MOLECULE
query molecule
   55    59     1     0     0
SMALL
NO_CHARGE

@<TRIPOS>ATOM
      1 N         -65.9393  -46.0540   23.6453 N.am      1 MOL    -0.2945
      2 N         -68.2893  -46.3604   22.5814 N.am      1 MOL    -0.2983
      3 N         -60.8512  -45.3725   22.3981 N.ar      1 MOL    -0.1750
      4 N         -60.1713  -46.3715   22.9065 N.ar      1 MOL    -0.2425
      5 C         -59.2399  -46.2179   23.8583 C.ar      1 MOL     0.2725
      6 C         -58.9776  -44.9486   24.3313 C.ar      1 MOL     0.0496
      7 C         -58.0042  -44.7300   25.3070 C.ar      1 MOL     0.0138
      8 C         -57.7442  -43.4508   25.7492 C.ar      1 MOL     0.0008
      9 C         -58.4816  -42.4318   25.1841 C.ar      1 MOL     0.0007
     10 C         -59.4500  -42.6341   24.2151 C.ar      1 MOL     0.0103
     11 C         -59.7014  -43.9041   23.7863 C.ar      1 MOL     0.0106
     12 C         -60.6495  -44.0847   22.8152 C.ar      1 MOL     0.0736
     13 C         -61.5159  -43.0769   22.2180 C.3       1 MOL     0.0925
     14 C         -62.7607  -42.9150   23.0192 C.ar      1 MOL    -0.0406
     15 C         -63.3769  -44.1109   23.4289 C.ar      1 MOL     0.0196
     16 C         -64.5370  -44.0648   24.1643 C.ar      1 MOL     0.0723
     17 C         -65.2112  -45.3060   24.6073 C.2       1 MOL     0.2495
     18 C         -66.5987  -47.2587   24.0336 C.3       1 MOL     0.1268
     19 C         -67.7885  -47.5821   23.1556 C.3       1 MOL     0.1265
     20 C         -67.3840  -45.6225   21.6939 C.3       1 MOL     0.1265
     21 C         -65.9956  -45.5715   22.2779 C.3       1 MOL     0.1268
     22 C         -69.5753  -45.8793   22.8441 C.2       1 MOL     0.2187
     23 C         -70.5843  -46.4903   23.7134 C.3       1 MOL     0.0752
     24 C         -70.0938  -46.9961   25.0512 C.3       1 MOL     0.0134
     25 C         -70.5458  -47.9424   24.0288 C.3       1 MOL     0.0134
     26 C         -65.1488  -42.8909   24.5351 C.ar      1 MOL     0.1355
     27 C         -64.5447  -41.7210   24.1335 C.ar      1 MOL     0.0392
     28 C         -63.3616  -41.7643   23.3821 C.ar      1 MOL     0.0066
     29 O         -58.5786  -47.1633   24.3590 O.2       1 MOL    -0.2658
     30 O         -69.9292  -44.7865   22.2733 O.2       1 MOL    -0.2753
     31 O         -65.1573  -45.7091   25.7919 O.2       1 MOL    -0.2699
     32 F         -66.3016  -42.8978   25.2657 F         1 MOL    -0.2047
     33 H         -57.4787  -45.5271   25.6986 H         1 MOL     0.0625
     34 H         -57.0303  -43.2643   26.4695 H         1 MOL     0.0618
     35 H         -58.3017  -41.4665   25.5001 H         1 MOL     0.0618
     36 H         -59.9744  -41.8363   23.8230 H         1 MOL     0.0624
     37 H         -61.7736  -43.3780   21.2241 H         1 MOL     0.0377
     38 H         -60.9957  -42.1418   22.1986 H         1 MOL     0.0377
     39 H         -62.9595  -45.0204   23.1777 H         1 MOL     0.0629
     40 H         -66.9364  -47.1540   25.0438 H         1 MOL     0.0480
     41 H         -65.8951  -48.0592   23.9327 H         1 MOL     0.0480
     42 H         -68.5538  -48.0437   23.7434 H         1 MOL     0.0480
     43 H         -67.4926  -48.2546   22.3774 H         1 MOL     0.0480
     44 H         -67.7490  -44.6248   21.5680 H         1 MOL     0.0480
     45 H         -67.3420  -46.1223   20.7486 H         1 MOL     0.0480
     46 H         -65.6547  -44.5572   22.2608 H         1 MOL     0.0480
     47 H         -65.3751  -46.2108   21.6868 H         1 MOL     0.0480
     48 H         -71.3459  -45.8355   23.3454 H         1 MOL     0.0394
     49 H         -70.6815  -46.8378   25.9314 H         1 MOL     0.0273
     50 H         -69.2002  -46.8714   25.6265 H         1 MOL     0.0273
     51 H         -71.4604  -48.4796   24.1704 H         1 MOL     0.0273
     52 H         -70.1093  -48.7976   23.5583 H         1 MOL     0.0273
     53 H         -64.9633  -40.8114   24.3860 H         1 MOL     0.0646
     54 H         -62.9293  -40.8725   23.0935 H         1 MOL     0.0621
     55 H         -60.3544  -47.2798   22.5730 H         1 MOL     0.1921
@<TRIPOS>BOND
     1    1   18 1 
     2    1   21 1 
     3    1   17 am
     4    2   20 1 
     5    2   22 am
     6    2   19 1 
     7    3    4 ar
     8    3   12 ar
     9    4   55 1 
    10    4    5 ar
    11    5    6 ar
    12    5   29 2 
    13    6    7 ar
    14    6   11 ar
    15    7    8 ar
    16    7   33 1 
    17    8    9 ar
    18    8   34 1 
    19    9   10 ar
    20    9   35 1 
    21   10   11 ar
    22   10   36 1 
    23   11   12 ar
    24   12   13 1 
    25   13   14 1 
    26   13   37 1 
    27   13   38 1 
    28   14   15 ar
    29   14   28 ar
    30   15   16 ar
    31   15   39 1 
    32   16   17 1 
    33   16   26 ar
    34   17   31 2 
    35   18   19 1 
    36   18   40 1 
    37   18   41 1 
    38   19   42 1 
    39   19   43 1 
    40   20   21 1 
    41   20   44 1 
    42   20   45 1 
    43   21   46 1 
    44   21   47 1 
    45   22   23 1 
    46   22   30 2 
    47   23   24 1 
    48   23   25 1 
    49   23   48 1 
    50   24   25 1 
    51   24   49 1 
    52   24   50 1 
    53   25   51 1 
    54   25   52 1 
    55   26   27 ar
    56   26   32 1 
    57   27   28 ar
    58   27   53 1 
    59   28   54 1 
@<TRIPOS>SUBSTRUCTURE
1 MOL         1
@<TRIPOS>MOLECULE
query molecule
   55    59     1     0     0
SMALL
NO_CHARGE

@<TRIPOS>ATOM
      1 N         -37.4926  -56.5047  -18.8936 N.am      1 MOL    -0.2945
      2 N         -39.4662  -58.1827  -18.6996 N.am      1 MOL    -0.2983
      3 N         -38.0585  -51.5252  -20.7769 N.ar      1 MOL    -0.1750
      4 N         -38.6426  -51.6562  -21.9432 N.ar      1 MOL    -0.2425
      5 C         -38.1144  -51.1953  -23.0857 C.ar      1 MOL     0.2725
      6 C         -36.8960  -50.5495  -23.0404 C.ar      1 MOL     0.0496
      7 C         -36.3108  -50.0328  -24.1970 C.ar      1 MOL     0.0138
      8 C         -35.1031  -49.3726  -24.1247 C.ar      1 MOL     0.0008
      9 C         -34.5277  -49.2566  -22.8771 C.ar      1 MOL     0.0007
     10 C         -35.0971  -49.7640  -21.7212 C.ar      1 MOL     0.0103
     11 C         -36.2911  -50.4178  -21.8041 C.ar      1 MOL     0.0106
     12 C         -36.8488  -50.8979  -20.6495 C.ar      1 MOL     0.0736
     13 C         -36.2777  -50.8779  -19.3092 C.3       1 MOL     0.0925
     14 C         -36.9251  -51.9063  -18.4486 C.ar      1 MOL    -0.0406
     15 C         -36.5069  -53.2308  -18.6690 C.ar      1 MOL     0.0196
     16 C         -37.0547  -54.2523  -17.9306 C.ar      1 MOL     0.0723
     17 C         -36.6378  -55.6569  -18.1414 C.2       1 MOL     0.2495
     18 C         -37.1223  -57.8639  -19.1222 C.3       1 MOL     0.1268
     19 C         -38.3178  -58.7654  -19.3437 C.3       1 MOL     0.1265
     20 C         -39.9124  -56.8747  -19.1917 C.3       1 MOL     0.1265
     21 C         -38.7332  -55.9637  -19.4169 C.3       1 MOL     0.1268
     22 C         -40.1403  -58.8151  -17.6509 C.2       1 MOL     0.2187
     23 C         -39.8101  -60.1068  -17.0429 C.3       1 MOL     0.0752
     24 C         -39.0666  -61.0869  -17.9218 C.3       1 MOL     0.0134
     25 C         -40.4473  -61.3627  -17.5185 C.3       1 MOL     0.0134
     26 C         -38.0114  -54.0547  -16.9633 C.ar      1 MOL     0.1355
     27 C         -38.4200  -52.7579  -16.7485 C.ar      1 MOL     0.0392
     28 C         -37.8639  -51.7134  -17.5008 C.ar      1 MOL     0.0066
     29 O         -38.6586  -51.3123  -24.2135 O.2       1 MOL    -0.2658
     30 O         -41.1597  -58.2166  -17.1529 O.2       1 MOL    -0.2753
     31 O         -35.5656  -56.1119  -17.6808 O.2       1 MOL    -0.2699
     32 F         -38.5254  -55.1032  -16.2568 F         1 MOL    -0.2047
     33 H         -36.7824  -50.1455  -25.1080 H         1 MOL     0.0625
     34 H         -34.6510  -48.9827  -24.9654 H         1 MOL     0.0618
     35 H         -33.6241  -48.7648  -22.8006 H         1 MOL     0.0618
     36 H         -34.6254  -49.6499  -20.8103 H         1 MOL     0.0624
     37 H         -36.4286  -49.9109  -18.8764 H         1 MOL     0.0377
     38 H         -35.2318  -51.0946  -19.3761 H         1 MOL     0.0377
     39 H         -35.7910  -53.4351  -19.3833 H         1 MOL     0.0629
     40 H         -36.5785  -58.2185  -18.2712 H         1 MOL     0.0480
     41 H         -36.5271  -57.8916  -20.0115 H         1 MOL     0.0480
     42 H         -38.1223  -59.7306  -18.9261 H         1 MOL     0.0480
     43 H         -38.5037  -58.8699  -20.3925 H         1 MOL     0.0480
     44 H         -40.5664  -56.4310  -18.4706 H         1 MOL     0.0480
     45 H         -40.4252  -57.0107  -20.1209 H         1 MOL     0.0480
     46 H         -38.9269  -55.0284  -18.9343 H         1 MOL     0.0480
     47 H         -38.6127  -55.8500  -20.4732 H         1 MOL     0.0480
     48 H         -39.6908  -59.6598  -16.0784 H         1 MOL     0.0394
     49 H         -38.2643  -61.6676  -17.5163 H         1 MOL     0.0273
     50 H         -38.5479  -61.0240  -18.8556 H         1 MOL     0.0273
     51 H         -40.6497  -62.1515  -16.8244 H         1 MOL     0.0273
     52 H         -41.3483  -61.5892  -18.0479 H         1 MOL     0.0273
     53 H         -39.1362  -52.5547  -16.0329 H         1 MOL     0.0646
     54 H         -38.1883  -50.7502  -17.3201 H         1 MOL     0.0621
     55 H         -39.5124  -52.1165  -21.9817 H         1 MOL     0.1921
@<TRIPOS>BOND
     1    1   18 1 
     2    1   21 1 
     3    1   17 am
     4    2   20 1 
     5    2   22 am
     6    2   19 1 
     7    3    4 ar
     8    3   12 ar
     9    4   55 1 
    10    4    5 ar
    11    5    6 ar
    12    5   29 2 
    13    6    7 ar
    14    6   11 ar
    15    7    8 ar
    16    7   33 1 
    17    8    9 ar
    18    8   34 1 
    19    9   10 ar
    20    9   35 1 
    21   10   11 ar
    22   10   36 1 
    23   11   12 ar
    24   12   13 1 
    25   13   14 1 
    26   13   37 1 
    27   13   38 1 
    28   14   15 ar
    29   14   28 ar
    30   15   16 ar
    31   15   39 1 
    32   16   17 1 
    33   16   26 ar
    34   17   31 2 
    35   18   19 1 
    36   18   40 1 
    37   18   41 1 
    38   19   42 1 
    39   19   43 1 
    40   20   21 1 
    41   20   44 1 
    42   20   45 1 
    43   21   46 1 
    44   21   47 1 
    45   22   23 1 
    46   22   30 2 
    47   23   24 1 
    48   23   25 1 
    49   23   48 1 
    50   24   25 1 
    51   24   49 1 
    52   24   50 1 
    53   25   51 1 
    54   25   52 1 
    55   26   27 ar
    56   26   32 1 
    57   27   28 ar
    58   27   53 1 
    59   28   54 1 
@<TRIPOS>SUBSTRUCTURE
1 MOL         1
@<TRIPOS>MOLECULE
query molecule
   55    59     1     0     0
SMALL
NO_CHARGE

@<TRIPOS>ATOM
      1 N         -61.8759  -33.5197  -10.7623 N.am      1 MOL    -0.2945
      2 N         -64.3516  -32.8306  -10.3824 N.am      1 MOL    -0.2983
      3 N         -55.9475  -33.2825  -13.1281 N.ar      1 MOL    -0.1750
      4 N         -54.9194  -34.0663  -12.9107 N.ar      1 MOL    -0.2425
      5 C         -53.8257  -33.6755  -12.2415 C.ar      1 MOL     0.2725
      6 C         -53.7712  -32.3858  -11.7544 C.ar      1 MOL     0.0496
      7 C         -52.6484  -31.9213  -11.0684 C.ar      1 MOL     0.0138
      8 C         -52.6074  -30.6224  -10.6094 C.ar      1 MOL     0.0008
      9 C         -53.7099  -29.8343  -10.8637 C.ar      1 MOL     0.0007
     10 C         -54.8305  -30.2818  -11.5434 C.ar      1 MOL     0.0103
     11 C         -54.8620  -31.5696  -11.9911 C.ar      1 MOL     0.0106
     12 C         -55.9699  -31.9907  -12.6764 C.ar      1 MOL     0.0736
     13 C         -57.1979  -31.2477  -12.9271 C.3       1 MOL     0.0925
     14 C         -58.0431  -31.2043  -11.7018 C.ar      1 MOL    -0.0406
     15 C         -58.8746  -32.3202  -11.4998 C.ar      1 MOL     0.0196
     16 C         -59.6997  -32.3680  -10.4017 C.ar      1 MOL     0.0723
     17 C         -60.5889  -33.5271  -10.1634 C.2       1 MOL     0.2495
     18 C         -62.7597  -34.6218  -10.5594 C.3       1 MOL     0.1268
     19 C         -64.2170  -34.2321  -10.6836 C.3       1 MOL     0.1265
     20 C         -63.6564  -31.8901  -11.2679 C.3       1 MOL     0.1265
     21 C         -62.2650  -32.3816  -11.5741 C.3       1 MOL     0.1268
     22 C         -65.1039  -32.3641   -9.3004 C.2       1 MOL     0.2187
     23 C         -65.8390  -33.1728   -8.3243 C.3       1 MOL     0.0752
     24 C         -67.3126  -33.3722   -8.5981 C.3       1 MOL     0.0134
     25 C         -66.8804  -32.5650   -7.4549 C.3       1 MOL     0.0134
     26 C         -59.7640  -31.3660   -9.4626 C.ar      1 MOL     0.1355
     27 C         -58.9497  -30.2741   -9.6614 C.ar      1 MOL     0.0392
     28 C         -58.1074  -30.2218  -10.7812 C.ar      1 MOL     0.0066
     29 O         -52.8306  -34.4128  -12.0219 O.2       1 MOL    -0.2658
     30 O         -65.1698  -31.0952   -9.1253 O.2       1 MOL    -0.2753
     31 O         -60.2415  -34.5016   -9.4573 O.2       1 MOL    -0.2699
     32 F         -60.6011  -31.4602   -8.3887 F         1 MOL    -0.2047
     33 H         -51.8477  -32.5512  -10.9037 H         1 MOL     0.0625
     34 H         -51.7892  -30.2565  -10.0996 H         1 MOL     0.0618
     35 H         -53.6992  -28.8583  -10.5299 H         1 MOL     0.0618
     36 H         -55.6304  -29.6508  -11.7087 H         1 MOL     0.0624
     37 H         -57.7436  -31.7243  -13.7145 H         1 MOL     0.0377
     38 H         -56.9447  -30.2459  -13.2056 H         1 MOL     0.0377
     39 H         -58.8656  -33.1009  -12.1744 H         1 MOL     0.0629
     40 H         -62.5931  -35.0184   -9.5794 H         1 MOL     0.0480
     41 H         -62.5526  -35.3464  -11.3198 H         1 MOL     0.0480
     42 H         -64.8022  -34.8058   -9.9961 H         1 MOL     0.0480
     43 H         -64.5600  -34.4242  -11.6791 H         1 MOL     0.0480
     44 H         -63.5943  -30.9353  -10.7893 H         1 MOL     0.0480
     45 H         -64.2027  -31.8090  -12.1844 H         1 MOL     0.0480
     46 H         -61.5740  -31.5843  -11.3957 H         1 MOL     0.0480
     47 H         -62.2539  -32.6978  -12.5954 H         1 MOL     0.0480
     48 H         -64.9802  -33.7807   -8.1314 H         1 MOL     0.0394
     49 H         -67.7619  -34.3301   -8.4378 H         1 MOL     0.0273
     50 H         -67.9547  -33.2127   -9.4391 H         1 MOL     0.0273
     51 H         -67.0238  -32.9337   -6.4607 H         1 MOL     0.0273
     52 H         -67.0886  -31.5703   -7.1225 H         1 MOL     0.0273
     53 H         -58.9592  -29.4938   -8.9852 H         1 MOL     0.0646
     54 H         -57.5071  -29.3914  -10.9067 H         1 MOL     0.0621
     55 H         -54.9528  -34.9881  -13.2556 H         1 MOL     0.1921
@<TRIPOS>BOND
     1    1   18 1 
     2    1   21 1 
     3    1   17 am
     4    2   20 1 
     5    2   22 am
     6    2   19 1 
     7    3    4 ar
     8    3   12 ar
     9    4   55 1 
    10    4    5 ar
    11    5    6 ar
    12    5   29 2 
    13    6    7 ar
    14    6   11 ar
    15    7    8 ar
    16    7   33 1 
    17    8    9 ar
    18    8   34 1 
    19    9   10 ar
    20    9   35 1 
    21   10   11 ar
    22   10   36 1 
    23   11   12 ar
    24   12   13 1 
    25   13   14 1 
    26   13   37 1 
    27   13   38 1 
    28   14   15 ar
    29   14   28 ar
    30   15   16 ar
    31   15   39 1 
    32   16   17 1 
    33   16   26 ar
    34   17   31 2 
    35   18   19 1 
    36   18   40 1 
    37   18   41 1 
    38   19   42 1 
    39   19   43 1 
    40   20   21 1 
    41   20   44 1 
    42   20   45 1 
    43   21   46 1 
    44   21   47 1 
    45   22   23 1 
    46   22   30 2 
    47   23   24 1 
    48   23   25 1 
    49   23   48 1 
    50   24   25 1 
    51   24   49 1 
    52   24   50 1 
    53   25   51 1 
    54   25   52 1 
    55   26   27 ar
    56   26   32 1 
    57   27   28 ar
    58   27   53 1 
    59   28   54 1 
@<TRIPOS>SUBSTRUCTURE
1 MOL         1
@<TRIPOS>MOLECULE
query molecule
   55    59     1     0     0
SMALL
NO_CHARGE

@<TRIPOS>ATOM
      1 N         -48.1609  -46.3126   28.4875 N.am      1 MOL    -0.2945
      2 N         -50.6636  -46.4423   27.8032 N.am      1 MOL    -0.2983
      3 N         -42.5093  -43.1245   28.6597 N.ar      1 MOL    -0.1750
      4 N         -41.6143  -42.7489   29.5409 N.ar      1 MOL    -0.2425
      5 C         -40.3102  -43.0401   29.4341 C.ar      1 MOL     0.2725
      6 C         -39.8806  -43.7714   28.3458 C.ar      1 MOL     0.0496
      7 C         -38.5375  -44.1191   28.1961 C.ar      1 MOL     0.0138
      8 C         -38.1345  -44.8685   27.1119 C.ar      1 MOL     0.0008
      9 C         -39.1107  -45.2431   26.2131 C.ar      1 MOL     0.0007
     10 C         -40.4469  -44.9055   26.3493 C.ar      1 MOL     0.0103
     11 C         -40.8348  -44.1616   27.4244 C.ar      1 MOL     0.0106
     12 C         -42.1621  -43.8515   27.5532 C.ar      1 MOL     0.0736
     13 C         -43.2407  -44.1478   26.6194 C.3       1 MOL     0.0925
     14 C         -44.5554  -43.7502   27.1947 C.ar      1 MOL    -0.0406
     15 C         -45.2390  -44.7587   27.8970 C.ar      1 MOL     0.0196
     16 C         -46.4657  -44.4911   28.4558 C.ar      1 MOL     0.0723
     17 C         -47.2114  -45.5324   29.1980 C.2       1 MOL     0.2495
     18 C         -48.8959  -47.3294   29.1678 C.3       1 MOL     0.1268
     19 C         -50.2343  -47.6143   28.5209 C.3       1 MOL     0.1265
     20 C         -49.8188  -45.9978   26.6893 C.3       1 MOL     0.1265
     21 C         -48.3628  -46.0553   27.0737 C.3       1 MOL     0.1268
     22 C         -51.8275  -45.7429   28.1353 C.2       1 MOL     0.2187
     23 C         -52.7613  -46.0514   29.2216 C.3       1 MOL     0.0752
     24 C         -52.7261  -47.4679   29.7492 C.3       1 MOL     0.0134
     25 C         -53.8973  -46.9871   29.0129 C.3       1 MOL     0.0134
     26 C         -47.0827  -43.2656   28.3692 C.ar      1 MOL     0.1355
     27 C         -46.4127  -42.2792   27.6814 C.ar      1 MOL     0.0392
     28 C         -45.1613  -42.5492   27.1092 C.ar      1 MOL     0.0066
     29 O         -39.4370  -42.6878   30.2678 O.2       1 MOL    -0.2658
     30 O         -52.1278  -44.7175   27.4257 O.2       1 MOL    -0.2753
     31 O         -47.0297  -45.7415   30.4195 O.2       1 MOL    -0.2699
     32 F         -48.3030  -43.0497   28.9411 F         1 MOL    -0.2047
     33 H         -37.8447  -43.8143   28.8976 H         1 MOL     0.0625
     34 H         -37.1478  -45.1373   26.9794 H         1 MOL     0.0618
     35 H         -38.8305  -45.8056   25.3950 H         1 MOL     0.0618
     36 H         -41.1394  -45.2118   25.6479 H         1 MOL     0.0624
     37 H         -43.2496  -45.1977   26.4132 H         1 MOL     0.0377
     38 H         -43.0786  -43.5945   25.7178 H         1 MOL     0.0377
     39 H         -44.8208  -45.6971   27.9923 H         1 MOL     0.0629
     40 H         -49.0629  -47.0141   30.1769 H         1 MOL     0.0480
     41 H         -48.3178  -48.2294   29.1252 H         1 MOL     0.0480
     42 H         -50.9531  -47.8580   29.2748 H         1 MOL     0.0480
     43 H         -50.1423  -48.4400   27.8462 H         1 MOL     0.0480
     44 H         -50.0748  -44.9914   26.4322 H         1 MOL     0.0480
     45 H         -49.9801  -46.6451   25.8526 H         1 MOL     0.0480
     46 H         -47.9078  -45.1178   26.8302 H         1 MOL     0.0480
     47 H         -47.9202  -46.8655   26.5343 H         1 MOL     0.0480
     48 H         -52.6860  -45.0586   29.6129 H         1 MOL     0.0394
     49 H         -52.7926  -47.6487   30.8019 H         1 MOL     0.0273
     50 H         -52.0560  -48.2962   29.6502 H         1 MOL     0.0273
     51 H         -54.8200  -46.8262   29.5304 H         1 MOL     0.0273
     52 H         -54.4323  -47.3326   28.1540 H         1 MOL     0.0273
     53 H         -46.8320  -41.3403   27.5873 H         1 MOL     0.0646
     54 H         -44.6804  -41.7919   26.5985 H         1 MOL     0.0621
     55 H         -41.9151  -42.2264   30.3195 H         1 MOL     0.1921
@<TRIPOS>BOND
     1    1   18 1 
     2    1   21 1 
     3    1   17 am
     4    2   20 1 
     5    2   22 am
     6    2   19 1 
     7    3    4 ar
     8    3   12 ar
     9    4   55 1 
    10    4    5 ar
    11    5    6 ar
    12    5   29 2 
    13    6    7 ar
    14    6   11 ar
    15    7    8 ar
    16    7   33 1 
    17    8    9 ar
    18    8   34 1 
    19    9   10 ar
    20    9   35 1 
    21   10   11 ar
    22   10   36 1 
    23   11   12 ar
    24   12   13 1 
    25   13   14 1 
    26   13   37 1 
    27   13   38 1 
    28   14   15 ar
    29   14   28 ar
    30   15   16 ar
    31   15   39 1 
    32   16   17 1 
    33   16   26 ar
    34   17   31 2 
    35   18   19 1 
    36   18   40 1 
    37   18   41 1 
    38   19   42 1 
    39   19   43 1 
    40   20   21 1 
    41   20   44 1 
    42   20   45 1 
    43   21   46 1 
    44   21   47 1 
    45   22   23 1 
    46   22   30 2 
    47   23   24 1 
    48   23   25 1 
    49   23   48 1 
    50   24   25 1 
    51   24   49 1 
    52   24   50 1 
    53   25   51 1 
    54   25   52 1 
    55   26   27 ar
    56   26   32 1 
    57   27   28 ar
    58   27   53 1 
    59   28   54 1 
@<TRIPOS>SUBSTRUCTURE
1 MOL         1
@<TRIPOS>MOLECULE
query molecule
   55    59     1     0     0
SMALL
NO_CHARGE

@<TRIPOS>ATOM
      1 N         -37.4618  -54.2708  -17.7457 N.am      1 MOL    -0.2945
      2 N         -35.4307  -55.3966  -16.5813 N.am      1 MOL    -0.2983
      3 N         -34.5868  -52.3690  -23.0398 N.ar      1 MOL    -0.1750
      4 N         -33.4005  -51.8860  -23.3193 N.ar      1 MOL    -0.2425
      5 C         -33.0177  -51.5484  -24.5588 C.ar      1 MOL     0.2725
      6 C         -33.9105  -51.7148  -25.5975 C.ar      1 MOL     0.0496
      7 C         -33.5566  -51.3982  -26.9096 C.ar      1 MOL     0.0138
      8 C         -34.4575  -51.5929  -27.9344 C.ar      1 MOL     0.0008
      9 C         -35.6913  -52.1055  -27.5934 C.ar      1 MOL     0.0007
     10 C         -36.0557  -52.4244  -26.2959 C.ar      1 MOL     0.0103
     11 C         -35.1578  -52.2256  -25.2889 C.ar      1 MOL     0.0106
     12 C         -35.5278  -52.5626  -24.0146 C.ar      1 MOL     0.0736
     13 C         -36.8269  -53.0425  -23.5618 C.3       1 MOL     0.0925
     14 C         -37.1149  -52.5542  -22.1849 C.ar      1 MOL    -0.0406
     15 C         -37.4894  -53.5429  -21.2576 C.ar      1 MOL     0.0196
     16 C         -37.7853  -53.1888  -19.9631 C.ar      1 MOL     0.0723
     17 C         -38.1860  -54.2058  -18.9648 C.2       1 MOL     0.2495
     18 C         -37.8217  -55.2349  -16.7567 C.3       1 MOL     0.1268
     19 C         -36.6601  -55.6188  -15.8655 C.3       1 MOL     0.1265
     20 C         -35.1321  -54.0162  -16.9781 C.3       1 MOL     0.1265
     21 C         -36.3634  -53.3468  -17.5322 C.3       1 MOL     0.1268
     22 C         -34.5472  -56.4332  -16.8960 C.2       1 MOL     0.2187
     23 C         -34.7104  -57.8555  -16.5834 C.3       1 MOL     0.0752
     24 C         -35.7856  -58.1981  -15.5771 C.3       1 MOL     0.0134
     25 C         -34.3737  -58.3875  -15.2368 C.3       1 MOL     0.0134
     26 C         -37.7360  -51.8934  -19.5054 C.ar      1 MOL     0.1355
     27 C         -37.3693  -50.9265  -20.4139 C.ar      1 MOL     0.0392
     28 C         -37.0677  -51.2841  -21.7358 C.ar      1 MOL     0.0066
     29 O         -31.8854  -51.0826  -24.8464 O.2       1 MOL    -0.2658
     30 O         -33.4728  -56.1278  -17.5266 O.2       1 MOL    -0.2753
     31 O         -39.1341  -54.9997  -19.1636 O.2       1 MOL    -0.2699
     32 F         -38.0401  -51.5924  -18.2094 F         1 MOL    -0.2047
     33 H         -32.6194  -51.0172  -27.1132 H         1 MOL     0.0625
     34 H         -34.2193  -51.3660  -28.9116 H         1 MOL     0.0618
     35 H         -36.3800  -52.2601  -28.3456 H         1 MOL     0.0618
     36 H         -36.9928  -52.8066  -26.0932 H         1 MOL     0.0624
     37 H         -36.8272  -54.1126  -23.5631 H         1 MOL     0.0377
     38 H         -37.5819  -52.6711  -24.2231 H         1 MOL     0.0377
     39 H         -37.5423  -54.5314  -21.5484 H         1 MOL     0.0629
     40 H         -38.1804  -56.1143  -17.2503 H         1 MOL     0.0480
     41 H         -38.5745  -54.7951  -16.1355 H         1 MOL     0.0480
     42 H         -36.7388  -56.6513  -15.5974 H         1 MOL     0.0480
     43 H         -36.6744  -55.0248  -14.9753 H         1 MOL     0.0480
     44 H         -34.3682  -54.0219  -17.7270 H         1 MOL     0.0480
     45 H         -34.8019  -53.4722  -16.1179 H         1 MOL     0.0480
     46 H         -36.1136  -52.8932  -18.4687 H         1 MOL     0.0480
     47 H         -36.6873  -52.6248  -16.8132 H         1 MOL     0.0480
     48 H         -34.4373  -58.1395  -17.5780 H         1 MOL     0.0394
     49 H         -36.4166  -59.0476  -15.7364 H         1 MOL     0.0273
     50 H         -36.6071  -57.6714  -15.1380 H         1 MOL     0.0273
     51 H         -33.9796  -59.3777  -15.1402 H         1 MOL     0.0273
     52 H         -33.7477  -58.0537  -14.4369 H         1 MOL     0.0273
     53 H         -37.3162  -49.9376  -20.1214 H         1 MOL     0.0646
     54 H         -36.7958  -50.5395  -22.3970 H         1 MOL     0.0621
     55 H         -32.7592  -51.7647  -22.5819 H         1 MOL     0.1921
@<TRIPOS>BOND
     1    1   18 1 
     2    1   21 1 
     3    1   17 am
     4    2   20 1 
     5    2   22 am
     6    2   19 1 
     7    3    4 ar
     8    3   12 ar
     9    4   55 1 
    10    4    5 ar
    11    5    6 ar
    12    5   29 2 
    13    6    7 ar
    14    6   11 ar
    15    7    8 ar
    16    7   33 1 
    17    8    9 ar
    18    8   34 1 
    19    9   10 ar
    20    9   35 1 
    21   10   11 ar
    22   10   36 1 
    23   11   12 ar
    24   12   13 1 
    25   13   14 1 
    26   13   37 1 
    27   13   38 1 
    28   14   15 ar
    29   14   28 ar
    30   15   16 ar
    31   15   39 1 
    32   16   17 1 
    33   16   26 ar
    34   17   31 2 
    35   18   19 1 
    36   18   40 1 
    37   18   41 1 
    38   19   42 1 
    39   19   43 1 
    40   20   21 1 
    41   20   44 1 
    42   20   45 1 
    43   21   46 1 
    44   21   47 1 
    45   22   23 1 
    46   22   30 2 
    47   23   24 1 
    48   23   25 1 
    49   23   48 1 
    50   24   25 1 
    51   24   49 1 
    52   24   50 1 
    53   25   51 1 
    54   25   52 1 
    55   26   27 ar
    56   26   32 1 
    57   27   28 ar
    58   27   53 1 
    59   28   54 1 
@<TRIPOS>SUBSTRUCTURE
1 MOL         1
@<TRIPOS>MOLECULE
query molecule
   55    59     1     0     0
SMALL
NO_CHARGE

@<TRIPOS>ATOM
      1 N         -14.1609  -52.0540   28.5036 N.am      1 MOL    -0.2945
      2 N         -15.0486  -53.9961   27.0242 N.am      1 MOL    -0.2983
      3 N         -10.1481  -50.4453   24.1661 N.ar      1 MOL    -0.1750
      4 N          -9.8691  -50.2227   22.9047 N.ar      1 MOL    -0.2425
      5 C          -8.8504  -49.4499   22.5025 C.ar      1 MOL     0.2725
      6 C          -8.0513  -48.8553   23.4573 C.ar      1 MOL     0.0496
      7 C          -6.9900  -48.0255   23.0938 C.ar      1 MOL     0.0138
      8 C          -6.2183  -47.4250   24.0651 C.ar      1 MOL     0.0008
      9 C          -6.5506  -47.6859   25.3777 C.ar      1 MOL     0.0007
     10 C          -7.6010  -48.5068   25.7528 C.ar      1 MOL     0.0103
     11 C          -8.3569  -49.0981   24.7838 C.ar      1 MOL     0.0106
     12 C          -9.4023  -49.8925   25.1718 C.ar      1 MOL     0.0736
     13 C          -9.7770  -50.2723   26.5276 C.3       1 MOL     0.0925
     14 C         -11.0263  -49.5751   26.9404 C.ar      1 MOL    -0.0406
     15 C         -11.9816  -50.3777   27.5893 C.ar      1 MOL     0.0196
     16 C         -13.1721  -49.8268   27.9991 C.ar      1 MOL     0.0723
     17 C         -14.1989  -50.6462   28.6815 C.2       1 MOL     0.2495
     18 C         -15.1313  -52.8776   29.1493 C.3       1 MOL     0.1268
     19 C         -15.3748  -54.1785   28.4147 C.3       1 MOL     0.1265
     20 C         -13.6556  -53.6645   26.7057 C.3       1 MOL     0.1265
     21 C         -13.1267  -52.6269   27.6621 C.3       1 MOL     0.1268
     22 C         -15.9992  -54.1231   26.0071 C.2       1 MOL     0.2187
     23 C         -17.4225  -54.4340   26.1650 C.3       1 MOL     0.0752
     24 C         -17.7482  -55.7026   26.9203 C.3       1 MOL     0.0134
     25 C         -18.0300  -55.6085   25.4861 C.3       1 MOL     0.0134
     26 C         -13.4959  -48.5042   27.8100 C.ar      1 MOL     0.1355
     27 C         -12.5601  -47.7196   27.1748 C.ar      1 MOL     0.0392
     28 C         -11.3448  -48.2787   26.7543 C.ar      1 MOL     0.0066
     29 O          -8.5663  -49.2255   21.2980 O.2       1 MOL    -0.2658
     30 O         -15.6037  -53.9522   24.7990 O.2       1 MOL    -0.2753
     31 O         -15.0884  -50.1381   29.4023 O.2       1 MOL    -0.2699
     32 F         -14.6927  -48.0045   28.2351 F         1 MOL    -0.2047
     33 H          -6.7821  -47.8614   22.0964 H         1 MOL     0.0625
     34 H          -5.4287  -46.8083   23.8212 H         1 MOL     0.0618
     35 H          -5.9864  -47.2453   26.1204 H         1 MOL     0.0618
     36 H          -7.8091  -48.6694   26.7506 H         1 MOL     0.0624
     37 H          -8.9872  -50.0066   27.1989 H         1 MOL     0.0377
     38 H          -9.9474  -51.3285   26.5558 H         1 MOL     0.0377
     39 H         -11.7894  -51.3775   27.7568 H         1 MOL     0.0629
     40 H         -16.0541  -52.3386   29.2070 H         1 MOL     0.0480
     41 H         -14.7537  -53.1207   30.1211 H         1 MOL     0.0480
     42 H         -16.4031  -54.4576   28.5095 H         1 MOL     0.0480
     43 H         -14.7633  -54.9509   28.8329 H         1 MOL     0.0480
     44 H         -13.6035  -53.2816   25.7080 H         1 MOL     0.0480
     45 H         -13.0601  -54.5492   26.7932 H         1 MOL     0.0480
     46 H         -12.6738  -51.8396   27.0962 H         1 MOL     0.0480
     47 H         -12.4230  -53.1118   28.3047 H         1 MOL     0.0480
     48 H         -17.6779  -53.3962   26.2128 H         1 MOL     0.0394
     49 H         -18.5539  -55.7143   27.6245 H         1 MOL     0.0273
     50 H         -17.1964  -56.3766   27.5417 H         1 MOL     0.0273
     51 H         -19.0437  -55.5603   25.1467 H         1 MOL     0.0273
     52 H         -17.7663  -56.1975   24.6336 H         1 MOL     0.0273
     53 H         -12.7535  -46.7190   27.0082 H         1 MOL     0.0646
     54 H         -10.6606  -47.6683   26.2800 H         1 MOL     0.0621
     55 H         -10.4358  -50.6447   22.2187 H         1 MOL     0.1921
@<TRIPOS>BOND
     1    1   18 1 
     2    1   21 1 
     3    1   17 am
     4    2   20 1 
     5    2   22 am
     6    2   19 1 
     7    3    4 ar
     8    3   12 ar
     9    4   55 1 
    10    4    5 ar
    11    5    6 ar
    12    5   29 2 
    13    6    7 ar
    14    6   11 ar
    15    7    8 ar
    16    7   33 1 
    17    8    9 ar
    18    8   34 1 
    19    9   10 ar
    20    9   35 1 
    21   10   11 ar
    22   10   36 1 
    23   11   12 ar
    24   12   13 1 
    25   13   14 1 
    26   13   37 1 
    27   13   38 1 
    28   14   15 ar
    29   14   28 ar
    30   15   16 ar
    31   15   39 1 
    32   16   17 1 
    33   16   26 ar
    34   17   31 2 
    35   18   19 1 
    36   18   40 1 
    37   18   41 1 
    38   19   42 1 
    39   19   43 1 
    40   20   21 1 
    41   20   44 1 
    42   20   45 1 
    43   21   46 1 
    44   21   47 1 
    45   22   23 1 
    46   22   30 2 
    47   23   24 1 
    48   23   25 1 
    49   23   48 1 
    50   24   25 1 
    51   24   49 1 
    52   24   50 1 
    53   25   51 1 
    54   25   52 1 
    55   26   27 ar
    56   26   32 1 
    57   27   28 ar
    58   27   53 1 
    59   28   54 1 
@<TRIPOS>SUBSTRUCTURE
1 MOL         1
@<TRIPOS>MOLECULE
query molecule
   55    59     1     0     0
SMALL
NO_CHARGE

@<TRIPOS>ATOM
      1 N         -56.0726  -30.1123   19.7703 N.am      1 MOL    -0.2945
      2 N         -55.7753  -32.2600   21.2012 N.am      1 MOL    -0.2983
      3 N         -49.8197  -26.4703   17.7360 N.ar      1 MOL    -0.1750
      4 N         -49.3321  -26.0855   16.5815 N.ar      1 MOL    -0.2425
      5 C         -49.1869  -26.9089   15.5337 C.ar      1 MOL     0.2725
      6 C         -49.5666  -28.2285   15.6691 C.ar      1 MOL     0.0496
      7 C         -49.4183  -29.1326   14.6167 C.ar      1 MOL     0.0138
      8 C         -49.7846  -30.4510   14.7816 C.ar      1 MOL     0.0008
      9 C         -50.2895  -30.8104   16.0133 C.ar      1 MOL     0.0007
     10 C         -50.4418  -29.9240   17.0664 C.ar      1 MOL     0.0103
     11 C         -50.0787  -28.6211   16.8920 C.ar      1 MOL     0.0106
     12 C         -50.2193  -27.7619   17.9487 C.ar      1 MOL     0.0736
     13 C         -50.8040  -28.0429   19.2534 C.3       1 MOL     0.0925
     14 C         -52.2319  -27.6220   19.2890 C.ar      1 MOL    -0.0406
     15 C         -53.1679  -28.6304   18.9981 C.ar      1 MOL     0.0196
     16 C         -54.5105  -28.3367   18.9959 C.ar      1 MOL     0.0723
     17 C         -55.5199  -29.3755   18.6902 C.2       1 MOL     0.2495
     18 C         -57.0521  -31.1186   19.5156 C.3       1 MOL     0.1268
     19 C         -57.0719  -32.1964   20.5782 C.3       1 MOL     0.1265
     20 C         -55.3226  -31.0631   21.9185 C.3       1 MOL     0.1265
     21 C         -55.6247  -29.8214   21.1196 C.3       1 MOL     0.1268
     22 C         -54.9669  -33.3987   21.1377 C.2       1 MOL     0.2187
     23 C         -55.2704  -34.6578   20.4525 C.3       1 MOL     0.0752
     24 C         -54.3279  -35.0551   19.3390 C.3       1 MOL     0.0134
     25 C         -55.7075  -34.6709   19.0318 C.3       1 MOL     0.0134
     26 C         -55.0092  -27.0849   19.2685 C.ar      1 MOL     0.1355
     27 C         -54.0920  -26.0986   19.5531 C.ar      1 MOL     0.0392
     28 C         -52.7214  -26.3946   19.5552 C.ar      1 MOL     0.0066
     29 O         -48.7228  -26.5584   14.4186 O.2       1 MOL    -0.2658
     30 O         -53.8333  -33.3570   21.7364 O.2       1 MOL    -0.2753
     31 O         -55.8950  -29.6186   17.5202 O.2       1 MOL    -0.2699
     32 F         -56.3523  -26.8433   19.2531 F         1 MOL    -0.2047
     33 H         -49.0345  -28.8139   13.7133 H         1 MOL     0.0625
     34 H         -49.6849  -31.1375   14.0186 H         1 MOL     0.0618
     35 H         -50.5686  -31.7928   16.1583 H         1 MOL     0.0618
     36 H         -50.8246  -30.2438   17.9700 H         1 MOL     0.0624
     37 H         -50.2608  -27.5093   20.0052 H         1 MOL     0.0377
     38 H         -50.7515  -29.0962   19.4357 H         1 MOL     0.0377
     39 H         -52.8476  -29.5881   18.7865 H         1 MOL     0.0629
     40 H         -56.8384  -31.5730   18.5704 H         1 MOL     0.0480
     41 H         -58.0116  -30.6439   19.5184 H         1 MOL     0.0480
     42 H         -57.3019  -33.1396   20.1291 H         1 MOL     0.0480
     43 H         -57.8167  -31.9682   21.3122 H         1 MOL     0.0480
     44 H         -54.2672  -31.1278   22.0816 H         1 MOL     0.0480
     45 H         -55.8380  -31.0045   22.8544 H         1 MOL     0.0480
     46 H         -54.7364  -29.2273   21.0625 H         1 MOL     0.0480
     47 H         -56.4184  -29.3054   21.6164 H         1 MOL     0.0480
     48 H         -55.6634  -35.0894   21.3490 H         1 MOL     0.0394
     49 H         -54.0207  -36.0750   19.2361 H         1 MOL     0.0273
     50 H         -53.3610  -34.7319   19.0142 H         1 MOL     0.0273
     51 H         -56.4025  -35.4123   18.6967 H         1 MOL     0.0273
     52 H         -56.1540  -33.9495   18.3810 H         1 MOL     0.0273
     53 H         -54.4140  -25.1407   19.7653 H         1 MOL     0.0646
     54 H         -52.0548  -25.6366   19.7715 H         1 MOL     0.0621
     55 H         -49.0597  -25.1448   16.4789 H         1 MOL     0.1921
@<TRIPOS>BOND
     1    1   18 1 
     2    1   21 1 
     3    1   17 am
     4    2   20 1 
     5    2   22 am
     6    2   19 1 
     7    3    4 ar
     8    3   12 ar
     9    4   55 1 
    10    4    5 ar
    11    5    6 ar
    12    5   29 2 
    13    6    7 ar
    14    6   11 ar
    15    7    8 ar
    16    7   33 1 
    17    8    9 ar
    18    8   34 1 
    19    9   10 ar
    20    9   35 1 
    21   10   11 ar
    22   10   36 1 
    23   11   12 ar
    24   12   13 1 
    25   13   14 1 
    26   13   37 1 
    27   13   38 1 
    28   14   15 ar
    29   14   28 ar
    30   15   16 ar
    31   15   39 1 
    32   16   17 1 
    33   16   26 ar
    34   17   31 2 
    35   18   19 1 
    36   18   40 1 
    37   18   41 1 
    38   19   42 1 
    39   19   43 1 
    40   20   21 1 
    41   20   44 1 
    42   20   45 1 
    43   21   46 1 
    44   21   47 1 
    45   22   23 1 
    46   22   30 2 
    47   23   24 1 
    48   23   25 1 
    49   23   48 1 
    50   24   25 1 
    51   24   49 1 
    52   24   50 1 
    53   25   51 1 
    54   25   52 1 
    55   26   27 ar
    56   26   32 1 
    57   27   28 ar
    58   27   53 1 
    59   28   54 1 
@<TRIPOS>SUBSTRUCTURE
1 MOL         1
@<TRIPOS>MOLECULE
query molecule
   55    59     1     0     0
SMALL
NO_CHARGE

@<TRIPOS>ATOM
      1 N         -19.0316  -31.4385   -5.5574 N.am      1 MOL    -0.2945
      2 N         -19.6497  -33.9367   -5.2033 N.am      1 MOL    -0.2983
      3 N         -14.7210  -30.3137    0.4270 N.ar      1 MOL    -0.1750
      4 N         -14.9583  -30.7711    1.6324 N.ar      1 MOL    -0.2425
      5 C         -15.5571  -31.9471    1.8678 C.ar      1 MOL     0.2725
      6 C         -15.9463  -32.7203    0.7934 C.ar      1 MOL     0.0496
      7 C         -16.5914  -33.9432    0.9817 C.ar      1 MOL     0.0138
      8 C         -16.9905  -34.6887   -0.1067 C.ar      1 MOL     0.0008
      9 C         -16.7225  -34.1666   -1.3544 C.ar      1 MOL     0.0007
     10 C         -16.0836  -32.9546   -1.5560 C.ar      1 MOL     0.0103
     11 C         -15.6905  -32.2259   -0.4723 C.ar      1 MOL     0.0106
     12 C         -15.0760  -31.0217   -0.6892 C.ar      1 MOL     0.0736
     13 C         -14.6964  -30.4328   -1.9667 C.3       1 MOL     0.0925
     14 C         -15.8712  -29.7880   -2.6158 C.ar      1 MOL    -0.0406
     15 C         -16.3452  -30.4229   -3.7777 C.ar      1 MOL     0.0196
     16 C         -17.4197  -29.8968   -4.4540 C.ar      1 MOL     0.0723
     17 C         -17.9398  -30.5400   -5.6818 C.2       1 MOL     0.2495
     18 C         -19.5636  -32.0743   -6.7192 C.3       1 MOL     0.1268
     19 C         -20.2265  -33.3990   -6.4080 C.3       1 MOL     0.1265
     20 C         -19.8261  -33.1547   -3.9748 C.3       1 MOL     0.1265
     21 C         -19.5857  -31.6908   -4.2402 C.3       1 MOL     0.1268
     22 C         -18.9485  -35.1459   -5.1815 C.2       1 MOL     0.2187
     23 C         -18.6776  -36.0281   -6.3196 C.3       1 MOL     0.0752
     24 C         -19.3722  -37.3710   -6.3025 C.3       1 MOL     0.0134
     25 C         -17.9182  -37.2939   -6.1439 C.3       1 MOL     0.0134
     26 C         -18.0784  -28.7582   -4.0545 C.ar      1 MOL     0.1355
     27 C         -17.6135  -28.1376   -2.9171 C.ar      1 MOL     0.0392
     28 C         -16.5168  -28.6711   -2.2251 C.ar      1 MOL     0.0066
     29 O         -15.7920  -32.4031    3.0161 O.2       1 MOL    -0.2658
     30 O         -18.4836  -35.5431   -4.0540 O.2       1 MOL    -0.2753
     31 O         -17.4495  -30.3158   -6.8123 O.2       1 MOL    -0.2699
     32 F         -19.1411  -28.2747   -4.7614 F         1 MOL    -0.2047
     33 H         -16.7695  -34.2904    1.9370 H         1 MOL     0.0625
     34 H         -17.4683  -35.5953    0.0072 H         1 MOL     0.0618
     35 H         -17.0141  -34.7082   -2.1826 H         1 MOL     0.0618
     36 H         -15.9069  -32.6074   -2.5118 H         1 MOL     0.0624
     37 H         -14.3160  -31.1995   -2.6089 H         1 MOL     0.0377
     38 H         -13.9472  -29.6882   -1.7946 H         1 MOL     0.0377
     39 H         -15.8874  -31.2812   -4.1216 H         1 MOL     0.0629
     40 H         -18.7659  -32.2445   -7.4121 H         1 MOL     0.0480
     41 H         -20.3114  -31.4265   -7.1283 H         1 MOL     0.0480
     42 H         -20.0675  -34.0793   -7.2180 H         1 MOL     0.0480
     43 H         -21.2786  -33.2553   -6.2742 H         1 MOL     0.0480
     44 H         -19.1315  -33.4965   -3.2363 H         1 MOL     0.0480
     45 H         -20.8293  -33.2812   -3.6247 H         1 MOL     0.0480
     46 H         -18.9018  -31.3183   -3.5063 H         1 MOL     0.0480
     47 H         -20.5323  -31.1961   -4.1907 H         1 MOL     0.0480
     48 H         -18.5798  -35.1957   -6.9842 H         1 MOL     0.0394
     49 H         -19.7922  -37.7678   -7.2033 H         1 MOL     0.0273
     50 H         -20.1743  -37.8014   -5.7400 H         1 MOL     0.0273
     51 H         -17.2798  -37.6435   -6.9283 H         1 MOL     0.0273
     52 H         -17.2272  -37.6550   -5.4123 H         1 MOL     0.0273
     53 H         -18.0731  -27.2791   -2.5736 H         1 MOL     0.0646
     54 H         -16.1881  -28.1859   -1.3754 H         1 MOL     0.0621
     55 H         -14.6823  -30.2237    2.4032 H         1 MOL     0.1921
@<TRIPOS>BOND
     1    1   18 1 
     2    1   21 1 
     3    1   17 am
     4    2   20 1 
     5    2   22 am
     6    2   19 1 
     7    3    4 ar
     8    3   12 ar
     9    4   55 1 
    10    4    5 ar
    11    5    6 ar
    12    5   29 2 
    13    6    7 ar
    14    6   11 ar
    15    7    8 ar
    16    7   33 1 
    17    8    9 ar
    18    8   34 1 
    19    9   10 ar
    20    9   35 1 
    21   10   11 ar
    22   10   36 1 
    23   11   12 ar
    24   12   13 1 
    25   13   14 1 
    26   13   37 1 
    27   13   38 1 
    28   14   15 ar
    29   14   28 ar
    30   15   16 ar
    31   15   39 1 
    32   16   17 1 
    33   16   26 ar
    34   17   31 2 
    35   18   19 1 
    36   18   40 1 
    37   18   41 1 
    38   19   42 1 
    39   19   43 1 
    40   20   21 1 
    41   20   44 1 
    42   20   45 1 
    43   21   46 1 
    44   21   47 1 
    45   22   23 1 
    46   22   30 2 
    47   23   24 1 
    48   23   25 1 
    49   23   48 1 
    50   24   25 1 
    51   24   49 1 
    52   24   50 1 
    53   25   51 1 
    54   25   52 1 
    55   26   27 ar
    56   26   32 1 
    57   27   28 ar
    58   27   53 1 
    59   28   54 1 
@<TRIPOS>SUBSTRUCTURE
1 MOL         1
@<TRIPOS>MOLECULE
query molecule
   55    59     1     0     0
SMALL
NO_CHARGE

@<TRIPOS>ATOM
      1 N         -22.5506  -26.9746   -2.0489 N.am      1 MOL    -0.2945
      2 N         -24.7464  -25.9939   -1.0663 N.am      1 MOL    -0.2983
      3 N         -18.9133  -20.6532   -4.0171 N.ar      1 MOL    -0.1750
      4 N         -19.3578  -19.6365   -4.7152 N.ar      1 MOL    -0.2425
      5 C         -20.6460  -19.2664   -4.7363 C.ar      1 MOL     0.2725
      6 C         -21.5556  -19.9862   -3.9892 C.ar      1 MOL     0.0496
      7 C         -22.9114  -19.6563   -3.9911 C.ar      1 MOL     0.0138
      8 C         -23.8052  -20.4027   -3.2539 C.ar      1 MOL     0.0008
      9 C         -23.2928  -21.4639   -2.5380 C.ar      1 MOL     0.0007
     10 C         -21.9501  -21.8029   -2.5273 C.ar      1 MOL     0.0103
     11 C         -21.0736  -21.0562   -3.2580 C.ar      1 MOL     0.0106
     12 C         -19.7525  -21.4156   -3.2504 C.ar      1 MOL     0.0736
     13 C         -19.1218  -22.4739   -2.4725 C.3       1 MOL     0.0925
     14 C         -19.3876  -23.8044   -3.0861 C.ar      1 MOL    -0.0406
     15 C         -20.1029  -24.7100   -2.2823 C.ar      1 MOL     0.0196
     16 C         -20.3881  -25.9677   -2.7573 C.ar      1 MOL     0.0723
     17 C         -21.1361  -26.9444   -1.9341 C.2       1 MOL     0.2495
     18 C         -23.3060  -27.9059   -1.2748 C.3       1 MOL     0.1268
     19 C         -24.7183  -27.4322   -1.0066 C.3       1 MOL     0.1265
     20 C         -24.4027  -25.3747   -2.3510 C.3       1 MOL     0.1265
     21 C         -23.2003  -26.0497   -2.9590 C.3       1 MOL     0.1268
     22 C         -25.0815  -25.2031    0.0367 C.2       1 MOL     0.2187
     23 C         -25.4319  -25.6688    1.3811 C.3       1 MOL     0.0752
     24 C         -24.3122  -26.2915    2.1840 C.3       1 MOL     0.0134
     25 C         -25.4275  -27.1172    1.7155 C.3       1 MOL     0.0134
     26 C         -20.0082  -26.4074   -4.0032 C.ar      1 MOL     0.1355
     27 C         -19.3080  -25.5202   -4.7891 C.ar      1 MOL     0.0392
     28 C         -19.0145  -24.2365   -4.3071 C.ar      1 MOL     0.0066
     29 O         -21.0911  -18.2939   -5.3982 O.2       1 MOL    -0.2658
     30 O         -25.0880  -23.9306   -0.1243 O.2       1 MOL    -0.2753
     31 O         -20.5627  -27.7348   -1.1497 O.2       1 MOL    -0.2699
     32 F         -20.3151  -27.6672   -4.4291 F         1 MOL    -0.2047
     33 H         -23.2455  -18.8518   -4.5445 H         1 MOL     0.0625
     34 H         -24.8115  -20.1781   -3.2391 H         1 MOL     0.0618
     35 H         -23.9450  -22.0364   -1.9804 H         1 MOL     0.0618
     36 H         -21.6168  -22.6083   -1.9744 H         1 MOL     0.0624
     37 H         -19.5137  -22.4607   -1.4769 H         1 MOL     0.0377
     38 H         -18.0647  -22.3078   -2.4566 H         1 MOL     0.0377
     39 H         -20.4124  -24.4310   -1.3384 H         1 MOL     0.0629
     40 H         -22.8102  -28.0541   -0.3379 H         1 MOL     0.0480
     41 H         -23.3708  -28.8151   -1.8362 H         1 MOL     0.0480
     42 H         -25.0283  -27.7582   -0.0361 H         1 MOL     0.0480
     43 H         -25.3827  -27.8392   -1.7404 H         1 MOL     0.0480
     44 H         -24.1833  -24.3391   -2.1959 H         1 MOL     0.0480
     45 H         -25.2318  -25.4803   -3.0192 H         1 MOL     0.0480
     46 H         -22.4932  -25.2980   -3.2422 H         1 MOL     0.0480
     47 H         -23.5407  -26.6144   -3.8007 H         1 MOL     0.0480
     48 H         -26.1517  -24.8866    1.5005 H         1 MOL     0.0394
     49 H         -24.2122  -26.0680    3.2258 H         1 MOL     0.0273
     50 H         -23.2470  -26.3335    2.0917 H         1 MOL     0.0273
     51 H         -26.1353  -27.5018    2.4199 H         1 MOL     0.0273
     52 H         -25.5007  -28.0165    1.1418 H         1 MOL     0.0273
     53 H         -18.9994  -25.8004   -5.7338 H         1 MOL     0.0646
     54 H         -18.4879  -23.5908   -4.9166 H         1 MOL     0.0621
     55 H         -18.7131  -19.1187   -5.2501 H         1 MOL     0.1921
@<TRIPOS>BOND
     1    1   18 1 
     2    1   21 1 
     3    1   17 am
     4    2   20 1 
     5    2   22 am
     6    2   19 1 
     7    3    4 ar
     8    3   12 ar
     9    4   55 1 
    10    4    5 ar
    11    5    6 ar
    12    5   29 2 
    13    6    7 ar
    14    6   11 ar
    15    7    8 ar
    16    7   33 1 
    17    8    9 ar
    18    8   34 1 
    19    9   10 ar
    20    9   35 1 
    21   10   11 ar
    22   10   36 1 
    23   11   12 ar
    24   12   13 1 
    25   13   14 1 
    26   13   37 1 
    27   13   38 1 
    28   14   15 ar
    29   14   28 ar
    30   15   16 ar
    31   15   39 1 
    32   16   17 1 
    33   16   26 ar
    34   17   31 2 
    35   18   19 1 
    36   18   40 1 
    37   18   41 1 
    38   19   42 1 
    39   19   43 1 
    40   20   21 1 
    41   20   44 1 
    42   20   45 1 
    43   21   46 1 
    44   21   47 1 
    45   22   23 1 
    46   22   30 2 
    47   23   24 1 
    48   23   25 1 
    49   23   48 1 
    50   24   25 1 
    51   24   49 1 
    52   24   50 1 
    53   25   51 1 
    54   25   52 1 
    55   26   27 ar
    56   26   32 1 
    57   27   28 ar
    58   27   53 1 
    59   28   54 1 
@<TRIPOS>SUBSTRUCTURE
1 MOL         1
@<TRIPOS>MOLECULE
query molecule
   55    59     1     0     0
SMALL
NO_CHARGE

@<TRIPOS>ATOM
      1 N         -20.7856  -20.3898   10.3278 N.am      1 MOL    -0.2945
      2 N         -18.6835  -21.6538    9.4723 N.am      1 MOL    -0.2983
      3 N         -22.2083  -24.8474   12.0255 N.ar      1 MOL    -0.1750
      4 N         -21.9347  -25.8116   11.1804 N.ar      1 MOL    -0.2425
      5 C         -21.7657  -27.0885   11.5517 C.ar      1 MOL     0.2725
      6 C         -21.8835  -27.4122   12.8877 C.ar      1 MOL     0.0496
      7 C         -21.6975  -28.7222   13.3309 C.ar      1 MOL     0.0138
      8 C         -21.7990  -29.0186   14.6731 C.ar      1 MOL     0.0008
      9 C         -22.0852  -27.9724   15.5245 C.ar      1 MOL     0.0007
     10 C         -22.2718  -26.6679   15.0987 C.ar      1 MOL     0.0103
     11 C         -22.1718  -26.3858   13.7682 C.ar      1 MOL     0.0106
     12 C         -22.3417  -25.0881   13.3662 C.ar      1 MOL     0.0736
     13 C         -22.7115  -23.9425   14.1871 C.3       1 MOL     0.0925
     14 C         -23.1842  -22.8175   13.3337 C.ar      1 MOL    -0.0406
     15 C         -22.1774  -21.9739   12.8314 C.ar      1 MOL     0.0196
     16 C         -22.5157  -20.9011   12.0418 C.ar      1 MOL     0.0723
     17 C         -21.4793  -19.9929   11.5009 C.2       1 MOL     0.2495
     18 C         -19.7829  -19.5386    9.7737 C.3       1 MOL     0.1268
     19 C         -18.7416  -20.3009    8.9829 C.3       1 MOL     0.1265
     20 C         -19.8982  -22.4644    9.3327 C.3       1 MOL     0.1265
     21 C         -21.1160  -21.6628    9.7145 C.3       1 MOL     0.1268
     22 C         -17.5338  -22.1916   10.0582 C.2       1 MOL     0.2187
     23 C         -16.2562  -21.5093   10.2800 C.3       1 MOL     0.0752
     24 C         -15.0159  -22.2601    9.8510 C.3       1 MOL     0.0134
     25 C         -15.2758  -22.0223   11.2726 C.3       1 MOL     0.0134
     26 C         -23.8119  -20.5933   11.7025 C.ar      1 MOL     0.1355
     27 C         -24.7965  -21.4198   12.1948 C.ar      1 MOL     0.0392
     28 C         -24.4550  -22.5146   13.0016 C.ar      1 MOL     0.0066
     29 O         -21.5043  -28.0269   10.7562 O.2       1 MOL    -0.2658
     30 O         -17.5821  -23.4115   10.4515 O.2       1 MOL    -0.2753
     31 O         -21.2017  -18.8983   12.0426 O.2       1 MOL    -0.2699
     32 F         -24.0967  -19.5154   10.9152 F         1 MOL    -0.2047
     33 H         -21.4844  -29.4705   12.6530 H         1 MOL     0.0625
     34 H         -21.6662  -29.9789   15.0244 H         1 MOL     0.0618
     35 H         -22.1642  -28.1724   16.5335 H         1 MOL     0.0618
     36 H         -22.4838  -25.9199   15.7776 H         1 MOL     0.0624
     37 H         -21.8596  -23.6232   14.7505 H         1 MOL     0.0377
     38 H         -23.5042  -24.2311   14.8456 H         1 MOL     0.0377
     39 H         -21.1875  -22.1596   13.0553 H         1 MOL     0.0629
     40 H         -19.2948  -19.0196   10.5724 H         1 MOL     0.0480
     41 H         -20.2688  -18.8622    9.1011 H         1 MOL     0.0480
     42 H         -17.7867  -19.8338    9.1023 H         1 MOL     0.0480
     43 H         -19.0029  -20.3010    7.9450 H         1 MOL     0.0480
     44 H         -19.8265  -23.3200    9.9710 H         1 MOL     0.0480
     45 H         -19.9941  -22.7719    8.3123 H         1 MOL     0.0480
     46 H         -21.6973  -22.2339   10.4081 H         1 MOL     0.0480
     47 H         -21.6577  -21.4548    8.8165 H         1 MOL     0.0480
     48 H         -16.7003  -20.5511   10.1096 H         1 MOL     0.0394
     49 H         -14.2200  -21.7416    9.3582 H         1 MOL     0.0273
     50 H         -14.8241  -23.1242    9.2497 H         1 MOL     0.0273
     51 H         -14.6616  -21.3354   11.8165 H         1 MOL     0.0273
     52 H         -15.3450  -22.6519   12.1341 H         1 MOL     0.0273
     53 H         -25.7868  -21.2331   11.9694 H         1 MOL     0.0646
     54 H         -25.2127  -23.1183   13.3580 H         1 MOL     0.0621
     55 H         -21.8498  -25.5865   10.2255 H         1 MOL     0.1921
@<TRIPOS>BOND
     1    1   18 1 
     2    1   21 1 
     3    1   17 am
     4    2   20 1 
     5    2   22 am
     6    2   19 1 
     7    3    4 ar
     8    3   12 ar
     9    4   55 1 
    10    4    5 ar
    11    5    6 ar
    12    5   29 2 
    13    6    7 ar
    14    6   11 ar
    15    7    8 ar
    16    7   33 1 
    17    8    9 ar
    18    8   34 1 
    19    9   10 ar
    20    9   35 1 
    21   10   11 ar
    22   10   36 1 
    23   11   12 ar
    24   12   13 1 
    25   13   14 1 
    26   13   37 1 
    27   13   38 1 
    28   14   15 ar
    29   14   28 ar
    30   15   16 ar
    31   15   39 1 
    32   16   17 1 
    33   16   26 ar
    34   17   31 2 
    35   18   19 1 
    36   18   40 1 
    37   18   41 1 
    38   19   42 1 
    39   19   43 1 
    40   20   21 1 
    41   20   44 1 
    42   20   45 1 
    43   21   46 1 
    44   21   47 1 
    45   22   23 1 
    46   22   30 2 
    47   23   24 1 
    48   23   25 1 
    49   23   48 1 
    50   24   25 1 
    51   24   49 1 
    52   24   50 1 
    53   25   51 1 
    54   25   52 1 
    55   26   27 ar
    56   26   32 1 
    57   27   28 ar
    58   27   53 1 
    59   28   54 1 
@<TRIPOS>SUBSTRUCTURE
1 MOL         1
@<TRIPOS>MOLECULE
query molecule
   55    59     1     0     0
SMALL
NO_CHARGE

@<TRIPOS>ATOM
      1 N         -10.6653  -43.4718  -10.3872 N.am      1 MOL    -0.2945
      2 N          -8.0826  -43.7237  -10.2671 N.am      1 MOL    -0.2983
      3 N         -15.7882  -40.7113  -14.9436 N.ar      1 MOL    -0.1750
      4 N         -16.7261  -40.9746  -15.8208 N.ar      1 MOL    -0.2425
      5 C         -17.9928  -41.2527  -15.4816 C.ar      1 MOL     0.2725
      6 C         -18.3344  -41.2646  -14.1448 C.ar      1 MOL     0.0496
      7 C         -19.6336  -41.5674  -13.7357 C.ar      1 MOL     0.0138
      8 C         -19.9469  -41.5943  -12.3938 C.ar      1 MOL     0.0008
      9 C         -18.9281  -41.3138  -11.5081 C.ar      1 MOL     0.0007
     10 C         -17.6345  -41.0121  -11.8999 C.ar      1 MOL     0.0103
     11 C         -17.3356  -40.9856  -13.2303 C.ar      1 MOL     0.0106
     12 C         -16.0480  -40.7029  -13.5998 C.ar      1 MOL     0.0736
     13 C         -14.9349  -40.3305  -12.7365 C.3       1 MOL     0.0925
     14 C         -13.7366  -41.1609  -13.0393 C.ar      1 MOL    -0.0406
     15 C         -13.3473  -42.0547  -12.0258 C.ar      1 MOL     0.0196
     16 C         -12.2464  -42.8570  -12.2078 C.ar      1 MOL     0.0723
     17 C         -11.8095  -43.8053  -11.1585 C.2       1 MOL     0.2495
     18 C         -10.2165  -44.3588   -9.3631 C.3       1 MOL     0.1268
     19 C          -8.7340  -44.2287   -9.0865 C.3       1 MOL     0.1265
     20 C          -8.4767  -42.3865  -10.7238 C.3       1 MOL     0.1265
     21 C          -9.9738  -42.2258  -10.6609 C.3       1 MOL     0.1268
     22 C          -7.1169  -44.4564  -10.9633 C.2       1 MOL     0.2187
     23 C          -6.6304  -45.8009  -10.6430 C.3       1 MOL     0.0752
     24 C          -5.3899  -46.2543  -11.3791 C.3       1 MOL     0.0134
     25 C          -6.6796  -46.8936  -11.6497 C.3       1 MOL     0.0134
     26 C         -11.4816  -42.8404  -13.3501 C.ar      1 MOL     0.1355
     27 C         -11.8636  -41.9651  -14.3415 C.ar      1 MOL     0.0392
     28 C         -12.9858  -41.1443  -14.1587 C.ar      1 MOL     0.0066
     29 O         -18.9062  -41.5064  -16.3081 O.2       1 MOL    -0.2658
     30 O          -6.5881  -43.9114  -11.9971 O.2       1 MOL    -0.2753
     31 O         -12.4138  -44.8794  -10.9352 O.2       1 MOL    -0.2699
     32 F         -10.3961  -43.6569  -13.4827 F         1 MOL    -0.2047
     33 H         -20.3613  -41.7708  -14.4387 H         1 MOL     0.0625
     34 H         -20.8998  -41.8149  -12.0673 H         1 MOL     0.0618
     35 H         -19.1410  -41.3299  -10.4989 H         1 MOL     0.0618
     36 H         -16.9070  -40.8099  -11.1962 H         1 MOL     0.0624
     37 H         -15.2167  -40.4783  -11.7148 H         1 MOL     0.0377
     38 H         -14.6931  -39.3023  -12.9089 H         1 MOL     0.0377
     39 H         -13.8865  -42.1078  -11.1477 H         1 MOL     0.0629
     40 H         -10.4217  -45.3643   -9.6668 H         1 MOL     0.0480
     41 H         -10.7371  -44.1033   -8.4632 H         1 MOL     0.0480
     42 H          -8.3301  -45.1867   -8.8346 H         1 MOL     0.0480
     43 H          -8.5754  -43.5569   -8.2686 H         1 MOL     0.0480
     44 H          -8.1506  -42.2483  -11.7333 H         1 MOL     0.0480
     45 H          -8.0246  -41.6556  -10.0864 H         1 MOL     0.0480
     46 H         -10.3165  -41.8459  -11.6008 H         1 MOL     0.0480
     47 H         -10.1911  -41.5555   -9.8568 H         1 MOL     0.0480
     48 H          -6.9633  -45.7161   -9.6299 H         1 MOL     0.0394
     49 H          -4.6248  -46.7915  -10.8583 H         1 MOL     0.0273
     50 H          -4.6438  -45.7708  -11.9745 H         1 MOL     0.0273
     51 H          -6.8492  -47.9012  -11.3320 H         1 MOL     0.0273
     52 H          -7.2545  -47.0692  -12.5339 H         1 MOL     0.0273
     53 H         -11.3235  -41.9134  -15.2200 H         1 MOL     0.0646
     54 H         -13.2504  -40.4967  -14.9177 H         1 MOL     0.0621
     55 H         -16.4883  -40.9672  -16.7764 H         1 MOL     0.1921
@<TRIPOS>BOND
     1    1   18 1 
     2    1   21 1 
     3    1   17 am
     4    2   20 1 
     5    2   22 am
     6    2   19 1 
     7    3    4 ar
     8    3   12 ar
     9    4   55 1 
    10    4    5 ar
    11    5    6 ar
    12    5   29 2 
    13    6    7 ar
    14    6   11 ar
    15    7    8 ar
    16    7   33 1 
    17    8    9 ar
    18    8   34 1 
    19    9   10 ar
    20    9   35 1 
    21   10   11 ar
    22   10   36 1 
    23   11   12 ar
    24   12   13 1 
    25   13   14 1 
    26   13   37 1 
    27   13   38 1 
    28   14   15 ar
    29   14   28 ar
    30   15   16 ar
    31   15   39 1 
    32   16   17 1 
    33   16   26 ar
    34   17   31 2 
    35   18   19 1 
    36   18   40 1 
    37   18   41 1 
    38   19   42 1 
    39   19   43 1 
    40   20   21 1 
    41   20   44 1 
    42   20   45 1 
    43   21   46 1 
    44   21   47 1 
    45   22   23 1 
    46   22   30 2 
    47   23   24 1 
    48   23   25 1 
    49   23   48 1 
    50   24   25 1 
    51   24   49 1 
    52   24   50 1 
    53   25   51 1 
    54   25   52 1 
    55   26   27 ar
    56   26   32 1 
    57   27   28 ar
    58   27   53 1 
    59   28   54 1 
@<TRIPOS>SUBSTRUCTURE
1 MOL         1
@<TRIPOS>MOLECULE
query molecule
   55    59     1     0     0
SMALL
NO_CHARGE

@<TRIPOS>ATOM
      1 N         -68.7658  -47.9487   -8.9318 N.am      1 MOL    -0.2945
      2 N         -66.4064  -46.8889   -8.6906 N.am      1 MOL    -0.2983
      3 N         -73.1727  -46.3060   -6.2855 N.ar      1 MOL    -0.1750
      4 N         -72.7915  -46.9400   -5.2033 N.ar      1 MOL    -0.2425
      5 C         -72.9094  -48.2662   -5.0483 C.ar      1 MOL     0.2725
      6 C         -73.4586  -49.0079   -6.0739 C.ar      1 MOL     0.0496
      7 C         -73.6228  -50.3887   -5.9569 C.ar      1 MOL     0.0138
      8 C         -74.1936  -51.1063   -6.9859 C.ar      1 MOL     0.0008
      9 C         -74.5816  -50.3970   -8.1028 C.ar      1 MOL     0.0007
     10 C         -74.4251  -49.0271   -8.2323 C.ar      1 MOL     0.0103
     11 C         -73.8569  -48.3268   -7.2094 C.ar      1 MOL     0.0106
     12 C         -73.7255  -46.9709   -7.3464 C.ar      1 MOL     0.0736
     13 C         -74.0449  -46.1585   -8.5131 C.3       1 MOL     0.0925
     14 C         -72.9232  -46.1844   -9.4921 C.ar      1 MOL    -0.0406
     15 C         -71.9319  -47.1525   -9.2520 C.ar      1 MOL     0.0196
     16 C         -70.8509  -47.2475  -10.0952 C.ar      1 MOL     0.0723
     17 C         -69.7893  -48.2537   -9.8670 C.2       1 MOL     0.2495
     18 C         -67.7279  -48.8957   -8.6814 C.3       1 MOL     0.1268
     19 C         -66.4455  -48.2452   -8.2089 C.3       1 MOL     0.1265
     20 C         -67.4588  -45.9839   -8.2159 C.3       1 MOL     0.1265
     21 C         -68.8003  -46.6700   -8.2466 C.3       1 MOL     0.1268
     22 C         -65.4212  -46.4330   -9.5714 C.2       1 MOL     0.2187
     23 C         -64.3200  -47.2133  -10.1421 C.3       1 MOL     0.0752
     24 C         -64.6301  -48.6530  -10.4843 C.3       1 MOL     0.0134
     25 C         -63.7089  -48.3401   -9.3895 C.3       1 MOL     0.0134
     26 C         -70.6736  -46.4336  -11.1889 C.ar      1 MOL     0.1355
     27 C         -71.6446  -45.4863  -11.4230 C.ar      1 MOL     0.0392
     28 C         -72.7484  -45.3860  -10.5641 C.ar      1 MOL     0.0066
     29 O         -72.5485  -48.8922   -4.0188 O.2       1 MOL    -0.2658
     30 O         -65.4690  -45.2029   -9.9316 O.2       1 MOL    -0.2753
     31 O         -69.7698  -49.3523  -10.4682 O.2       1 MOL    -0.2699
     32 F         -69.5814  -46.5672  -11.9963 F         1 MOL    -0.2047
     33 H         -73.3160  -50.8735   -5.0991 H         1 MOL     0.0625
     34 H         -74.3249  -52.1271   -6.9229 H         1 MOL     0.0618
     35 H         -75.0123  -50.9149   -8.8842 H         1 MOL     0.0618
     36 H         -74.7332  -48.5427   -9.0901 H         1 MOL     0.0624
     37 H         -74.2182  -45.1492   -8.2028 H         1 MOL     0.0377
     38 H         -74.9201  -46.5572   -8.9824 H         1 MOL     0.0377
     39 H         -72.0158  -47.7895   -8.4447 H         1 MOL     0.0629
     40 H         -67.5275  -49.4314   -9.5861 H         1 MOL     0.0480
     41 H         -68.0661  -49.5475   -7.9024 H         1 MOL     0.0480
     42 H         -65.6059  -48.7870   -8.5908 H         1 MOL     0.0480
     43 H         -66.4082  -48.2520   -7.1393 H         1 MOL     0.0480
     44 H         -67.4917  -45.1199   -8.8461 H         1 MOL     0.0480
     45 H         -67.2411  -45.6977   -7.2081 H         1 MOL     0.0480
     46 H         -69.4983  -46.0334   -8.7492 H         1 MOL     0.0480
     47 H         -69.0883  -46.8569   -7.2340 H         1 MOL     0.0480
     48 H         -63.9197  -46.3513  -10.6331 H         1 MOL     0.0394
     49 H         -64.2574  -49.0796  -11.3922 H         1 MOL     0.0273
     50 H         -65.5244  -49.2327  -10.5801 H         1 MOL     0.0273
     51 H         -62.6649  -48.5477   -9.4990 H         1 MOL     0.0273
     52 H         -63.6600  -48.6084   -8.3556 H         1 MOL     0.0273
     53 H         -71.5597  -44.8498  -12.2316 H         1 MOL     0.0646
     54 H         -73.4619  -44.6668  -10.7621 H         1 MOL     0.0621
     55 H         -72.3984  -46.4159   -4.4680 H         1 MOL     0.1921
@<TRIPOS>BOND
     1    1   18 1 
     2    1   21 1 
     3    1   17 am
     4    2   20 1 
     5    2   22 am
     6    2   19 1 
     7    3    4 ar
     8    3   12 ar
     9    4   55 1 
    10    4    5 ar
    11    5    6 ar
    12    5   29 2 
    13    6    7 ar
    14    6   11 ar
    15    7    8 ar
    16    7   33 1 
    17    8    9 ar
    18    8   34 1 
    19    9   10 ar
    20    9   35 1 
    21   10   11 ar
    22   10   36 1 
    23   11   12 ar
    24   12   13 1 
    25   13   14 1 
    26   13   37 1 
    27   13   38 1 
    28   14   15 ar
    29   14   28 ar
    30   15   16 ar
    31   15   39 1 
    32   16   17 1 
    33   16   26 ar
    34   17   31 2 
    35   18   19 1 
    36   18   40 1 
    37   18   41 1 
    38   19   42 1 
    39   19   43 1 
    40   20   21 1 
    41   20   44 1 
    42   20   45 1 
    43   21   46 1 
    44   21   47 1 
    45   22   23 1 
    46   22   30 2 
    47   23   24 1 
    48   23   25 1 
    49   23   48 1 
    50   24   25 1 
    51   24   49 1 
    52   24   50 1 
    53   25   51 1 
    54   25   52 1 
    55   26   27 ar
    56   26   32 1 
    57   27   28 ar
    58   27   53 1 
    59   28   54 1 
@<TRIPOS>SUBSTRUCTURE
1 MOL         1
@<TRIPOS>MOLECULE
query molecule
   55    59     1     0     0
SMALL
NO_CHARGE

@<TRIPOS>ATOM
      1 N         -45.4064  -74.5979   12.1400 N.am      1 MOL    -0.2945
      2 N         -46.9114  -73.0718   10.6721 N.am      1 MOL    -0.2983
      3 N         -40.7627  -74.0782   18.2841 N.ar      1 MOL    -0.1750
      4 N         -40.4028  -74.6577   19.4036 N.ar      1 MOL    -0.2425
      5 C         -40.1869  -75.9762   19.5125 C.ar      1 MOL     0.2725
      6 C         -40.3497  -76.7697   18.3956 C.ar      1 MOL     0.0496
      7 C         -40.1573  -78.1504   18.4582 C.ar      1 MOL     0.0138
      8 C         -40.3465  -78.9260   17.3347 C.ar      1 MOL     0.0008
      9 C         -40.7274  -78.2736   16.1813 C.ar      1 MOL     0.0007
     10 C         -40.9223  -76.9046   16.1049 C.ar      1 MOL     0.0103
     11 C         -40.7299  -76.1459   17.2216 C.ar      1 MOL     0.0106
     12 C         -40.9439  -74.7964   17.1333 C.ar      1 MOL     0.0736
     13 C         -41.2790  -74.0237   15.9443 C.3       1 MOL     0.0925
     14 C         -42.7554  -73.8870   15.8075 C.ar      1 MOL    -0.0406
     15 C         -43.3322  -74.5917   14.7359 C.ar      1 MOL     0.0196
     16 C         -44.6877  -74.5195   14.5211 C.ar      1 MOL     0.0723
     17 C         -45.3239  -75.2469   13.3997 C.2       1 MOL     0.2495
     18 C         -46.0086  -75.2691   11.0337 C.3       1 MOL     0.1268
     19 C         -46.5882  -74.3115   10.0149 C.3       1 MOL     0.1265
     20 C         -45.7982  -72.3248   11.2677 C.3       1 MOL     0.1265
     21 C         -44.8712  -73.2558   12.0061 C.3       1 MOL     0.1268
     22 C         -48.2187  -72.5832   10.7525 C.2       1 MOL     0.2187
     23 C         -49.4300  -73.2159   10.2238 C.3       1 MOL     0.0752
     24 C         -50.5663  -73.4036   11.2035 C.3       1 MOL     0.0134
     25 C         -49.8491  -74.5677   10.6783 C.3       1 MOL     0.0134
     26 C         -45.5382  -73.7820   15.3102 C.ar      1 MOL     0.1355
     27 C         -44.9725  -73.0926   16.3589 C.ar      1 MOL     0.0392
     28 C         -43.5896  -73.1632   16.5803 C.ar      1 MOL     0.0066
     29 O         -39.8401  -76.5499   20.5766 O.2       1 MOL    -0.2658
     30 O         -48.3988  -71.4626   11.3501 O.2       1 MOL    -0.2753
     31 O         -45.7851  -76.4041   13.5302 O.2       1 MOL    -0.2699
     32 F         -46.8783  -73.7418   15.0551 F         1 MOL    -0.2047
     33 H         -39.8724  -78.5914   19.3466 H         1 MOL     0.0625
     34 H         -40.2100  -79.9479   17.3562 H         1 MOL     0.0618
     35 H         -40.8756  -78.8358   15.3292 H         1 MOL     0.0618
     36 H         -41.2084  -76.4643   15.2163 H         1 MOL     0.0624
     37 H         -40.8898  -74.5204   15.0801 H         1 MOL     0.0377
     38 H         -40.8502  -73.0473   16.0348 H         1 MOL     0.0377
     39 H         -42.7393  -75.1611   14.1123 H         1 MOL     0.0629
     40 H         -46.7943  -75.8966   11.4003 H         1 MOL     0.0480
     41 H         -45.2439  -75.8373   10.5452 H         1 MOL     0.0480
     42 H         -47.4734  -74.7337    9.5878 H         1 MOL     0.0480
     43 H         -45.8751  -74.1348    9.2366 H         1 MOL     0.0480
     44 H         -46.1861  -71.5997   11.9520 H         1 MOL     0.0480
     45 H         -45.2497  -71.8398   10.4874 H         1 MOL     0.0480
     46 H         -44.6975  -72.8596   12.9849 H         1 MOL     0.0480
     47 H         -43.9680  -73.3262   11.4383 H         1 MOL     0.0480
     48 H         -49.2796  -72.7755    9.2606 H         1 MOL     0.0394
     49 H         -51.5738  -73.2127   10.8975 H         1 MOL     0.0273
     50 H         -50.7931  -73.0304   12.1803 H         1 MOL     0.0273
     51 H         -50.3399  -75.2293    9.9953 H         1 MOL     0.0273
     52 H         -49.3420  -75.3959   11.1256 H         1 MOL     0.0273
     53 H         -45.5671  -72.5236   16.9825 H         1 MOL     0.0646
     54 H         -43.1910  -72.6363   17.3734 H         1 MOL     0.0621
     55 H         -40.2847  -74.0963   20.2041 H         1 MOL     0.1921
@<TRIPOS>BOND
     1    1   18 1 
     2    1   21 1 
     3    1   17 am
     4    2   20 1 
     5    2   22 am
     6    2   19 1 
     7    3    4 ar
     8    3   12 ar
     9    4   55 1 
    10    4    5 ar
    11    5    6 ar
    12    5   29 2 
    13    6    7 ar
    14    6   11 ar
    15    7    8 ar
    16    7   33 1 
    17    8    9 ar
    18    8   34 1 
    19    9   10 ar
    20    9   35 1 
    21   10   11 ar
    22   10   36 1 
    23   11   12 ar
    24   12   13 1 
    25   13   14 1 
    26   13   37 1 
    27   13   38 1 
    28   14   15 ar
    29   14   28 ar
    30   15   16 ar
    31   15   39 1 
    32   16   17 1 
    33   16   26 ar
    34   17   31 2 
    35   18   19 1 
    36   18   40 1 
    37   18   41 1 
    38   19   42 1 
    39   19   43 1 
    40   20   21 1 
    41   20   44 1 
    42   20   45 1 
    43   21   46 1 
    44   21   47 1 
    45   22   23 1 
    46   22   30 2 
    47   23   24 1 
    48   23   25 1 
    49   23   48 1 
    50   24   25 1 
    51   24   49 1 
    52   24   50 1 
    53   25   51 1 
    54   25   52 1 
    55   26   27 ar
    56   26   32 1 
    57   27   28 ar
    58   27   53 1 
    59   28   54 1 
@<TRIPOS>SUBSTRUCTURE
1 MOL         1
@<TRIPOS>MOLECULE
query molecule
   55    59     1     0     0
SMALL
NO_CHARGE

@<TRIPOS>ATOM
      1 N         -71.2612  -72.2619   -0.6932 N.am      1 MOL    -0.2945
      2 N         -71.1710  -69.6671   -0.7762 N.am      1 MOL    -0.2983
      3 N         -68.5070  -74.8375    6.1599 N.ar      1 MOL    -0.1750
      4 N         -67.8749  -75.7310    6.8814 N.ar      1 MOL    -0.2425
      5 C         -68.3621  -76.9554    7.1275 C.ar      1 MOL     0.2725
      6 C         -69.5892  -77.2998    6.5992 C.ar      1 MOL     0.0496
      7 C         -70.1516  -78.5537    6.8410 C.ar      1 MOL     0.0138
      8 C         -71.3885  -78.8682    6.3207 C.ar      1 MOL     0.0008
      9 C         -72.0170  -77.8965    5.5710 C.ar      1 MOL     0.0007
     10 C         -71.4709  -76.6482    5.3234 C.ar      1 MOL     0.0103
     11 C         -70.2453  -76.3480    5.8407 C.ar      1 MOL     0.0106
     12 C         -69.7278  -75.1033    5.6011 C.ar      1 MOL     0.0736
     13 C         -70.2920  -74.0493    4.7681 C.3       1 MOL     0.0925
     14 C         -70.0083  -74.3101    3.3298 C.ar      1 MOL    -0.0406
     15 C         -70.9213  -73.7468    2.4206 C.ar      1 MOL     0.0196
     16 C         -70.7497  -73.9409    1.0709 C.ar      1 MOL     0.0723
     17 C         -71.6955  -73.3639    0.0891 C.2       1 MOL     0.2495
     18 C         -72.1431  -71.6817   -1.6537 C.3       1 MOL     0.1268
     19 C         -71.8329  -70.2255   -1.9264 C.3       1 MOL     0.1265
     20 C         -69.8725  -70.2437   -0.4108 C.3       1 MOL     0.1265
     21 C         -69.9186  -71.7476   -0.4958 C.3       1 MOL     0.1268
     22 C         -71.7216  -68.6238   -0.0260 C.2       1 MOL     0.2187
     23 C         -73.0062  -67.9569   -0.2542 C.3       1 MOL     0.0752
     24 C         -74.2005  -68.8617   -0.4569 C.3       1 MOL     0.0134
     25 C         -73.6958  -68.0513   -1.5676 C.3       1 MOL     0.0134
     26 C         -69.7127  -74.6705    0.5397 C.ar      1 MOL     0.1355
     27 C         -68.8196  -75.2215    1.4306 C.ar      1 MOL     0.0392
     28 C         -68.9923  -75.0262    2.8084 C.ar      1 MOL     0.0066
     29 O         -67.7704  -77.8261    7.8157 O.2       1 MOL    -0.2658
     30 O         -71.0459  -68.1898    0.9741 O.2       1 MOL    -0.2753
     31 O         -72.8531  -73.8156   -0.0684 O.2       1 MOL    -0.2699
     32 F         -69.5860  -74.8352   -0.8092 F         1 MOL    -0.2047
     33 H         -69.6407  -79.2470    7.4096 H         1 MOL     0.0625
     34 H         -71.8243  -79.7882    6.4853 H         1 MOL     0.0618
     35 H         -72.9443  -78.1111    5.1734 H         1 MOL     0.0618
     36 H         -71.9831  -75.9549    4.7555 H         1 MOL     0.0624
     37 H         -69.8609  -73.1106    5.0475 H         1 MOL     0.0377
     38 H         -71.3525  -74.0269    4.9107 H         1 MOL     0.0377
     39 H         -71.7181  -73.1896    2.7658 H         1 MOL     0.0629
     40 H         -73.1457  -71.7558   -1.2867 H         1 MOL     0.0480
     41 H         -72.0175  -72.2168   -2.5724 H         1 MOL     0.0480
     42 H         -72.7420  -69.6933   -2.1121 H         1 MOL     0.0480
     43 H         -71.1992  -70.1445   -2.7851 H         1 MOL     0.0480
     44 H         -69.6279  -69.9558    0.5901 H         1 MOL     0.0480
     45 H         -69.1295  -69.8827   -1.0909 H         1 MOL     0.0480
     46 H         -69.5293  -72.1535    0.4145 H         1 MOL     0.0480
     47 H         -69.3361  -72.0391   -1.3437 H         1 MOL     0.0480
     48 H         -72.7311  -67.1383    0.3772 H         1 MOL     0.0394
     49 H         -75.1382  -68.6205   -0.0010 H         1 MOL     0.0273
     50 H         -74.3959  -69.9028   -0.3058 H         1 MOL     0.0273
     51 H         -74.2724  -67.2239   -1.9254 H         1 MOL     0.0273
     52 H         -73.3769  -68.2681   -2.5649 H         1 MOL     0.0273
     53 H         -68.0223  -75.7784    1.0838 H         1 MOL     0.0646
     54 H         -68.3084  -75.4506    3.4548 H         1 MOL     0.0621
     55 H         -66.9984  -75.4910    7.2608 H         1 MOL     0.1921
@<TRIPOS>BOND
     1    1   18 1 
     2    1   21 1 
     3    1   17 am
     4    2   20 1 
     5    2   22 am
     6    2   19 1 
     7    3    4 ar
     8    3   12 ar
     9    4   55 1 
    10    4    5 ar
    11    5    6 ar
    12    5   29 2 
    13    6    7 ar
    14    6   11 ar
    15    7    8 ar
    16    7   33 1 
    17    8    9 ar
    18    8   34 1 
    19    9   10 ar
    20    9   35 1 
    21   10   11 ar
    22   10   36 1 
    23   11   12 ar
    24   12   13 1 
    25   13   14 1 
    26   13   37 1 
    27   13   38 1 
    28   14   15 ar
    29   14   28 ar
    30   15   16 ar
    31   15   39 1 
    32   16   17 1 
    33   16   26 ar
    34   17   31 2 
    35   18   19 1 
    36   18   40 1 
    37   18   41 1 
    38   19   42 1 
    39   19   43 1 
    40   20   21 1 
    41   20   44 1 
    42   20   45 1 
    43   21   46 1 
    44   21   47 1 
    45   22   23 1 
    46   22   30 2 
    47   23   24 1 
    48   23   25 1 
    49   23   48 1 
    50   24   25 1 
    51   24   49 1 
    52   24   50 1 
    53   25   51 1 
    54   25   52 1 
    55   26   27 ar
    56   26   32 1 
    57   27   28 ar
    58   27   53 1 
    59   28   54 1 
@<TRIPOS>SUBSTRUCTURE
1 MOL         1
@<TRIPOS>MOLECULE
query molecule
   55    59     1     0     0
SMALL
NO_CHARGE

@<TRIPOS>ATOM
      1 N          -4.3715  -36.7489   28.3177 N.am      1 MOL    -0.2945
      2 N          -5.3859  -38.8170   29.5185 N.am      1 MOL    -0.2983
      3 N          -8.2383  -37.0695   22.2383 N.ar      1 MOL    -0.1750
      4 N          -8.5229  -38.1953   21.6298 N.ar      1 MOL    -0.2425
      5 C          -8.9271  -39.2981   22.2757 C.ar      1 MOL     0.2725
      6 C          -9.0518  -39.2546   23.6491 C.ar      1 MOL     0.0496
      7 C          -9.4493  -40.3796   24.3726 C.ar      1 MOL     0.0138
      8 C          -9.5465  -40.3191   25.7461 C.ar      1 MOL     0.0008
      9 C          -9.2346  -39.1157   26.3425 C.ar      1 MOL     0.0007
     10 C          -8.8384  -37.9916   25.6372 C.ar      1 MOL     0.0103
     11 C          -8.7480  -38.0614   24.2782 C.ar      1 MOL     0.0106
     12 C          -8.3380  -36.9464   23.5977 C.ar      1 MOL     0.0736
     13 C          -8.0569  -35.6242   24.1416 C.3       1 MOL     0.0925
     14 C          -6.6169  -35.5007   24.5001 C.ar      1 MOL    -0.0406
     15 C          -6.3284  -35.5551   25.8753 C.ar      1 MOL     0.0196
     16 C          -5.0284  -35.4396   26.3060 C.ar      1 MOL     0.0723
     17 C          -4.6930  -35.4895   27.7470 C.2       1 MOL     0.2495
     18 C          -4.0381  -36.8363   29.7027 C.3       1 MOL     0.1268
     19 C          -4.3409  -38.1975   30.2913 C.3       1 MOL     0.1265
     20 C          -5.0935  -39.0976   28.1087 C.3       1 MOL     0.1265
     21 C          -4.3893  -37.9275   27.4713 C.3       1 MOL     0.1268
     22 C          -6.6304  -39.1442   30.0648 C.2       1 MOL     0.2187
     23 C          -7.0757  -38.9160   31.4421 C.3       1 MOL     0.0752
     24 C          -6.7936  -40.0278   32.4271 C.3       1 MOL     0.0134
     25 C          -8.1722  -39.7246   32.0366 C.3       1 MOL     0.0134
     26 C          -3.9635  -35.2704   25.4531 C.ar      1 MOL     0.1355
     27 C          -4.2472  -35.2172   24.1072 C.ar      1 MOL     0.0392
     28 C          -5.5726  -35.3337   23.6644 C.ar      1 MOL     0.0066
     29 O          -9.2058  -40.3862   21.7098 O.2       1 MOL    -0.2658
     30 O          -7.4892  -39.7043   29.2942 O.2       1 MOL    -0.2753
     31 O          -4.6850  -34.4646   28.4669 O.2       1 MOL    -0.2699
     32 F          -2.6897  -35.1600   25.9305 F         1 MOL    -0.2047
     33 H          -9.6717  -41.2581   23.8788 H         1 MOL     0.0625
     34 H          -9.8385  -41.1368   26.3022 H         1 MOL     0.0618
     35 H          -9.2995  -39.0492   27.3699 H         1 MOL     0.0618
     36 H          -8.6152  -37.1137   26.1319 H         1 MOL     0.0624
     37 H          -8.6523  -35.4695   25.0172 H         1 MOL     0.0377
     38 H          -8.2909  -34.8888   23.4000 H         1 MOL     0.0377
     39 H          -7.0906  -35.6810   26.5593 H         1 MOL     0.0629
     40 H          -4.5999  -36.0988   30.2374 H         1 MOL     0.0480
     41 H          -2.9840  -36.6723   29.7923 H         1 MOL     0.0480
     42 H          -4.6610  -38.0869   31.3060 H         1 MOL     0.0480
     43 H          -3.4613  -38.8068   30.2671 H         1 MOL     0.0480
     44 H          -6.0099  -39.2819   27.5883 H         1 MOL     0.0480
     45 H          -4.4570  -39.9558   28.0510 H         1 MOL     0.0480
     46 H          -4.8907  -37.6830   26.5581 H         1 MOL     0.0480
     47 H          -3.3737  -38.2168   27.3035 H         1 MOL     0.0480
     48 H          -6.8949  -37.8647   31.3615 H         1 MOL     0.0394
     49 H          -6.4531  -39.7945   33.4144 H         1 MOL     0.0273
     50 H          -6.1803  -40.9046   32.4237 H         1 MOL     0.0273
     51 H          -8.8380  -39.2773   32.7450 H         1 MOL     0.0273
     52 H          -8.9779  -40.3011   31.6343 H         1 MOL     0.0273
     53 H          -3.4834  -35.0918   23.4238 H         1 MOL     0.0646
     54 H          -5.7578  -35.2901   22.6498 H         1 MOL     0.0621
     55 H          -8.4360  -38.2322   20.6496 H         1 MOL     0.1921
@<TRIPOS>BOND
     1    1   18 1 
     2    1   21 1 
     3    1   17 am
     4    2   20 1 
     5    2   22 am
     6    2   19 1 
     7    3    4 ar
     8    3   12 ar
     9    4   55 1 
    10    4    5 ar
    11    5    6 ar
    12    5   29 2 
    13    6    7 ar
    14    6   11 ar
    15    7    8 ar
    16    7   33 1 
    17    8    9 ar
    18    8   34 1 
    19    9   10 ar
    20    9   35 1 
    21   10   11 ar
    22   10   36 1 
    23   11   12 ar
    24   12   13 1 
    25   13   14 1 
    26   13   37 1 
    27   13   38 1 
    28   14   15 ar
    29   14   28 ar
    30   15   16 ar
    31   15   39 1 
    32   16   17 1 
    33   16   26 ar
    34   17   31 2 
    35   18   19 1 
    36   18   40 1 
    37   18   41 1 
    38   19   42 1 
    39   19   43 1 
    40   20   21 1 
    41   20   44 1 
    42   20   45 1 
    43   21   46 1 
    44   21   47 1 
    45   22   23 1 
    46   22   30 2 
    47   23   24 1 
    48   23   25 1 
    49   23   48 1 
    50   24   25 1 
    51   24   49 1 
    52   24   50 1 
    53   25   51 1 
    54   25   52 1 
    55   26   27 ar
    56   26   32 1 
    57   27   28 ar
    58   27   53 1 
    59   28   54 1 
@<TRIPOS>SUBSTRUCTURE
1 MOL         1
@<TRIPOS>MOLECULE
query molecule
   55    59     1     0     0
SMALL
NO_CHARGE

@<TRIPOS>ATOM
      1 N         -12.3223  -50.3196   27.4731 N.am      1 MOL    -0.2945
      2 N         -10.6242  -51.3902   29.1219 N.am      1 MOL    -0.2983
      3 N          -8.6838  -52.5199   23.8548 N.ar      1 MOL    -0.1750
      4 N          -7.4182  -52.1806   23.8993 N.ar      1 MOL    -0.2425
      5 C          -6.7250  -51.7850   22.8224 C.ar      1 MOL     0.2725
      6 C          -7.3678  -51.7300   21.6028 C.ar      1 MOL     0.0496
      7 C          -6.6882  -51.3444   20.4467 C.ar      1 MOL     0.0138
      8 C          -7.3453  -51.3172   19.2355 C.ar      1 MOL     0.0008
      9 C          -8.6742  -51.6849   19.2367 C.ar      1 MOL     0.0007
     10 C          -9.3610  -52.0699   20.3760 C.ar      1 MOL     0.0103
     11 C          -8.7022  -52.0908   21.5699 C.ar      1 MOL     0.0106
     12 C          -9.3911  -52.4908   22.6835 C.ar      1 MOL     0.0736
     13 C         -10.8052  -52.8276   22.7828 C.3       1 MOL     0.0925
     14 C         -11.5964  -51.6434   23.2175 C.ar      1 MOL    -0.0406
     15 C         -12.0334  -51.6645   24.5540 C.ar      1 MOL     0.0196
     16 C         -12.7797  -50.6204   25.0456 C.ar      1 MOL     0.0723
     17 C         -13.2573  -50.6152   26.4468 C.2       1 MOL     0.2495
     18 C         -12.7465  -50.3003   28.8358 C.3       1 MOL     0.1268
     19 C         -11.6218  -50.6055   29.8017 C.3       1 MOL     0.1265
     20 C          -9.9501  -50.7640   27.9794 C.3       1 MOL     0.1265
     21 C         -10.9456  -50.0413   27.1087 C.3       1 MOL     0.1268
     22 C         -10.2971  -52.6916   29.5139 C.2       1 MOL     0.2187
     23 C         -10.8871  -53.4541   30.6173 C.3       1 MOL     0.0752
     24 C         -12.3969  -53.5315   30.6420 C.3       1 MOL     0.0134
     25 C         -11.6828  -52.7789   31.6759 C.3       1 MOL     0.0134
     26 C         -13.1346  -49.5266   24.2922 C.ar      1 MOL     0.1355
     27 C         -12.7062  -49.5070   22.9842 C.ar      1 MOL     0.0392
     28 C         -11.9455  -50.5712   22.4790 C.ar      1 MOL     0.0066
     29 O          -5.5117  -51.4546   22.8453 O.2       1 MOL    -0.2658
     30 O          -9.3855  -53.3014   28.8488 O.2       1 MOL    -0.2753
     31 O         -14.4481  -50.8608   26.7475 O.2       1 MOL    -0.2699
     32 F         -13.8782  -48.5147   24.8268 F         1 MOL    -0.2047
     33 H          -5.6924  -51.0785   20.4985 H         1 MOL     0.0625
     34 H          -6.8646  -51.0354   18.3679 H         1 MOL     0.0618
     35 H          -9.1844  -51.6727   18.3402 H         1 MOL     0.0618
     36 H         -10.3566  -52.3368   20.3232 H         1 MOL     0.0624
     37 H         -10.9304  -53.6157   23.4956 H         1 MOL     0.0377
     38 H         -11.1542  -53.1397   21.8204 H         1 MOL     0.0377
     39 H         -11.7948  -52.4619   25.1637 H         1 MOL     0.0629
     40 H         -13.5173  -51.0315   28.9649 H         1 MOL     0.0480
     41 H         -13.0984  -49.3124   29.0507 H         1 MOL     0.0480
     42 H         -12.0042  -51.1545   30.6364 H         1 MOL     0.0480
     43 H         -11.1882  -49.6924   30.1534 H         1 MOL     0.0480
     44 H          -9.4609  -51.5195   27.4010 H         1 MOL     0.0480
     45 H          -9.2345  -50.0571   28.3443 H         1 MOL     0.0480
     46 H         -10.7946  -50.3439   26.0934 H         1 MOL     0.0480
     47 H         -10.7851  -48.9925   27.2403 H         1 MOL     0.0480
     48 H         -10.0592  -54.1313   30.6360 H         1 MOL     0.0394
     49 H         -12.8817  -54.4530   30.8892 H         1 MOL     0.0273
     50 H         -13.1779  -53.3085   29.9454 H         1 MOL     0.0273
     51 H         -11.6557  -53.1504   32.6791 H         1 MOL     0.0273
     52 H         -11.7397  -51.7761   32.0424 H         1 MOL     0.0273
     53 H         -12.9452  -48.7081   22.3752 H         1 MOL     0.0646
     54 H         -11.6373  -50.5317   21.4946 H         1 MOL     0.0621
     55 H          -6.9542  -52.2176   24.7672 H         1 MOL     0.1921
@<TRIPOS>BOND
     1    1   18 1 
     2    1   21 1 
     3    1   17 am
     4    2   20 1 
     5    2   22 am
     6    2   19 1 
     7    3    4 ar
     8    3   12 ar
     9    4   55 1 
    10    4    5 ar
    11    5    6 ar
    12    5   29 2 
    13    6    7 ar
    14    6   11 ar
    15    7    8 ar
    16    7   33 1 
    17    8    9 ar
    18    8   34 1 
    19    9   10 ar
    20    9   35 1 
    21   10   11 ar
    22   10   36 1 
    23   11   12 ar
    24   12   13 1 
    25   13   14 1 
    26   13   37 1 
    27   13   38 1 
    28   14   15 ar
    29   14   28 ar
    30   15   16 ar
    31   15   39 1 
    32   16   17 1 
    33   16   26 ar
    34   17   31 2 
    35   18   19 1 
    36   18   40 1 
    37   18   41 1 
    38   19   42 1 
    39   19   43 1 
    40   20   21 1 
    41   20   44 1 
    42   20   45 1 
    43   21   46 1 
    44   21   47 1 
    45   22   23 1 
    46   22   30 2 
    47   23   24 1 
    48   23   25 1 
    49   23   48 1 
    50   24   25 1 
    51   24   49 1 
    52   24   50 1 
    53   25   51 1 
    54   25   52 1 
    55   26   27 ar
    56   26   32 1 
    57   27   28 ar
    58   27   53 1 
    59   28   54 1 
@<TRIPOS>SUBSTRUCTURE
1 MOL         1
@<TRIPOS>MOLECULE
query molecule
   55    59     1     0     0
SMALL
NO_CHARGE

@<TRIPOS>ATOM
      1 N         -21.6080  -28.1082   20.0282 N.am      1 MOL    -0.2945
      2 N         -23.9082  -28.3655   18.8487 N.am      1 MOL    -0.2983
      3 N         -14.9855  -26.2810   16.6320 N.ar      1 MOL    -0.1750
      4 N         -14.6038  -25.9979   15.4102 N.ar      1 MOL    -0.2425
      5 C         -15.1989  -26.5002   14.3192 C.ar      1 MOL     0.2725
      6 C         -16.2666  -27.3589   14.4816 C.ar      1 MOL     0.0496
      7 C         -16.9094  -27.9259   13.3805 C.ar      1 MOL     0.0138
      8 C         -17.9603  -28.7978   13.5673 C.ar      1 MOL     0.0008
      9 C         -18.3247  -29.0680   14.8694 C.ar      1 MOL     0.0007
     10 C         -17.6957  -28.5130   15.9713 C.ar      1 MOL     0.0103
     11 C         -16.6586  -27.6493   15.7754 C.ar      1 MOL     0.0106
     12 C         -16.0364  -27.1233   16.8757 C.ar      1 MOL     0.0736
     13 C         -16.4002  -27.3022   18.2753 C.3       1 MOL     0.0925
     14 C         -17.6155  -26.5079   18.6061 C.ar      1 MOL    -0.0406
     15 C         -18.5592  -27.1564   19.4224 C.ar      1 MOL     0.0196
     16 C         -19.7190  -26.5083   19.7740 C.ar      1 MOL     0.0723
     17 C         -20.7331  -27.1655   20.6290 C.2       1 MOL     0.2495
     18 C         -22.5956  -28.7660   20.8212 C.3       1 MOL     0.1268
     19 C         -23.7956  -29.2076   20.0112 C.3       1 MOL     0.1265
     20 C         -22.7991  -28.4043   17.8893 C.3       1 MOL     0.1265
     21 C         -21.4755  -28.3830   18.6095 C.3       1 MOL     0.1268
     22 C         -25.0136  -27.5398   18.6240 C.2       1 MOL     0.2187
     23 C         -26.1853  -27.3809   19.4894 C.3       1 MOL     0.0752
     24 C         -26.0953  -26.2990   20.5418 C.3       1 MOL     0.0134
     25 C         -26.1181  -27.7089   20.9377 C.3       1 MOL     0.0134
     26 C         -20.0221  -25.2306   19.3671 C.ar      1 MOL     0.1355
     27 C         -19.0976  -24.5967   18.5681 C.ar      1 MOL     0.0392
     28 C         -17.9137  -25.2555   18.2066 C.ar      1 MOL     0.0066
     29 O         -14.8483  -26.2396   13.1398 O.2       1 MOL    -0.2658
     30 O         -25.0221  -26.8368   17.5512 O.2       1 MOL    -0.2753
     31 O         -20.8388  -26.9162   21.8519 O.2       1 MOL    -0.2699
     32 F         -21.1885  -24.6300   19.7429 F         1 MOL    -0.2047
     33 H         -16.5982  -27.6917   12.4249 H         1 MOL     0.0625
     34 H         -18.4512  -29.2289   12.7695 H         1 MOL     0.0618
     35 H         -19.1082  -29.7192   15.0315 H         1 MOL     0.0618
     36 H         -18.0068  -28.7486   16.9268 H         1 MOL     0.0624
     37 H         -15.5892  -26.9793   18.8941 H         1 MOL     0.0377
     38 H         -16.6087  -28.3375   18.4482 H         1 MOL     0.0377
     39 H         -18.3816  -28.1164   19.7562 H         1 MOL     0.0629
     40 H         -22.9262  -28.0925   21.5845 H         1 MOL     0.0480
     41 H         -22.1447  -29.6438   21.2363 H         1 MOL     0.0480
     42 H         -24.6812  -29.1216   20.6049 H         1 MOL     0.0480
     43 H         -23.6745  -30.2276   19.7104 H         1 MOL     0.0480
     44 H         -22.8615  -27.5536   17.2436 H         1 MOL     0.0480
     45 H         -22.8663  -29.3069   17.3184 H         1 MOL     0.0480
     46 H         -20.8606  -27.6243   18.1720 H         1 MOL     0.0480
     47 H         -21.0407  -29.3548   18.5106 H         1 MOL     0.0480
     48 H         -26.8486  -27.6637   18.6993 H         1 MOL     0.0394
     49 H         -26.9407  -25.6735   20.7399 H         1 MOL     0.0273
     50 H         -25.4417  -25.4714   20.7227 H         1 MOL     0.0273
     51 H         -26.9793  -28.1070   21.4326 H         1 MOL     0.0273
     52 H         -25.4818  -28.3266   21.5350 H         1 MOL     0.0273
     53 H         -19.2763  -23.6357   18.2352 H         1 MOL     0.0646
     54 H         -17.2374  -24.7576   17.6063 H         1 MOL     0.0621
     55 H         -13.8425  -25.3853   15.2881 H         1 MOL     0.1921
@<TRIPOS>BOND
     1    1   18 1 
     2    1   21 1 
     3    1   17 am
     4    2   20 1 
     5    2   22 am
     6    2   19 1 
     7    3    4 ar
     8    3   12 ar
     9    4   55 1 
    10    4    5 ar
    11    5    6 ar
    12    5   29 2 
    13    6    7 ar
    14    6   11 ar
    15    7    8 ar
    16    7   33 1 
    17    8    9 ar
    18    8   34 1 
    19    9   10 ar
    20    9   35 1 
    21   10   11 ar
    22   10   36 1 
    23   11   12 ar
    24   12   13 1 
    25   13   14 1 
    26   13   37 1 
    27   13   38 1 
    28   14   15 ar
    29   14   28 ar
    30   15   16 ar
    31   15   39 1 
    32   16   17 1 
    33   16   26 ar
    34   17   31 2 
    35   18   19 1 
    36   18   40 1 
    37   18   41 1 
    38   19   42 1 
    39   19   43 1 
    40   20   21 1 
    41   20   44 1 
    42   20   45 1 
    43   21   46 1 
    44   21   47 1 
    45   22   23 1 
    46   22   30 2 
    47   23   24 1 
    48   23   25 1 
    49   23   48 1 
    50   24   25 1 
    51   24   49 1 
    52   24   50 1 
    53   25   51 1 
    54   25   52 1 
    55   26   27 ar
    56   26   32 1 
    57   27   28 ar
    58   27   53 1 
    59   28   54 1 
@<TRIPOS>SUBSTRUCTURE
1 MOL         1
@<TRIPOS>MOLECULE
query molecule
   55    59     1     0     0
SMALL
NO_CHARGE

@<TRIPOS>ATOM
      1 N         -50.0893  -69.3773    4.1398 N.am      1 MOL    -0.2945
      2 N         -52.4914  -69.8826    4.9901 N.am      1 MOL    -0.2983
      3 N         -45.7214  -64.1589    4.6749 N.ar      1 MOL    -0.1750
      4 N         -45.7263  -62.8670    4.8974 N.ar      1 MOL    -0.2425
      5 C         -45.0369  -62.2896    5.8915 C.ar      1 MOL     0.2725
      6 C         -44.2825  -63.0878    6.7267 C.ar      1 MOL     0.0496
      7 C         -43.5619  -62.5408    7.7890 C.ar      1 MOL     0.0138
      8 C         -42.8323  -63.3600    8.6235 C.ar      1 MOL     0.0008
      9 C         -42.8591  -64.7117    8.3527 C.ar      1 MOL     0.0007
     10 C         -43.5699  -65.2681    7.3025 C.ar      1 MOL     0.0103
     11 C         -44.2865  -64.4485    6.4812 C.ar      1 MOL     0.0106
     12 C         -44.9977  -65.0166    5.4584 C.ar      1 MOL     0.0736
     13 C         -45.0252  -66.4191    5.0642 C.3       1 MOL     0.0925
     14 C         -46.2035  -67.1075    5.6600 C.ar      1 MOL    -0.0406
     15 C         -46.8763  -68.0023    4.8089 C.ar      1 MOL     0.0196
     16 C         -47.9827  -68.6782    5.2649 C.ar      1 MOL     0.0723
     17 C         -48.7144  -69.6239    4.3922 C.2       1 MOL     0.2495
     18 C         -50.8271  -70.2642    3.2995 C.3       1 MOL     0.1268
     19 C         -52.3071  -70.2731    3.6166 C.3       1 MOL     0.1265
     20 C         -52.0574  -68.5315    5.3616 C.3       1 MOL     0.1265
     21 C         -50.7171  -68.2187    4.7476 C.3       1 MOL     0.1268
     22 C         -53.0547  -70.7353    5.9439 C.2       1 MOL     0.2187
     23 C         -53.5207  -72.1084    5.7328 C.3       1 MOL     0.0752
     24 C         -53.2764  -72.6918    4.3594 C.3       1 MOL     0.0134
     25 C         -54.6421  -72.4023    4.8023 C.3       1 MOL     0.0134
     26 C         -48.4858  -68.5308    6.5357 C.ar      1 MOL     0.1355
     27 C         -47.8264  -67.6547    7.3679 C.ar      1 MOL     0.0392
     28 C         -46.6979  -66.9626    6.9056 C.ar      1 MOL     0.0066
     29 O         -45.0280  -61.0529    6.1199 O.2       1 MOL    -0.2658
     30 O         -53.1858  -70.2870    7.1385 O.2       1 MOL    -0.2753
     31 O         -48.1608  -70.6223    3.8768 O.2       1 MOL    -0.2699
     32 F         -49.5889  -69.2248    6.9412 F         1 MOL    -0.2047
     33 H         -43.5745  -61.5216    7.9500 H         1 MOL     0.0625
     34 H         -42.2915  -62.9791    9.4146 H         1 MOL     0.0618
     35 H         -42.3207  -65.3427    8.9661 H         1 MOL     0.0618
     36 H         -43.5577  -66.2878    7.1428 H         1 MOL     0.0624
     37 H         -44.1297  -66.8976    5.4021 H         1 MOL     0.0377
     38 H         -45.0962  -66.4767    3.9979 H         1 MOL     0.0377
     39 H         -46.5406  -68.1506    3.8446 H         1 MOL     0.0629
     40 H         -50.4432  -71.2551    3.4267 H         1 MOL     0.0480
     41 H         -50.7143  -69.9227    2.2912 H         1 MOL     0.0480
     42 H         -52.7009  -71.2562    3.4660 H         1 MOL     0.0480
     43 H         -52.8199  -69.5891    2.9726 H         1 MOL     0.0480
     44 H         -51.9797  -68.4663    6.4266 H         1 MOL     0.0480
     45 H         -52.7753  -67.8253    4.9998 H         1 MOL     0.0480
     46 H         -50.0699  -67.8433    5.5127 H         1 MOL     0.0480
     47 H         -50.8788  -67.4991    3.9735 H         1 MOL     0.0480
     48 H         -53.3197  -72.3685    6.7507 H         1 MOL     0.0394
     49 H         -52.9497  -73.7059    4.2591 H         1 MOL     0.0273
     50 H         -52.6789  -72.4167    3.5154 H         1 MOL     0.0273
     51 H         -55.3124  -73.2085    5.0163 H         1 MOL     0.0273
     52 H         -55.4505  -71.8284    4.4020 H         1 MOL     0.0273
     53 H         -48.1632  -67.5076    8.3329 H         1 MOL     0.0646
     54 H         -46.2223  -66.3113    7.5499 H         1 MOL     0.0621
     55 H         -46.2627  -62.2922    4.3043 H         1 MOL     0.1921
@<TRIPOS>BOND
     1    1   18 1 
     2    1   21 1 
     3    1   17 am
     4    2   20 1 
     5    2   22 am
     6    2   19 1 
     7    3    4 ar
     8    3   12 ar
     9    4   55 1 
    10    4    5 ar
    11    5    6 ar
    12    5   29 2 
    13    6    7 ar
    14    6   11 ar
    15    7    8 ar
    16    7   33 1 
    17    8    9 ar
    18    8   34 1 
    19    9   10 ar
    20    9   35 1 
    21   10   11 ar
    22   10   36 1 
    23   11   12 ar
    24   12   13 1 
    25   13   14 1 
    26   13   37 1 
    27   13   38 1 
    28   14   15 ar
    29   14   28 ar
    30   15   16 ar
    31   15   39 1 
    32   16   17 1 
    33   16   26 ar
    34   17   31 2 
    35   18   19 1 
    36   18   40 1 
    37   18   41 1 
    38   19   42 1 
    39   19   43 1 
    40   20   21 1 
    41   20   44 1 
    42   20   45 1 
    43   21   46 1 
    44   21   47 1 
    45   22   23 1 
    46   22   30 2 
    47   23   24 1 
    48   23   25 1 
    49   23   48 1 
    50   24   25 1 
    51   24   49 1 
    52   24   50 1 
    53   25   51 1 
    54   25   52 1 
    55   26   27 ar
    56   26   32 1 
    57   27   28 ar
    58   27   53 1 
    59   28   54 1 
@<TRIPOS>SUBSTRUCTURE
1 MOL         1
@<TRIPOS>MOLECULE
query molecule
   55    59     1     0     0
SMALL
NO_CHARGE

@<TRIPOS>ATOM
      1 N         -57.2912  -74.0313  -20.1110 N.am      1 MOL    -0.2945
      2 N         -58.9168  -75.7241  -21.2248 N.am      1 MOL    -0.2983
      3 N         -51.5227  -77.3554  -21.8081 N.ar      1 MOL    -0.1750
      4 N         -51.4006  -78.6370  -21.5603 N.ar      1 MOL    -0.2425
      5 C         -52.3403  -79.5394  -21.8757 C.ar      1 MOL     0.2725
      6 C         -53.4965  -79.1060  -22.4913 C.ar      1 MOL     0.0496
      7 C         -54.5151  -80.0002  -22.8229 C.ar      1 MOL     0.0138
      8 C         -55.6705  -79.5416  -23.4182 C.ar      1 MOL     0.0008
      9 C         -55.7555  -78.1862  -23.6567 C.ar      1 MOL     0.0007
     10 C         -54.7529  -77.2875  -23.3327 C.ar      1 MOL     0.0103
     11 C         -53.6126  -77.7520  -22.7464 C.ar      1 MOL     0.0106
     12 C         -52.6387  -76.8479  -22.4165 C.ar      1 MOL     0.0736
     13 C         -52.6203  -75.4177  -22.6940 C.3       1 MOL     0.0925
     14 C         -53.0467  -74.6458  -21.4941 C.ar      1 MOL    -0.0406
     15 C         -54.3925  -74.2379  -21.4832 C.ar      1 MOL     0.0196
     16 C         -54.8778  -73.5111  -20.4225 C.ar      1 MOL     0.0723
     17 C         -56.2885  -73.0642  -20.3835 C.2       1 MOL     0.2495
     18 C         -58.6621  -73.6376  -20.0604 C.3       1 MOL     0.1268
     19 C         -59.6078  -74.7708  -20.3959 C.3       1 MOL     0.1265
     20 C         -57.7528  -76.3960  -20.6371 C.3       1 MOL     0.1265
     21 C         -56.8945  -75.4093  -19.8881 C.3       1 MOL     0.1268
     22 C         -59.3178  -76.0115  -22.5328 C.2       1 MOL     0.2187
     23 C         -60.4426  -75.4177  -23.2603 C.3       1 MOL     0.0752
     24 C         -61.3244  -76.3790  -24.0248 C.3       1 MOL     0.0134
     25 C         -60.4820  -75.4223  -24.7462 C.3       1 MOL     0.0134
     26 C         -54.1091  -73.1488  -19.3419 C.ar      1 MOL     0.1355
     27 C         -52.7919  -73.5486  -19.3536 C.ar      1 MOL     0.0392
     28 C         -52.2932  -74.2894  -20.4347 C.ar      1 MOL     0.0066
     29 O         -52.2409  -80.7722  -21.6474 O.2       1 MOL    -0.2658
     30 O         -58.6411  -76.8855  -23.1835 O.2       1 MOL    -0.2753
     31 O         -56.6172  -71.8719  -20.5814 O.2       1 MOL    -0.2699
     32 F         -54.6379  -72.4252  -18.3125 F         1 MOL    -0.2047
     33 H         -54.4031  -81.0064  -22.6230 H         1 MOL     0.0625
     34 H         -56.4367  -80.1830  -23.6728 H         1 MOL     0.0618
     35 H         -56.6126  -77.8219  -24.1004 H         1 MOL     0.0618
     36 H         -54.8661  -76.2811  -23.5319 H         1 MOL     0.0624
     37 H         -53.2877  -75.2072  -23.5035 H         1 MOL     0.0377
     38 H         -51.6226  -75.1288  -22.9518 H         1 MOL     0.0377
     39 H         -55.0138  -74.4833  -22.2695 H         1 MOL     0.0629
     40 H         -58.8164  -72.8434  -20.7610 H         1 MOL     0.0480
     41 H         -58.8724  -73.3270  -19.0577 H         1 MOL     0.0480
     42 H         -60.4571  -74.3866  -20.9207 H         1 MOL     0.0480
     43 H         -59.9390  -75.2452  -19.4956 H         1 MOL     0.0480
     44 H         -57.1735  -76.8445  -21.4167 H         1 MOL     0.0480
     45 H         -58.0938  -77.1448  -19.9530 H         1 MOL     0.0480
     46 H         -55.8800  -75.5271  -20.2077 H         1 MOL     0.0480
     47 H         -57.0098  -75.6110  -18.8445 H         1 MOL     0.0480
     48 H         -60.5593  -74.6525  -22.5219 H         1 MOL     0.0394
     49 H         -62.3872  -76.2546  -24.0139 H         1 MOL     0.0273
     50 H         -61.4498  -77.4415  -24.0414 H         1 MOL     0.0273
     51 H         -60.9347  -74.6052  -25.2681 H         1 MOL     0.0273
     52 H         -59.7418  -75.5098  -25.5128 H         1 MOL     0.0273
     53 H         -52.1714  -73.3029  -18.5657 H         1 MOL     0.0646
     54 H         -51.3018  -74.5763  -20.4187 H         1 MOL     0.0621
     55 H         -50.5774  -78.9522  -21.1214 H         1 MOL     0.1921
@<TRIPOS>BOND
     1    1   18 1 
     2    1   21 1 
     3    1   17 am
     4    2   20 1 
     5    2   22 am
     6    2   19 1 
     7    3    4 ar
     8    3   12 ar
     9    4   55 1 
    10    4    5 ar
    11    5    6 ar
    12    5   29 2 
    13    6    7 ar
    14    6   11 ar
    15    7    8 ar
    16    7   33 1 
    17    8    9 ar
    18    8   34 1 
    19    9   10 ar
    20    9   35 1 
    21   10   11 ar
    22   10   36 1 
    23   11   12 ar
    24   12   13 1 
    25   13   14 1 
    26   13   37 1 
    27   13   38 1 
    28   14   15 ar
    29   14   28 ar
    30   15   16 ar
    31   15   39 1 
    32   16   17 1 
    33   16   26 ar
    34   17   31 2 
    35   18   19 1 
    36   18   40 1 
    37   18   41 1 
    38   19   42 1 
    39   19   43 1 
    40   20   21 1 
    41   20   44 1 
    42   20   45 1 
    43   21   46 1 
    44   21   47 1 
    45   22   23 1 
    46   22   30 2 
    47   23   24 1 
    48   23   25 1 
    49   23   48 1 
    50   24   25 1 
    51   24   49 1 
    52   24   50 1 
    53   25   51 1 
    54   25   52 1 
    55   26   27 ar
    56   26   32 1 
    57   27   28 ar
    58   27   53 1 
    59   28   54 1 
@<TRIPOS>SUBSTRUCTURE
1 MOL         1
@<TRIPOS>MOLECULE
query molecule
   55    59     1     0     0
SMALL
NO_CHARGE

@<TRIPOS>ATOM
      1 N         -20.3915  -30.6847  -18.1138 N.am      1 MOL    -0.2945
      2 N         -18.6459  -30.5877  -16.1923 N.am      1 MOL    -0.2983
      3 N         -22.9721  -24.3081  -19.4110 N.ar      1 MOL    -0.1750
      4 N         -22.4774  -23.5261  -20.3396 N.ar      1 MOL    -0.2425
      5 C         -21.1825  -23.1850  -20.4002 C.ar      1 MOL     0.2725
      6 C         -20.3211  -23.6767  -19.4411 C.ar      1 MOL     0.0496
      7 C         -18.9677  -23.3371  -19.4457 C.ar      1 MOL     0.0138
      8 C         -18.1300  -23.8231  -18.4650 C.ar      1 MOL     0.0008
      9 C         -18.6950  -24.6391  -17.5079 C.ar      1 MOL     0.0007
     10 C         -20.0362  -24.9840  -17.4909 C.ar      1 MOL     0.0103
     11 C         -20.8560  -24.4998  -18.4673 C.ar      1 MOL     0.0106
     12 C         -22.1825  -24.8363  -18.4257 C.ar      1 MOL     0.0736
     13 C         -22.8429  -25.7419  -17.4948 C.3       1 MOL     0.0925
     14 C         -23.1022  -27.0586  -18.1400 C.ar      1 MOL    -0.0406
     15 C         -21.9673  -27.8597  -18.3590 C.ar      1 MOL     0.0196
     16 C         -22.1037  -29.0888  -18.9586 C.ar      1 MOL     0.0723
     17 C         -20.9279  -29.9535  -19.2058 C.2       1 MOL     0.2495
     18 C         -19.2612  -31.5329  -18.3141 C.3       1 MOL     0.1268
     19 C         -18.4431  -31.7226  -17.0548 C.3       1 MOL     0.1265
     20 C         -20.0089  -30.3622  -15.6991 C.3       1 MOL     0.1265
     21 C         -21.0113  -30.5514  -16.8085 C.3       1 MOL     0.1268
     22 C         -17.6071  -29.7256  -15.8290 C.2       1 MOL     0.2187
     23 C         -16.2055  -29.8091  -16.2480 C.3       1 MOL     0.0752
     24 C         -15.3447  -28.6047  -15.9406 C.3       1 MOL     0.0134
     25 C         -15.6754  -28.9364  -17.3283 C.3       1 MOL     0.0134
     26 C         -23.3131  -29.5981  -19.3682 C.ar      1 MOL     0.1355
     27 C         -24.4233  -28.8132  -19.1533 C.ar      1 MOL     0.0392
     28 C         -24.2877  -27.5582  -18.5427 C.ar      1 MOL     0.0066
     29 O         -20.6892  -22.4377  -21.2834 O.2       1 MOL    -0.2658
     30 O         -17.8906  -28.7499  -15.0462 O.2       1 MOL    -0.2753
     31 O         -20.4005  -30.0566  -20.3372 O.2       1 MOL    -0.2699
     32 F         -23.3963  -30.8251  -19.9602 F         1 MOL    -0.2047
     33 H         -18.5931  -22.7218  -20.1846 H         1 MOL     0.0625
     34 H         -17.1265  -23.5866  -18.4477 H         1 MOL     0.0618
     35 H         -18.0857  -25.0125  -16.7640 H         1 MOL     0.0618
     36 H         -20.4104  -25.5985  -16.7509 H         1 MOL     0.0624
     37 H         -23.7728  -25.3123  -17.1851 H         1 MOL     0.0377
     38 H         -22.2049  -25.8933  -16.6490 H         1 MOL     0.0377
     39 H         -21.0348  -27.5255  -18.0706 H         1 MOL     0.0629
     40 H         -18.6364  -31.0986  -19.0667 H         1 MOL     0.0480
     41 H         -19.6271  -32.4944  -18.6101 H         1 MOL     0.0480
     42 H         -17.4069  -31.8015  -17.3081 H         1 MOL     0.0480
     43 H         -18.7496  -32.6180  -16.5549 H         1 MOL     0.0480
     44 H         -20.0869  -29.3641  -15.3217 H         1 MOL     0.0480
     45 H         -20.2174  -31.0680  -14.9223 H         1 MOL     0.0480
     46 H         -21.6645  -29.7040  -16.8270 H         1 MOL     0.0480
     47 H         -21.5409  -31.4589  -16.6111 H         1 MOL     0.0480
     48 H         -16.1817  -30.8644  -16.0741 H         1 MOL     0.0394
     49 H         -14.3454  -28.7385  -15.5817 H         1 MOL     0.0273
     50 H         -15.4494  -27.7371  -15.3231 H         1 MOL     0.0273
     51 H         -14.9124  -29.3044  -17.9821 H         1 MOL     0.0273
     52 H         -16.1188  -28.3982  -18.1389 H         1 MOL     0.0273
     53 H         -25.3561  -29.1491  -19.4419 H         1 MOL     0.0646
     54 H         -25.1361  -26.9894  -18.3937 H         1 MOL     0.0621
     55 H         -23.0873  -23.1724  -21.0271 H         1 MOL     0.1921
@<TRIPOS>BOND
     1    1   18 1 
     2    1   21 1 
     3    1   17 am
     4    2   20 1 
     5    2   22 am
     6    2   19 1 
     7    3    4 ar
     8    3   12 ar
     9    4   55 1 
    10    4    5 ar
    11    5    6 ar
    12    5   29 2 
    13    6    7 ar
    14    6   11 ar
    15    7    8 ar
    16    7   33 1 
    17    8    9 ar
    18    8   34 1 
    19    9   10 ar
    20    9   35 1 
    21   10   11 ar
    22   10   36 1 
    23   11   12 ar
    24   12   13 1 
    25   13   14 1 
    26   13   37 1 
    27   13   38 1 
    28   14   15 ar
    29   14   28 ar
    30   15   16 ar
    31   15   39 1 
    32   16   17 1 
    33   16   26 ar
    34   17   31 2 
    35   18   19 1 
    36   18   40 1 
    37   18   41 1 
    38   19   42 1 
    39   19   43 1 
    40   20   21 1 
    41   20   44 1 
    42   20   45 1 
    43   21   46 1 
    44   21   47 1 
    45   22   23 1 
    46   22   30 2 
    47   23   24 1 
    48   23   25 1 
    49   23   48 1 
    50   24   25 1 
    51   24   49 1 
    52   24   50 1 
    53   25   51 1 
    54   25   52 1 
    55   26   27 ar
    56   26   32 1 
    57   27   28 ar
    58   27   53 1 
    59   28   54 1 
@<TRIPOS>SUBSTRUCTURE
1 MOL         1
@<TRIPOS>MOLECULE
query molecule
   55    59     1     0     0
SMALL
NO_CHARGE

@<TRIPOS>ATOM
      1 N         -31.7050  -78.3738    7.7358 N.am      1 MOL    -0.2945
      2 N         -31.6648  -79.1860    5.2686 N.am      1 MOL    -0.2983
      3 N         -30.9755  -73.4404   10.9620 N.ar      1 MOL    -0.1750
      4 N         -30.2247  -73.3844   12.0353 N.ar      1 MOL    -0.2425
      5 C         -28.9181  -73.0868   12.0036 C.ar      1 MOL     0.2725
      6 C         -28.3263  -72.8257   10.7849 C.ar      1 MOL     0.0496
      7 C         -26.9656  -72.5304   10.6929 C.ar      1 MOL     0.0138
      8 C         -26.3915  -72.2939    9.4625 C.ar      1 MOL     0.0008
      9 C         -27.2190  -72.3665    8.3620 C.ar      1 MOL     0.0007
     10 C         -28.5705  -72.6588    8.4384 C.ar      1 MOL     0.0103
     11 C         -29.1294  -72.8886    9.6610 C.ar      1 MOL     0.0106
     12 C         -30.4629  -73.1934    9.7172 C.ar      1 MOL     0.0736
     13 C         -31.4169  -73.2232    8.6163 C.3       1 MOL     0.0925
     14 C         -32.4722  -74.2439    8.8653 C.ar      1 MOL    -0.0406
     15 C         -32.0621  -75.5829    8.7365 C.ar      1 MOL     0.0196
     16 C         -32.9674  -76.5973    8.9369 C.ar      1 MOL     0.0723
     17 C         -32.5672  -78.0164    8.8053 C.2       1 MOL     0.2495
     18 C         -31.2933  -79.7313    7.5791 C.3       1 MOL     0.1268
     19 C         -30.9489  -80.0753    6.1459 C.3       1 MOL     0.1265
     20 C         -31.3555  -77.7560    5.3741 C.3       1 MOL     0.1265
     21 C         -31.2586  -77.3408    6.8196 C.3       1 MOL     0.1268
     22 C         -32.6162  -79.6414    4.3512 C.2       1 MOL     0.2187
     23 C         -33.0425  -81.0271    4.1383 C.3       1 MOL     0.0752
     24 C         -32.3149  -81.7896    3.0543 C.3       1 MOL     0.0134
     25 C         -33.7253  -81.4343    2.8822 C.3       1 MOL     0.0134
     26 C         -34.2845  -76.3788    9.2649 C.ar      1 MOL     0.1355
     27 C         -34.6848  -75.0678    9.3906 C.ar      1 MOL     0.0392
     28 C         -33.7639  -74.0303    9.1859 C.ar      1 MOL     0.0066
     29 O         -28.1821  -73.0270   13.0217 O.2       1 MOL    -0.2658
     30 O         -33.1899  -78.7684    3.6069 O.2       1 MOL    -0.2753
     31 O         -32.9629  -78.8986    9.6014 O.2       1 MOL    -0.2699
     32 F         -35.1455  -77.4210    9.4530 F         1 MOL    -0.2047
     33 H         -26.3883  -72.4884   11.5473 H         1 MOL     0.0625
     34 H         -25.3885  -72.0734    9.3693 H         1 MOL     0.0618
     35 H         -26.8089  -72.1941    7.4313 H         1 MOL     0.0618
     36 H         -29.1470  -72.7018    7.5834 H         1 MOL     0.0624
     37 H         -30.9015  -73.4635    7.7099 H         1 MOL     0.0377
     38 H         -31.8807  -72.2621    8.5351 H         1 MOL     0.0377
     39 H         -31.0842  -75.8032    8.4920 H         1 MOL     0.0629
     40 H         -32.0886  -80.3699    7.9033 H         1 MOL     0.0480
     41 H         -30.4094  -79.8709    8.1667 H         1 MOL     0.0480
     42 H         -31.2309  -81.0867    5.9414 H         1 MOL     0.0480
     43 H         -29.8954  -79.9684    5.9906 H         1 MOL     0.0480
     44 H         -32.1295  -77.1916    4.8976 H         1 MOL     0.0480
     45 H         -30.4156  -77.5688    4.8981 H         1 MOL     0.0480
     46 H         -31.8642  -76.4708    6.9666 H         1 MOL     0.0480
     47 H         -30.2279  -77.1494    7.0301 H         1 MOL     0.0480
     48 H         -33.2719  -81.1509    5.1758 H         1 MOL     0.0394
     49 H         -32.0355  -82.8104    3.2133 H         1 MOL     0.0273
     50 H         -31.4195  -81.6335    2.4895 H         1 MOL     0.0273
     51 H         -34.4722  -82.2001    2.9079 H         1 MOL     0.0273
     52 H         -34.2770  -80.9129    2.1291 H         1 MOL     0.0273
     53 H         -35.6636  -74.8487    9.6359 H         1 MOL     0.0646
     54 H         -34.0903  -73.0561    9.2860 H         1 MOL     0.0621
     55 H         -30.6417  -73.5695   12.9080 H         1 MOL     0.1921
@<TRIPOS>BOND
     1    1   18 1 
     2    1   21 1 
     3    1   17 am
     4    2   20 1 
     5    2   22 am
     6    2   19 1 
     7    3    4 ar
     8    3   12 ar
     9    4   55 1 
    10    4    5 ar
    11    5    6 ar
    12    5   29 2 
    13    6    7 ar
    14    6   11 ar
    15    7    8 ar
    16    7   33 1 
    17    8    9 ar
    18    8   34 1 
    19    9   10 ar
    20    9   35 1 
    21   10   11 ar
    22   10   36 1 
    23   11   12 ar
    24   12   13 1 
    25   13   14 1 
    26   13   37 1 
    27   13   38 1 
    28   14   15 ar
    29   14   28 ar
    30   15   16 ar
    31   15   39 1 
    32   16   17 1 
    33   16   26 ar
    34   17   31 2 
    35   18   19 1 
    36   18   40 1 
    37   18   41 1 
    38   19   42 1 
    39   19   43 1 
    40   20   21 1 
    41   20   44 1 
    42   20   45 1 
    43   21   46 1 
    44   21   47 1 
    45   22   23 1 
    46   22   30 2 
    47   23   24 1 
    48   23   25 1 
    49   23   48 1 
    50   24   25 1 
    51   24   49 1 
    52   24   50 1 
    53   25   51 1 
    54   25   52 1 
    55   26   27 ar
    56   26   32 1 
    57   27   28 ar
    58   27   53 1 
    59   28   54 1 
@<TRIPOS>SUBSTRUCTURE
1 MOL         1
@<TRIPOS>MOLECULE
query molecule
   55    59     1     0     0
SMALL
NO_CHARGE

@<TRIPOS>ATOM
      1 N         -68.1315  -43.6299   22.1246 N.am      1 MOL    -0.2945
      2 N         -67.6711  -41.0768   22.2590 N.am      1 MOL    -0.2983
      3 N         -66.0529  -44.5418   16.5160 N.ar      1 MOL    -0.1750
      4 N         -65.8571  -43.6211   15.6036 N.ar      1 MOL    -0.2425
      5 C         -64.9371  -43.7301   14.6348 C.ar      1 MOL     0.2725
      6 C         -64.1529  -44.8644   14.5890 C.ar      1 MOL     0.0496
      7 C         -63.1669  -45.0200   13.6139 C.ar      1 MOL     0.0138
      8 C         -62.3810  -46.1521   13.6004 C.ar      1 MOL     0.0008
      9 C         -62.6210  -47.0916   14.5808 C.ar      1 MOL     0.0007
     10 C         -63.5955  -46.9502   15.5545 C.ar      1 MOL     0.0103
     11 C         -64.3695  -45.8273   15.5574 C.ar      1 MOL     0.0106
     12 C         -65.3164  -45.6952   16.5374 C.ar      1 MOL     0.0736
     13 C         -65.6783  -46.6651   17.5627 C.3       1 MOL     0.0925
     14 C         -66.8972  -46.2230   18.2949 C.ar      1 MOL    -0.0406
     15 C         -66.6836  -45.7716   19.6096 C.ar      1 MOL     0.0196
     16 C         -67.7489  -45.3523   20.3698 C.ar      1 MOL     0.0723
     17 C         -67.5569  -44.8750   21.7579 C.2       1 MOL     0.2495
     18 C         -67.9719  -43.1389   23.4552 C.3       1 MOL     0.1268
     19 C         -68.0491  -41.6293   23.5337 C.3       1 MOL     0.1265
     20 C         -68.5174  -41.4158   21.1098 C.3       1 MOL     0.1265
     21 C         -68.8743  -42.8798   21.1290 C.3       1 MOL     0.1268
     22 C         -66.5525  -40.2536   22.0994 C.2       1 MOL     0.2187
     23 C         -65.6080  -39.8389   23.1400 C.3       1 MOL     0.0752
     24 C         -65.9416  -40.2651   24.5518 C.3       1 MOL     0.0134
     25 C         -65.9983  -38.8499   24.1789 C.3       1 MOL     0.0134
     26 C         -69.0455  -45.3456   19.9127 C.ar      1 MOL     0.1355
     27 C         -69.2534  -45.7876   18.6257 C.ar      1 MOL     0.0392
     28 C         -68.1688  -46.2172   17.8477 C.ar      1 MOL     0.0066
     29 O         -64.7354  -42.8588   13.7505 O.2       1 MOL    -0.2658
     30 O         -66.3088  -39.8033   20.9234 O.2       1 MOL    -0.2753
     31 O         -66.9102  -45.5311   22.6064 O.2       1 MOL    -0.2699
     32 F         -70.0701  -44.9199   20.7074 F         1 MOL    -0.2047
     33 H         -63.0262  -44.2869   12.9014 H         1 MOL     0.0625
     34 H         -61.6466  -46.2898   12.8898 H         1 MOL     0.0618
     35 H         -62.0429  -47.9459   14.5895 H         1 MOL     0.0618
     36 H         -63.7349  -47.6834   16.2675 H         1 MOL     0.0624
     37 H         -64.8684  -46.7647   18.2550 H         1 MOL     0.0377
     38 H         -65.8816  -47.6049   17.0928 H         1 MOL     0.0377
     39 H         -65.7297  -45.7557   20.0025 H         1 MOL     0.0629
     40 H         -67.0176  -43.4531   23.8240 H         1 MOL     0.0480
     41 H         -68.7735  -43.5348   24.0441 H         1 MOL     0.0480
     42 H         -67.3828  -41.2744   24.2916 H         1 MOL     0.0480
     43 H         -69.0471  -41.3295   23.7779 H         1 MOL     0.0480
     44 H         -67.9898  -41.1946   20.2057 H         1 MOL     0.0480
     45 H         -69.4184  -40.8408   21.1615 H         1 MOL     0.0480
     46 H         -68.6659  -43.2950   20.1650 H         1 MOL     0.0480
     47 H         -69.9111  -42.9542   21.3796 H         1 MOL     0.0480
     48 H         -64.7811  -39.9122   22.4653 H         1 MOL     0.0394
     49 H         -65.1676  -40.6170   25.2017 H         1 MOL     0.0273
     50 H         -66.6255  -40.9612   24.9908 H         1 MOL     0.0273
     51 H         -65.2683  -38.1698   24.5657 H         1 MOL     0.0273
     52 H         -66.7484  -38.0907   24.2431 H         1 MOL     0.0273
     53 H         -70.2085  -45.8025   18.2336 H         1 MOL     0.0646
     54 H         -68.3523  -46.5441   16.8859 H         1 MOL     0.0621
     55 H         -66.4140  -42.8094   15.6310 H         1 MOL     0.1921
@<TRIPOS>BOND
     1    1   18 1 
     2    1   21 1 
     3    1   17 am
     4    2   20 1 
     5    2   22 am
     6    2   19 1 
     7    3    4 ar
     8    3   12 ar
     9    4   55 1 
    10    4    5 ar
    11    5    6 ar
    12    5   29 2 
    13    6    7 ar
    14    6   11 ar
    15    7    8 ar
    16    7   33 1 
    17    8    9 ar
    18    8   34 1 
    19    9   10 ar
    20    9   35 1 
    21   10   11 ar
    22   10   36 1 
    23   11   12 ar
    24   12   13 1 
    25   13   14 1 
    26   13   37 1 
    27   13   38 1 
    28   14   15 ar
    29   14   28 ar
    30   15   16 ar
    31   15   39 1 
    32   16   17 1 
    33   16   26 ar
    34   17   31 2 
    35   18   19 1 
    36   18   40 1 
    37   18   41 1 
    38   19   42 1 
    39   19   43 1 
    40   20   21 1 
    41   20   44 1 
    42   20   45 1 
    43   21   46 1 
    44   21   47 1 
    45   22   23 1 
    46   22   30 2 
    47   23   24 1 
    48   23   25 1 
    49   23   48 1 
    50   24   25 1 
    51   24   49 1 
    52   24   50 1 
    53   25   51 1 
    54   25   52 1 
    55   26   27 ar
    56   26   32 1 
    57   27   28 ar
    58   27   53 1 
    59   28   54 1 
@<TRIPOS>SUBSTRUCTURE
1 MOL         1
@<TRIPOS>MOLECULE
query molecule
   55    59     1     0     0
SMALL
NO_CHARGE

@<TRIPOS>ATOM
      1 N         -61.4605  -30.2543   -4.3270 N.am      1 MOL    -0.2945
      2 N         -62.4326  -27.9799   -3.5330 N.am      1 MOL    -0.2983
      3 N         -60.6054  -34.7518   -9.7678 N.ar      1 MOL    -0.1750
      4 N         -59.8626  -35.8154   -9.9568 N.ar      1 MOL    -0.2425
      5 C         -59.9755  -36.9309   -9.2222 C.ar      1 MOL     0.2725
      6 C         -60.9175  -36.9695   -8.2148 C.ar      1 MOL     0.0496
      7 C         -61.0632  -38.0982   -7.4073 C.ar      1 MOL     0.0138
      8 C         -61.9964  -38.1064   -6.3931 C.ar      1 MOL     0.0008
      9 C         -62.7525  -36.9649   -6.2299 C.ar      1 MOL     0.0007
     10 C         -62.6184  -35.8379   -7.0234 C.ar      1 MOL     0.0103
     11 C         -61.6938  -35.8411   -8.0259 C.ar      1 MOL     0.0106
     12 C         -61.5620  -34.7125   -8.7897 C.ar      1 MOL     0.0736
     13 C         -62.3626  -33.4967   -8.7280 C.3       1 MOL     0.0925
     14 C         -61.5179  -32.3322   -8.3437 C.ar      1 MOL    -0.0406
     15 C         -61.3482  -32.1371   -6.9614 C.ar      1 MOL     0.0196
     16 C         -60.5933  -31.0820   -6.5076 C.ar      1 MOL     0.0723
     17 C         -60.3990  -30.8481   -5.0589 C.2       1 MOL     0.2495
     18 C         -61.3123  -30.0175   -2.9273 C.3       1 MOL     0.1268
     19 C         -62.1721  -28.8734   -2.4344 C.3       1 MOL     0.1265
     20 C         -63.1840  -28.5241   -4.6693 C.3       1 MOL     0.1265
     21 C         -62.6818  -29.8996   -5.0258 C.3       1 MOL     0.1268
     22 C         -61.9984  -26.6511   -3.5392 C.2       1 MOL     0.2187
     23 C         -61.2309  -25.9699   -2.4933 C.3       1 MOL     0.0752
     24 C         -61.1723  -24.4618   -2.5842 C.3       1 MOL     0.0134
     25 C         -59.9649  -25.2590   -2.8119 C.3       1 MOL     0.0134
     26 C         -59.9764  -30.1815   -7.3434 C.ar      1 MOL     0.1355
     27 C         -60.1432  -30.3735   -8.6963 C.ar      1 MOL     0.0392
     28 C         -60.9136  -31.4484   -9.1626 C.ar      1 MOL     0.0066
     29 O         -59.2735  -37.9610   -9.3892 O.2       1 MOL    -0.2658
     30 O         -62.2924  -25.9344   -4.5615 O.2       1 MOL    -0.2753
     31 O         -59.3379  -31.1560   -4.4689 O.2       1 MOL    -0.2699
     32 F         -59.2372  -29.1489   -6.8434 F         1 MOL    -0.2047
     33 H         -60.4720  -38.9283   -7.5700 H         1 MOL     0.0625
     34 H         -62.1228  -38.9286   -5.7837 H         1 MOL     0.0618
     35 H         -63.4560  -36.9497   -5.4755 H         1 MOL     0.0618
     36 H         -63.2092  -35.0076   -6.8594 H         1 MOL     0.0624
     37 H         -63.1394  -33.6228   -8.0028 H         1 MOL     0.0377
     38 H         -62.7843  -33.3115   -9.6940 H         1 MOL     0.0377
     39 H         -61.7895  -32.7840   -6.2896 H         1 MOL     0.0629
     40 H         -60.2867  -29.7872   -2.7257 H         1 MOL     0.0480
     41 H         -61.6270  -30.9030   -2.4146 H         1 MOL     0.0480
     42 H         -61.6591  -28.3477   -1.6568 H         1 MOL     0.0480
     43 H         -63.0952  -29.2537   -2.0488 H         1 MOL     0.0480
     44 H         -63.0652  -27.8772   -5.5130 H         1 MOL     0.0480
     45 H         -64.2173  -28.5937   -4.3999 H         1 MOL     0.0480
     46 H         -62.4930  -29.9322   -6.0786 H         1 MOL     0.0480
     47 H         -63.4335  -30.6014   -4.7334 H         1 MOL     0.0480
     48 H         -61.4990  -26.7096   -1.7684 H         1 MOL     0.0394
     49 H         -61.2627  -23.8683   -1.6983 H         1 MOL     0.0273
     50 H         -61.7033  -23.7155   -3.1374 H         1 MOL     0.0273
     51 H         -59.1721  -25.2382   -2.0935 H         1 MOL     0.0273
     52 H         -59.2517  -25.3231   -3.6060 H         1 MOL     0.0273
     53 H         -59.7005  -29.7257   -9.3675 H         1 MOL     0.0646
     54 H         -61.0230  -31.5693  -10.1819 H         1 MOL     0.0621
     55 H         -59.1888  -35.7937  -10.6747 H         1 MOL     0.1921
@<TRIPOS>BOND
     1    1   18 1 
     2    1   21 1 
     3    1   17 am
     4    2   20 1 
     5    2   22 am
     6    2   19 1 
     7    3    4 ar
     8    3   12 ar
     9    4   55 1 
    10    4    5 ar
    11    5    6 ar
    12    5   29 2 
    13    6    7 ar
    14    6   11 ar
    15    7    8 ar
    16    7   33 1 
    17    8    9 ar
    18    8   34 1 
    19    9   10 ar
    20    9   35 1 
    21   10   11 ar
    22   10   36 1 
    23   11   12 ar
    24   12   13 1 
    25   13   14 1 
    26   13   37 1 
    27   13   38 1 
    28   14   15 ar
    29   14   28 ar
    30   15   16 ar
    31   15   39 1 
    32   16   17 1 
    33   16   26 ar
    34   17   31 2 
    35   18   19 1 
    36   18   40 1 
    37   18   41 1 
    38   19   42 1 
    39   19   43 1 
    40   20   21 1 
    41   20   44 1 
    42   20   45 1 
    43   21   46 1 
    44   21   47 1 
    45   22   23 1 
    46   22   30 2 
    47   23   24 1 
    48   23   25 1 
    49   23   48 1 
    50   24   25 1 
    51   24   49 1 
    52   24   50 1 
    53   25   51 1 
    54   25   52 1 
    55   26   27 ar
    56   26   32 1 
    57   27   28 ar
    58   27   53 1 
    59   28   54 1 
@<TRIPOS>SUBSTRUCTURE
1 MOL         1
@<TRIPOS>MOLECULE
query molecule
   55    59     1     0     0
SMALL
NO_CHARGE

@<TRIPOS>ATOM
      1 N         -72.6317  -42.2474  -19.9898 N.am      1 MOL    -0.2945
      2 N         -74.1207  -42.7223  -22.0648 N.am      1 MOL    -0.2983
      3 N         -70.3936  -46.8934  -14.7073 N.ar      1 MOL    -0.1750
      4 N         -69.9066  -47.9865  -14.1720 N.ar      1 MOL    -0.2425
      5 C         -68.8480  -47.9938  -13.3497 C.ar      1 MOL     0.2725
      6 C         -68.2347  -46.7955  -13.0470 C.ar      1 MOL     0.0496
      7 C         -67.1173  -46.7485  -12.2125 C.ar      1 MOL     0.0138
      8 C         -66.5078  -45.5425  -11.9411 C.ar      1 MOL     0.0008
      9 C         -67.0530  -44.4203  -12.5283 C.ar      1 MOL     0.0007
     10 C         -68.1610  -44.4523  -13.3584 C.ar      1 MOL     0.0103
     11 C         -68.7581  -45.6504  -13.6185 C.ar      1 MOL     0.0106
     12 C         -69.8417  -45.6666  -14.4552 C.ar      1 MOL     0.0736
     13 C         -70.5180  -44.5258  -15.0589 C.3       1 MOL     0.0925
     14 C         -70.6752  -44.7265  -16.5260 C.ar      1 MOL    -0.0406
     15 C         -70.9103  -43.5597  -17.2750 C.ar      1 MOL     0.0196
     16 C         -71.0792  -43.6439  -18.6363 C.ar      1 MOL     0.0723
     17 C         -71.3315  -42.4344  -19.4517 C.2       1 MOL     0.2495
     18 C         -72.9147  -41.0911  -20.7770 C.3       1 MOL     0.1268
     19 C         -74.0413  -41.3169  -21.7623 C.3       1 MOL     0.1265
     20 C         -74.4360  -43.6254  -20.9527 C.3       1 MOL     0.1265
     21 C         -73.6511  -43.2453  -19.7236 C.3       1 MOL     0.1268
     22 C         -73.9096  -43.2264  -23.3515 C.2       1 MOL     0.2187
     23 C         -73.5748  -42.4597  -24.5545 C.3       1 MOL     0.0752
     24 C         -73.4995  -40.9586  -24.3890 C.3       1 MOL     0.0134
     25 C         -74.5705  -41.5567  -25.1893 C.3       1 MOL     0.0134
     26 C         -71.0306  -44.8296  -19.3304 C.ar      1 MOL     0.1355
     27 C         -70.8004  -45.9710  -18.5962 C.ar      1 MOL     0.0392
     28 C         -70.6287  -45.8888  -17.2069 C.ar      1 MOL     0.0066
     29 O         -68.3674  -49.0312  -12.8257 O.2       1 MOL    -0.2658
     30 O         -74.0148  -44.4939  -23.5181 O.2       1 MOL    -0.2753
     31 O         -70.4412  -41.5827  -19.6766 O.2       1 MOL    -0.2699
     32 F         -71.2053  -44.8610  -20.6836 F         1 MOL    -0.2047
     33 H         -66.7468  -47.6176  -11.7974 H         1 MOL     0.0625
     34 H         -65.6815  -45.4824  -11.3273 H         1 MOL     0.0618
     35 H         -66.6111  -43.5075  -12.3392 H         1 MOL     0.0618
     36 H         -68.5302  -43.5827  -13.7742 H         1 MOL     0.0624
     37 H         -69.9413  -43.6416  -14.8842 H         1 MOL     0.0377
     38 H         -71.4888  -44.4278  -14.6194 H         1 MOL     0.0377
     39 H         -70.9562  -42.6430  -16.8038 H         1 MOL     0.0629
     40 H         -72.0326  -40.8226  -21.3205 H         1 MOL     0.0480
     41 H         -73.2202  -40.3122  -20.1092 H         1 MOL     0.0480
     42 H         -73.8501  -40.7660  -22.6591 H         1 MOL     0.0480
     43 H         -74.9658  -40.9838  -21.3384 H         1 MOL     0.0480
     44 H         -74.1884  -44.6282  -21.2314 H         1 MOL     0.0480
     45 H         -75.4803  -43.5508  -20.7313 H         1 MOL     0.0480
     46 H         -73.1756  -44.1226  -19.3369 H         1 MOL     0.0480
     47 H         -74.3382  -42.8222  -19.0221 H         1 MOL     0.0480
     48 H         -72.9529  -43.2477  -24.9240 H         1 MOL     0.0394
     49 H         -72.7182  -40.4059  -24.8679 H         1 MOL     0.0273
     50 H         -73.4599  -40.2900  -23.5546 H         1 MOL     0.0273
     51 H         -74.5721  -41.4311  -26.2519 H         1 MOL     0.0273
     52 H         -75.6377  -41.4933  -25.1741 H         1 MOL     0.0273
     53 H         -70.7541  -46.8878  -19.0691 H         1 MOL     0.0646
     54 H         -70.4578  -46.7599  -16.6801 H         1 MOL     0.0621
     55 H         -70.3404  -48.8448  -14.3842 H         1 MOL     0.1921
@<TRIPOS>BOND
     1    1   18 1 
     2    1   21 1 
     3    1   17 am
     4    2   20 1 
     5    2   22 am
     6    2   19 1 
     7    3    4 ar
     8    3   12 ar
     9    4   55 1 
    10    4    5 ar
    11    5    6 ar
    12    5   29 2 
    13    6    7 ar
    14    6   11 ar
    15    7    8 ar
    16    7   33 1 
    17    8    9 ar
    18    8   34 1 
    19    9   10 ar
    20    9   35 1 
    21   10   11 ar
    22   10   36 1 
    23   11   12 ar
    24   12   13 1 
    25   13   14 1 
    26   13   37 1 
    27   13   38 1 
    28   14   15 ar
    29   14   28 ar
    30   15   16 ar
    31   15   39 1 
    32   16   17 1 
    33   16   26 ar
    34   17   31 2 
    35   18   19 1 
    36   18   40 1 
    37   18   41 1 
    38   19   42 1 
    39   19   43 1 
    40   20   21 1 
    41   20   44 1 
    42   20   45 1 
    43   21   46 1 
    44   21   47 1 
    45   22   23 1 
    46   22   30 2 
    47   23   24 1 
    48   23   25 1 
    49   23   48 1 
    50   24   25 1 
    51   24   49 1 
    52   24   50 1 
    53   25   51 1 
    54   25   52 1 
    55   26   27 ar
    56   26   32 1 
    57   27   28 ar
    58   27   53 1 
    59   28   54 1 
@<TRIPOS>SUBSTRUCTURE
1 MOL         1
@<TRIPOS>MOLECULE
query molecule
   55    59     1     0     0
SMALL
NO_CHARGE

@<TRIPOS>ATOM
      1 N         -53.4761  -26.1715  -10.1421 N.am      1 MOL    -0.2945
      2 N         -53.0006  -25.7670  -12.6638 N.am      1 MOL    -0.2983
      3 N         -51.0067  -23.2879   -6.1446 N.ar      1 MOL    -0.1750
      4 N         -49.8375  -22.7707   -6.4343 N.ar      1 MOL    -0.2425
      5 C         -49.5676  -21.4615   -6.3343 C.ar      1 MOL     0.2725
      6 C         -50.5648  -20.6093   -5.9064 C.ar      1 MOL     0.0496
      7 C         -50.3436  -19.2354   -5.8037 C.ar      1 MOL     0.0138
      8 C         -51.3609  -18.4004   -5.3944 C.ar      1 MOL     0.0008
      9 C         -52.5736  -18.9885   -5.1034 C.ar      1 MOL     0.0007
     10 C         -52.8073  -20.3500   -5.2013 C.ar      1 MOL     0.0103
     11 C         -51.7932  -21.1677   -5.6047 C.ar      1 MOL     0.0106
     12 C         -52.0460  -22.5089   -5.7130 C.ar      1 MOL     0.0736
     13 C         -53.2709  -23.2156   -5.3619 C.3       1 MOL     0.0925
     14 C         -54.1294  -23.4045   -6.5638 C.ar      1 MOL    -0.0406
     15 C         -53.9360  -24.6093   -7.2628 C.ar      1 MOL     0.0196
     16 C         -54.6747  -24.8705   -8.3919 C.ar      1 MOL     0.0723
     17 C         -54.4918  -26.1279   -9.1514 C.2       1 MOL     0.2495
     18 C         -53.2664  -27.3679  -10.8916 C.3       1 MOL     0.1268
     19 C         -52.6613  -27.1049  -12.2539 C.3       1 MOL     0.1265
     20 C         -52.4951  -24.6685  -11.8333 C.3       1 MOL     0.1265
     21 C         -52.6681  -24.9880  -10.3707 C.3       1 MOL     0.1268
     22 C         -53.7758  -25.5027  -13.7967 C.2       1 MOL     0.2187
     23 C         -54.3615  -26.4851  -14.7126 C.3       1 MOL     0.0752
     24 C         -53.8540  -27.9034  -14.5826 C.3       1 MOL     0.0134
     25 C         -53.5446  -27.1194  -15.7803 C.3       1 MOL     0.0134
     26 C         -55.6169  -24.0043   -8.8939 C.ar      1 MOL     0.1355
     27 C         -55.8053  -22.8253   -8.2089 C.ar      1 MOL     0.0392
     28 C         -55.0526  -22.5552   -7.0570 C.ar      1 MOL     0.0066
     29 O         -48.4526  -20.9471   -6.6062 O.2       1 MOL    -0.2658
     30 O         -54.0119  -24.2746  -14.0821 O.2       1 MOL    -0.2753
     31 O         -55.1989  -27.1411   -8.9462 O.2       1 MOL    -0.2699
     32 F         -56.3248  -24.3095  -10.0202 F         1 MOL    -0.2047
     33 H         -49.4169  -18.8437   -6.0337 H         1 MOL     0.0625
     34 H         -51.2214  -17.3822   -5.3103 H         1 MOL     0.0618
     35 H         -53.3489  -18.3812   -4.7965 H         1 MOL     0.0618
     36 H         -53.7347  -20.7408   -4.9721 H         1 MOL     0.0624
     37 H         -53.8081  -22.6477   -4.6312 H         1 MOL     0.0377
     38 H         -53.0142  -24.1771   -4.9683 H         1 MOL     0.0377
     39 H         -53.2412  -25.2952   -6.9291 H         1 MOL     0.0629
     40 H         -54.2083  -27.8587  -11.0238 H         1 MOL     0.0480
     41 H         -52.5769  -27.9761  -10.3433 H         1 MOL     0.0480
     42 H         -53.0496  -27.8073  -12.9611 H         1 MOL     0.0480
     43 H         -51.5974  -27.2109  -12.2046 H         1 MOL     0.0480
     44 H         -53.0356  -23.7745  -12.0638 H         1 MOL     0.0480
     45 H         -51.4531  -24.5326  -12.0354 H         1 MOL     0.0480
     46 H         -53.1411  -24.1556   -9.8926 H         1 MOL     0.0480
     47 H         -51.6968  -25.1805   -9.9672 H         1 MOL     0.0480
     48 H         -55.3031  -25.9776  -14.7078 H         1 MOL     0.0394
     49 H         -54.5381  -28.7242  -14.6419 H         1 MOL     0.0273
     50 H         -53.2774  -28.4377  -13.8565 H         1 MOL     0.0273
     51 H         -53.9988  -27.3764  -16.7145 H         1 MOL     0.0273
     52 H         -52.6404  -26.8544  -16.2859 H         1 MOL     0.0273
     53 H         -56.5014  -22.1400   -8.5435 H         1 MOL     0.0646
     54 H         -55.2134  -21.6635   -6.5623 H         1 MOL     0.0621
     55 H         -49.1218  -23.3742   -6.7399 H         1 MOL     0.1921
@<TRIPOS>BOND
     1    1   18 1 
     2    1   21 1 
     3    1   17 am
     4    2   20 1 
     5    2   22 am
     6    2   19 1 
     7    3    4 ar
     8    3   12 ar
     9    4   55 1 
    10    4    5 ar
    11    5    6 ar
    12    5   29 2 
    13    6    7 ar
    14    6   11 ar
    15    7    8 ar
    16    7   33 1 
    17    8    9 ar
    18    8   34 1 
    19    9   10 ar
    20    9   35 1 
    21   10   11 ar
    22   10   36 1 
    23   11   12 ar
    24   12   13 1 
    25   13   14 1 
    26   13   37 1 
    27   13   38 1 
    28   14   15 ar
    29   14   28 ar
    30   15   16 ar
    31   15   39 1 
    32   16   17 1 
    33   16   26 ar
    34   17   31 2 
    35   18   19 1 
    36   18   40 1 
    37   18   41 1 
    38   19   42 1 
    39   19   43 1 
    40   20   21 1 
    41   20   44 1 
    42   20   45 1 
    43   21   46 1 
    44   21   47 1 
    45   22   23 1 
    46   22   30 2 
    47   23   24 1 
    48   23   25 1 
    49   23   48 1 
    50   24   25 1 
    51   24   49 1 
    52   24   50 1 
    53   25   51 1 
    54   25   52 1 
    55   26   27 ar
    56   26   32 1 
    57   27   28 ar
    58   27   53 1 
    59   28   54 1 
@<TRIPOS>SUBSTRUCTURE
1 MOL         1
@<TRIPOS>MOLECULE
query molecule
   55    59     1     0     0
SMALL
NO_CHARGE

@<TRIPOS>ATOM
      1 N         -63.3742  -28.3486    4.2320 N.am      1 MOL    -0.2945
      2 N         -62.2218  -30.4618    3.2550 N.am      1 MOL    -0.2983
      3 N         -60.4092  -22.1282    2.8149 N.ar      1 MOL    -0.1750
      4 N         -59.1454  -22.1134    2.4665 N.ar      1 MOL    -0.2425
      5 C         -58.2106  -22.8697    3.0589 C.ar      1 MOL     0.2725
      6 C         -58.5891  -23.7078    4.0875 C.ar      1 MOL     0.0496
      7 C         -57.6533  -24.5016    4.7518 C.ar      1 MOL     0.0138
      8 C         -58.0506  -25.3155    5.7907 C.ar      1 MOL     0.0008
      9 C         -59.3885  -25.2960    6.1237 C.ar      1 MOL     0.0007
     10 C         -60.3279  -24.5132    5.4736 C.ar      1 MOL     0.0103
     11 C         -59.9247  -23.7134    4.4452 C.ar      1 MOL     0.0106
     12 C         -60.8630  -22.9328    3.8248 C.ar      1 MOL     0.0736
     13 C         -62.2993  -22.9036    4.0681 C.3       1 MOL     0.0925
     14 C         -62.9895  -23.9425    3.2547 C.ar      1 MOL    -0.0406
     15 C         -63.3528  -25.1113    3.9471 C.ar      1 MOL     0.0196
     16 C         -63.9855  -26.1324    3.2794 C.ar      1 MOL     0.0723
     17 C         -64.3773  -27.3765    3.9796 C.2       1 MOL     0.2495
     18 C         -63.7126  -29.5586    4.9090 C.3       1 MOL     0.1268
     19 C         -62.7864  -30.7030    4.5574 C.3       1 MOL     0.1265
     20 C         -61.3830  -29.2678    3.1044 C.3       1 MOL     0.1265
     21 C         -62.0165  -28.0859    3.7921 C.3       1 MOL     0.1268
     22 C         -62.4495  -31.3118    2.1688 C.2       1 MOL     0.2187
     23 C         -63.2692  -32.5264    2.1569 C.3       1 MOL     0.0752
     24 C         -62.5209  -33.8368    2.2508 C.3       1 MOL     0.0134
     25 C         -63.2166  -33.4750    1.0137 C.3       1 MOL     0.0134
     26 C         -64.2946  -26.0808    1.9409 C.ar      1 MOL     0.1355
     27 C         -63.9385  -24.9362    1.2641 C.ar      1 MOL     0.0392
     28 C         -63.2919  -23.8929    1.9420 C.ar      1 MOL     0.0066
     29 O         -56.9945  -22.8703    2.7382 O.2       1 MOL    -0.2658
     30 O         -61.8906  -31.0138    1.0534 O.2       1 MOL    -0.2753
     31 O         -65.5541  -27.5919    4.3507 O.2       1 MOL    -0.2699
     32 F         -64.9236  -27.1225    1.3228 F         1 MOL    -0.2047
     33 H         -56.6623  -24.4800    4.4645 H         1 MOL     0.0625
     34 H         -57.3778  -25.9112    6.2962 H         1 MOL     0.0618
     35 H         -59.7068  -25.8969    6.8994 H         1 MOL     0.0618
     36 H         -61.3187  -24.5345    5.7622 H         1 MOL     0.0624
     37 H         -62.6816  -21.9393    3.8055 H         1 MOL     0.0377
     38 H         -62.4781  -23.1034    5.1042 H         1 MOL     0.0377
     39 H         -63.1445  -25.2023    4.9535 H         1 MOL     0.0629
     40 H         -64.7123  -29.8322    4.6421 H         1 MOL     0.0480
     41 H         -63.6191  -29.3780    5.9600 H         1 MOL     0.0480
     42 H         -63.3367  -31.6203    4.5467 H         1 MOL     0.0480
     43 H         -62.0046  -30.7733    5.2849 H         1 MOL     0.0480
     44 H         -61.2662  -29.0477    2.0640 H         1 MOL     0.0480
     45 H         -60.4292  -29.4559    3.5514 H         1 MOL     0.0480
     46 H         -62.0336  -27.2620    3.1094 H         1 MOL     0.0480
     47 H         -61.4338  -27.8707    4.6624 H         1 MOL     0.0480
     48 H         -64.0679  -32.0322    2.6690 H         1 MOL     0.0394
     49 H         -62.8992  -34.6262    2.8665 H         1 MOL     0.0273
     50 H         -61.5205  -34.1211    2.5025 H         1 MOL     0.0273
     51 H         -64.0981  -34.0087    0.7253 H         1 MOL     0.0273
     52 H         -62.9230  -33.3940   -0.0112 H         1 MOL     0.0273
     53 H         -64.1481  -24.8463    0.2570 H         1 MOL     0.0646
     54 H         -63.0354  -23.0457    1.4109 H         1 MOL     0.0621
     55 H         -58.8695  -21.5174    1.7327 H         1 MOL     0.1921
@<TRIPOS>BOND
     1    1   18 1 
     2    1   21 1 
     3    1   17 am
     4    2   20 1 
     5    2   22 am
     6    2   19 1 
     7    3    4 ar
     8    3   12 ar
     9    4   55 1 
    10    4    5 ar
    11    5    6 ar
    12    5   29 2 
    13    6    7 ar
    14    6   11 ar
    15    7    8 ar
    16    7   33 1 
    17    8    9 ar
    18    8   34 1 
    19    9   10 ar
    20    9   35 1 
    21   10   11 ar
    22   10   36 1 
    23   11   12 ar
    24   12   13 1 
    25   13   14 1 
    26   13   37 1 
    27   13   38 1 
    28   14   15 ar
    29   14   28 ar
    30   15   16 ar
    31   15   39 1 
    32   16   17 1 
    33   16   26 ar
    34   17   31 2 
    35   18   19 1 
    36   18   40 1 
    37   18   41 1 
    38   19   42 1 
    39   19   43 1 
    40   20   21 1 
    41   20   44 1 
    42   20   45 1 
    43   21   46 1 
    44   21   47 1 
    45   22   23 1 
    46   22   30 2 
    47   23   24 1 
    48   23   25 1 
    49   23   48 1 
    50   24   25 1 
    51   24   49 1 
    52   24   50 1 
    53   25   51 1 
    54   25   52 1 
    55   26   27 ar
    56   26   32 1 
    57   27   28 ar
    58   27   53 1 
    59   28   54 1 
@<TRIPOS>SUBSTRUCTURE
1 MOL         1
@<TRIPOS>MOLECULE
query molecule
   55    59     1     0     0
SMALL
NO_CHARGE

@<TRIPOS>ATOM
      1 N          -6.1358  -54.0151  -23.5276 N.am      1 MOL    -0.2945
      2 N          -4.1291  -54.4650  -21.9404 N.am      1 MOL    -0.2983
      3 N          -2.7451  -56.5397  -27.8922 N.ar      1 MOL    -0.1750
      4 N          -1.4983  -56.3516  -27.5333 N.ar      1 MOL    -0.2425
      5 C          -0.9630  -56.8872  -26.4272 C.ar      1 MOL     0.2725
      6 C          -1.7571  -57.6766  -25.6210 C.ar      1 MOL     0.0496
      7 C          -1.2560  -58.2421  -24.4479 C.ar      1 MOL     0.0138
      8 C          -2.0737  -59.0098  -23.6468 C.ar      1 MOL     0.0008
      9 C          -3.3775  -59.1777  -24.0627 C.ar      1 MOL     0.0007
     10 C          -3.8882  -58.6222  -25.2239 C.ar      1 MOL     0.0103
     11 C          -3.0700  -57.8664  -26.0109 C.ar      1 MOL     0.0106
     12 C          -3.5954  -57.3101  -27.1462 C.ar      1 MOL     0.0736
     13 C          -4.9349  -57.4928  -27.6900 C.3       1 MOL     0.0925
     14 C          -5.7753  -56.2922  -27.4263 C.ar      1 MOL    -0.0406
     15 C          -6.0491  -56.0302  -26.0720 C.ar      1 MOL     0.0196
     16 C          -6.8256  -54.9496  -25.7284 C.ar      1 MOL     0.0723
     17 C          -7.1344  -54.6495  -24.3120 C.2       1 MOL     0.2495
     18 C          -6.3983  -53.7054  -22.1593 C.3       1 MOL     0.1268
     19 C          -5.1386  -53.6452  -21.3223 C.3       1 MOL     0.1265
     20 C          -3.6827  -54.0725  -23.2815 C.3       1 MOL     0.1265
     21 C          -4.8609  -53.6936  -24.1415 C.3       1 MOL     0.1268
     22 C          -3.5856  -55.5887  -21.3111 C.2       1 MOL     0.2187
     23 C          -3.9353  -56.1135  -19.9884 C.3       1 MOL     0.0752
     24 C          -3.0306  -55.7046  -18.8481 C.3       1 MOL     0.0134
     25 C          -3.0605  -57.0978  -19.2988 C.3       1 MOL     0.0134
     26 C          -7.3655  -54.0849  -26.6508 C.ar      1 MOL     0.1355
     27 C          -7.0968  -54.3424  -27.9761 C.ar      1 MOL     0.0392
     28 C          -6.3057  -55.4447  -28.3303 C.ar      1 MOL     0.0066
     29 O           0.2303  -56.7195  -26.0671 O.2       1 MOL    -0.2658
     30 O          -2.6828  -56.2454  -21.9429 O.2       1 MOL    -0.2753
     31 O          -8.2381  -54.9358  -23.7938 O.2       1 MOL    -0.2699
     32 F          -8.1314  -53.0254  -26.2589 F         1 MOL    -0.2047
     33 H          -0.2717  -58.0862  -24.1798 H         1 MOL     0.0625
     34 H          -1.7261  -59.4384  -22.7757 H         1 MOL     0.0618
     35 H          -4.0067  -59.7477  -23.4768 H         1 MOL     0.0618
     36 H          -4.8731  -58.7777  -25.4907 H         1 MOL     0.0624
     37 H          -5.3876  -58.3471  -27.2316 H         1 MOL     0.0377
     38 H          -4.8615  -57.6353  -28.7481 H         1 MOL     0.0377
     39 H          -5.6684  -56.6477  -25.3384 H         1 MOL     0.0629
     40 H          -7.0427  -54.4584  -21.7553 H         1 MOL     0.0480
     41 H          -6.8536  -52.7370  -22.1287 H         1 MOL     0.0480
     42 H          -5.3439  -54.0086  -20.3374 H         1 MOL     0.0480
     43 H          -4.7950  -52.6337  -21.2566 H         1 MOL     0.0480
     44 H          -3.1658  -54.8921  -23.7351 H         1 MOL     0.0480
     45 H          -3.0322  -53.2272  -23.1965 H         1 MOL     0.0480
     46 H          -4.7886  -54.2193  -25.0709 H         1 MOL     0.0480
     47 H          -4.8299  -52.6338  -24.2794 H         1 MOL     0.0480
     48 H          -4.9798  -56.0892  -20.2183 H         1 MOL     0.0394
     49 H          -3.4507  -55.4394  -17.9003 H         1 MOL     0.0273
     50 H          -2.2666  -54.9673  -18.7148 H         1 MOL     0.0273
     51 H          -3.4960  -57.8486  -18.6730 H         1 MOL     0.0273
     52 H          -2.3162  -57.7928  -19.6249 H         1 MOL     0.0273
     53 H          -7.4780  -53.7232  -28.7093 H         1 MOL     0.0646
     54 H          -6.1199  -55.6153  -29.3313 H         1 MOL     0.0621
     55 H          -0.9266  -55.7894  -28.1050 H         1 MOL     0.1921
@<TRIPOS>BOND
     1    1   18 1 
     2    1   21 1 
     3    1   17 am
     4    2   20 1 
     5    2   22 am
     6    2   19 1 
     7    3    4 ar
     8    3   12 ar
     9    4   55 1 
    10    4    5 ar
    11    5    6 ar
    12    5   29 2 
    13    6    7 ar
    14    6   11 ar
    15    7    8 ar
    16    7   33 1 
    17    8    9 ar
    18    8   34 1 
    19    9   10 ar
    20    9   35 1 
    21   10   11 ar
    22   10   36 1 
    23   11   12 ar
    24   12   13 1 
    25   13   14 1 
    26   13   37 1 
    27   13   38 1 
    28   14   15 ar
    29   14   28 ar
    30   15   16 ar
    31   15   39 1 
    32   16   17 1 
    33   16   26 ar
    34   17   31 2 
    35   18   19 1 
    36   18   40 1 
    37   18   41 1 
    38   19   42 1 
    39   19   43 1 
    40   20   21 1 
    41   20   44 1 
    42   20   45 1 
    43   21   46 1 
    44   21   47 1 
    45   22   23 1 
    46   22   30 2 
    47   23   24 1 
    48   23   25 1 
    49   23   48 1 
    50   24   25 1 
    51   24   49 1 
    52   24   50 1 
    53   25   51 1 
    54   25   52 1 
    55   26   27 ar
    56   26   32 1 
    57   27   28 ar
    58   27   53 1 
    59   28   54 1 
@<TRIPOS>SUBSTRUCTURE
1 MOL         1
@<TRIPOS>MOLECULE
query molecule
   55    59     1     0     0
SMALL
NO_CHARGE

@<TRIPOS>ATOM
      1 N         -70.5059  -35.9696    3.5196 N.am      1 MOL    -0.2945
      2 N         -68.1856  -35.9947    2.3516 N.am      1 MOL    -0.2983
      3 N         -69.4930  -39.8546   10.0554 N.ar      1 MOL    -0.1750
      4 N         -69.6374  -39.8923   11.3578 N.ar      1 MOL    -0.2425
      5 C         -69.4941  -38.8166   12.1447 C.ar      1 MOL     0.2725
      6 C         -69.1786  -37.6060   11.5627 C.ar      1 MOL     0.0496
      7 C         -68.9983  -36.4593   12.3371 C.ar      1 MOL     0.0138
      8 C         -68.6624  -35.2654   11.7361 C.ar      1 MOL     0.0008
      9 C         -68.5184  -35.2744   10.3648 C.ar      1 MOL     0.0007
     10 C         -68.6939  -36.4046    9.5841 C.ar      1 MOL     0.0103
     11 C         -69.0287  -37.5804   10.1884 C.ar      1 MOL     0.0106
     12 C         -69.1812  -38.6921    9.4039 C.ar      1 MOL     0.0736
     13 C         -69.1146  -38.7726    7.9506 C.3       1 MOL     0.0925
     14 C         -70.3716  -38.2590    7.3395 C.ar      1 MOL    -0.0406
     15 C         -70.2069  -37.2544    6.3693 C.ar      1 MOL     0.0196
     16 C         -71.3094  -36.7097    5.7555 C.ar      1 MOL     0.0723
     17 C         -71.1689  -35.6485    4.7330 C.2       1 MOL     0.2495
     18 C         -70.3554  -34.9742    2.5079 C.3       1 MOL     0.1268
     19 C         -69.1547  -35.2210    1.6200 C.3       1 MOL     0.1265
     20 C         -68.5924  -37.3377    2.7792 C.3       1 MOL     0.1265
     21 C         -69.9929  -37.3145    3.3353 C.3       1 MOL     0.1268
     22 C         -66.9100  -35.5089    2.6534 C.2       1 MOL     0.2187
     23 C         -66.3644  -34.1930    2.3104 C.3       1 MOL     0.0752
     24 C         -67.2246  -33.3260    1.4192 C.3       1 MOL     0.0134
     25 C         -65.9612  -33.8703    0.9165 C.3       1 MOL     0.0134
     26 C         -72.5980  -37.0966    6.0379 C.ar      1 MOL     0.1355
     27 C         -72.7580  -38.0800    6.9878 C.ar      1 MOL     0.0392
     28 C         -71.6354  -38.6372    7.6167 C.ar      1 MOL     0.0066
     29 O         -69.6298  -38.8325   13.3950 O.2       1 MOL    -0.2658
     30 O         -66.1170  -36.2823    3.3001 O.2       1 MOL    -0.2753
     31 O         -71.6135  -34.4905    4.9067 O.2       1 MOL    -0.2699
     32 F         -73.6607  -36.5241    5.4009 F         1 MOL    -0.2047
     33 H         -69.1172  -36.5049   13.3612 H         1 MOL     0.0625
     34 H         -68.5244  -34.4048   12.2871 H         1 MOL     0.0618
     35 H         -68.2659  -34.3913    9.8952 H         1 MOL     0.0618
     36 H         -68.5736  -36.3586    8.5600 H         1 MOL     0.0624
     37 H         -68.9731  -39.7927    7.6603 H         1 MOL     0.0377
     38 H         -68.2964  -38.1734    7.6087 H         1 MOL     0.0377
     39 H         -69.2610  -36.9269    6.1191 H         1 MOL     0.0629
     40 H         -70.2424  -34.0204    2.9801 H         1 MOL     0.0480
     41 H         -71.2281  -35.0081    1.8888 H         1 MOL     0.0480
     42 H         -68.7239  -34.2858    1.3302 H         1 MOL     0.0480
     43 H         -69.4565  -35.7534    0.7420 H         1 MOL     0.0480
     44 H         -67.9201  -37.6860    3.5350 H         1 MOL     0.0480
     45 H         -68.5684  -37.9927    1.9334 H         1 MOL     0.0480
     46 H         -69.9926  -37.8112    4.2832 H         1 MOL     0.0480
     47 H         -70.6272  -37.8052    2.6282 H         1 MOL     0.0480
     48 H         -65.8732  -34.1130    3.2574 H         1 MOL     0.0394
     49 H         -67.3149  -32.2782    1.6175 H         1 MOL     0.0273
     50 H         -68.2437  -33.3513    1.0938 H         1 MOL     0.0273
     51 H         -65.1337  -33.2150    0.7411 H         1 MOL     0.0273
     52 H         -65.6870  -34.4546    0.0640 H         1 MOL     0.0273
     53 H         -73.7051  -38.4073    7.2367 H         1 MOL     0.0646
     54 H         -71.7833  -39.3728    8.3256 H         1 MOL     0.0621
     55 H         -69.8630  -40.7535   11.7788 H         1 MOL     0.1921
@<TRIPOS>BOND
     1    1   18 1 
     2    1   21 1 
     3    1   17 am
     4    2   20 1 
     5    2   22 am
     6    2   19 1 
     7    3    4 ar
     8    3   12 ar
     9    4   55 1 
    10    4    5 ar
    11    5    6 ar
    12    5   29 2 
    13    6    7 ar
    14    6   11 ar
    15    7    8 ar
    16    7   33 1 
    17    8    9 ar
    18    8   34 1 
    19    9   10 ar
    20    9   35 1 
    21   10   11 ar
    22   10   36 1 
    23   11   12 ar
    24   12   13 1 
    25   13   14 1 
    26   13   37 1 
    27   13   38 1 
    28   14   15 ar
    29   14   28 ar
    30   15   16 ar
    31   15   39 1 
    32   16   17 1 
    33   16   26 ar
    34   17   31 2 
    35   18   19 1 
    36   18   40 1 
    37   18   41 1 
    38   19   42 1 
    39   19   43 1 
    40   20   21 1 
    41   20   44 1 
    42   20   45 1 
    43   21   46 1 
    44   21   47 1 
    45   22   23 1 
    46   22   30 2 
    47   23   24 1 
    48   23   25 1 
    49   23   48 1 
    50   24   25 1 
    51   24   49 1 
    52   24   50 1 
    53   25   51 1 
    54   25   52 1 
    55   26   27 ar
    56   26   32 1 
    57   27   28 ar
    58   27   53 1 
    59   28   54 1 
@<TRIPOS>SUBSTRUCTURE
1 MOL         1
@<TRIPOS>MOLECULE
query molecule
   55    59     1     0     0
SMALL
NO_CHARGE

@<TRIPOS>ATOM
      1 N         -13.0117  -80.8593  -19.2489 N.am      1 MOL    -0.2945
      2 N         -14.9788  -81.3210  -20.8816 N.am      1 MOL    -0.2983
      3 N          -7.4873  -81.1353  -17.4695 N.ar      1 MOL    -0.1750
      4 N          -7.3085  -81.2784  -16.1787 N.ar      1 MOL    -0.2425
      5 C          -6.7880  -80.3210  -15.3981 C.ar      1 MOL     0.2725
      6 C          -6.4193  -79.1227  -15.9742 C.ar      1 MOL     0.0496
      7 C          -5.8543  -78.1000  -15.2112 C.ar      1 MOL     0.0138
      8 C          -5.4739  -76.9193  -15.8119 C.ar      1 MOL     0.0008
      9 C          -5.6784  -76.8152  -17.1715 C.ar      1 MOL     0.0007
     10 C          -6.2375  -77.8218  -17.9408 C.ar      1 MOL     0.0103
     11 C          -6.6129  -78.9852  -17.3363 C.ar      1 MOL     0.0106
     12 C          -7.1478  -79.9767  -18.1143 C.ar      1 MOL     0.0736
     13 C          -7.4590  -79.9227  -19.5367 C.3       1 MOL     0.0925
     14 C          -8.7612  -79.2367  -19.7623 C.ar      1 MOL    -0.0406
     15 C          -9.8671  -79.8055  -19.1056 C.ar      1 MOL     0.0196
     16 C         -11.1142  -79.2494  -19.2605 C.ar      1 MOL     0.0723
     17 C         -12.2982  -79.8270  -18.5853 C.2       1 MOL     0.2495
     18 C         -14.1557  -81.4443  -18.6275 C.3       1 MOL     0.1268
     19 C         -15.1372  -82.0136  -19.6292 C.3       1 MOL     0.1265
     20 C         -13.6788  -81.4439  -21.5499 C.3       1 MOL     0.1265
     21 C         -12.5564  -81.2990  -20.5547 C.3       1 MOL     0.1268
     22 C         -16.0024  -80.5596  -21.4531 C.2       1 MOL     0.2187
     23 C         -17.3418  -80.3306  -20.9047 C.3       1 MOL     0.0752
     24 C         -18.4712  -81.0892  -21.5645 C.3       1 MOL     0.0134
     25 C         -18.3863  -79.6333  -21.6999 C.3       1 MOL     0.0134
     26 C         -11.3546  -78.1412  -20.0377 C.ar      1 MOL     0.1355
     27 C         -10.2715  -77.5852  -20.6800 C.ar      1 MOL     0.0392
     28 C          -8.9977  -78.1508  -20.5250 C.ar      1 MOL     0.0066
     29 O          -6.6100  -80.4390  -14.1587 O.2       1 MOL    -0.2658
     30 O         -15.7635  -79.9914  -22.5780 O.2       1 MOL    -0.2753
     31 O         -12.6824  -79.4354  -17.4594 O.2       1 MOL    -0.2699
     32 F         -12.6127  -77.6265  -20.1602 F         1 MOL    -0.2047
     33 H          -5.7216  -78.2274  -14.1958 H         1 MOL     0.0625
     34 H          -5.0548  -76.1492  -15.2691 H         1 MOL     0.0618
     35 H          -5.3994  -75.9400  -17.6410 H         1 MOL     0.0618
     36 H          -6.3689  -77.6941  -18.9566 H         1 MOL     0.0624
     37 H          -7.5141  -80.9189  -19.9234 H         1 MOL     0.0377
     38 H          -6.6895  -79.3729  -20.0378 H         1 MOL     0.0377
     39 H          -9.7425  -80.6384  -18.5095 H         1 MOL     0.0629
     40 H         -14.6527  -80.6933  -18.0491 H         1 MOL     0.0480
     41 H         -13.8128  -82.2527  -18.0151 H         1 MOL     0.0480
     42 H         -16.1356  -81.8816  -19.2688 H         1 MOL     0.0480
     43 H         -14.9506  -83.0586  -19.7659 H         1 MOL     0.0480
     44 H         -13.5904  -80.6792  -22.2928 H         1 MOL     0.0480
     45 H         -13.6131  -82.4101  -22.0050 H         1 MOL     0.0480
     46 H         -11.8569  -80.5815  -20.9304 H         1 MOL     0.0480
     47 H         -12.1110  -82.2631  -20.4307 H         1 MOL     0.0480
     48 H         -16.9507  -80.1923  -19.9187 H         1 MOL     0.0394
     49 H         -19.2430  -81.5271  -20.9663 H         1 MOL     0.0273
     50 H         -18.5342  -81.9114  -22.2463 H         1 MOL     0.0273
     51 H         -19.1036  -79.0118  -21.2056 H         1 MOL     0.0273
     52 H         -18.3677  -78.9610  -22.5311 H         1 MOL     0.0273
     53 H         -10.3974  -76.7514  -21.2759 H         1 MOL     0.0646
     54 H          -8.2026  -77.7145  -21.0180 H         1 MOL     0.0621
     55 H          -7.5701  -82.1315  -15.7620 H         1 MOL     0.1921
@<TRIPOS>BOND
     1    1   18 1 
     2    1   21 1 
     3    1   17 am
     4    2   20 1 
     5    2   22 am
     6    2   19 1 
     7    3    4 ar
     8    3   12 ar
     9    4   55 1 
    10    4    5 ar
    11    5    6 ar
    12    5   29 2 
    13    6    7 ar
    14    6   11 ar
    15    7    8 ar
    16    7   33 1 
    17    8    9 ar
    18    8   34 1 
    19    9   10 ar
    20    9   35 1 
    21   10   11 ar
    22   10   36 1 
    23   11   12 ar
    24   12   13 1 
    25   13   14 1 
    26   13   37 1 
    27   13   38 1 
    28   14   15 ar
    29   14   28 ar
    30   15   16 ar
    31   15   39 1 
    32   16   17 1 
    33   16   26 ar
    34   17   31 2 
    35   18   19 1 
    36   18   40 1 
    37   18   41 1 
    38   19   42 1 
    39   19   43 1 
    40   20   21 1 
    41   20   44 1 
    42   20   45 1 
    43   21   46 1 
    44   21   47 1 
    45   22   23 1 
    46   22   30 2 
    47   23   24 1 
    48   23   25 1 
    49   23   48 1 
    50   24   25 1 
    51   24   49 1 
    52   24   50 1 
    53   25   51 1 
    54   25   52 1 
    55   26   27 ar
    56   26   32 1 
    57   27   28 ar
    58   27   53 1 
    59   28   54 1 
@<TRIPOS>SUBSTRUCTURE
1 MOL         1
@<TRIPOS>MOLECULE
query molecule
   55    59     1     0     0
SMALL
NO_CHARGE

@<TRIPOS>ATOM
      1 N         -23.1308  -80.2407    7.1946 N.am      1 MOL    -0.2945
      2 N         -22.2036  -81.8451    9.0152 N.am      1 MOL    -0.2983
      3 N         -17.9843  -81.4074    5.2868 N.ar      1 MOL    -0.1750
      4 N         -17.0562  -81.3516    6.2110 N.ar      1 MOL    -0.2425
      5 C         -16.0863  -80.4264    6.2239 C.ar      1 MOL     0.2725
      6 C         -16.0562  -79.4825    5.2180 C.ar      1 MOL     0.0496
      7 C         -15.0572  -78.5094    5.1725 C.ar      1 MOL     0.0138
      8 C         -15.0346  -77.5897    4.1463 C.ar      1 MOL     0.0008
      9 C         -16.0287  -77.6888    3.1959 C.ar      1 MOL     0.0007
     10 C         -17.0258  -78.6493    3.2283 C.ar      1 MOL     0.0103
     11 C         -17.0406  -79.5530    4.2495 C.ar      1 MOL     0.0106
     12 C         -18.0229  -80.5067    4.2570 C.ar      1 MOL     0.0736
     13 C         -19.1432  -80.6386    3.3348 C.3       1 MOL     0.0925
     14 C         -20.2545  -79.7284    3.7272 C.ar      1 MOL    -0.0406
     15 C         -21.2473  -80.3011    4.5420 C.ar      1 MOL     0.0196
     16 C         -22.3194  -79.5431    4.9480 C.ar      1 MOL     0.0723
     17 C         -23.3823  -80.1181    5.8030 C.2       1 MOL     0.2495
     18 C         -24.1333  -80.7859    8.0518 C.3       1 MOL     0.1268
     19 C         -23.5534  -81.4284    9.2936 C.3       1 MOL     0.1265
     20 C         -21.2389  -80.7929    8.6769 C.3       1 MOL     0.1265
     21 C         -21.8491  -79.8044    7.7168 C.3       1 MOL     0.1268
     22 C         -21.8075  -83.1850    9.0581 C.2       1 MOL     0.2187
     23 C         -22.6507  -84.3438    9.3637 C.3       1 MOL     0.0752
     24 C         -23.5757  -84.8051    8.2602 C.3       1 MOL     0.0134
     25 C         -24.1265  -84.2084    9.4790 C.3       1 MOL     0.0134
     26 C         -22.4859  -78.2240    4.5985 C.ar      1 MOL     0.1355
     27 C         -21.5135  -77.6645    3.8008 C.ar      1 MOL     0.0392
     28 C         -20.4188  -78.4353    3.3839 C.ar      1 MOL     0.0066
     29 O         -15.1886  -80.3559    7.1020 O.2       1 MOL    -0.2658
     30 O         -20.5783  -83.4500    8.8050 O.2       1 MOL    -0.2753
     31 O         -24.4830  -80.4940    5.3383 O.2       1 MOL    -0.2699
     32 F         -23.5695  -77.5134    5.0270 F         1 MOL    -0.2047
     33 H         -14.3345  -78.4776    5.9085 H         1 MOL     0.0625
     34 H         -14.3069  -76.8611    4.0915 H         1 MOL     0.0618
     35 H         -16.0293  -77.0108    2.4184 H         1 MOL     0.0618
     36 H         -17.7476  -78.6811    2.4912 H         1 MOL     0.0624
     37 H         -19.4942  -81.6494    3.3491 H         1 MOL     0.0377
     38 H         -18.8138  -80.3749    2.3513 H         1 MOL     0.0377
     39 H         -21.1713  -81.2878    4.8339 H         1 MOL     0.0629
     40 H         -24.6834  -81.5257    7.5081 H         1 MOL     0.0480
     41 H         -24.7616  -79.9790    8.3684 H         1 MOL     0.0480
     42 H         -24.1430  -82.2779    9.5674 H         1 MOL     0.0480
     43 H         -23.5574  -80.7257   10.1009 H         1 MOL     0.0480
     44 H         -20.3774  -81.2367    8.2238 H         1 MOL     0.0480
     45 H         -20.9609  -80.2770    9.5722 H         1 MOL     0.0480
     46 H         -21.1768  -79.6657    6.8960 H         1 MOL     0.0480
     47 H         -22.0150  -78.8953    8.2545 H         1 MOL     0.0480
     48 H         -21.8975  -84.7674    9.9943 H         1 MOL     0.0394
     49 H         -23.7034  -85.8506    8.0710 H         1 MOL     0.0273
     50 H         -23.6626  -84.6057    7.2125 H         1 MOL     0.0273
     51 H         -24.6634  -84.8204   10.1734 H         1 MOL     0.0273
     52 H         -24.7885  -83.3924    9.6771 H         1 MOL     0.0273
     53 H         -21.5904  -76.6767    3.5098 H         1 MOL     0.0646
     54 H         -19.7040  -77.9915    2.7859 H         1 MOL     0.0621
     55 H         -17.0728  -82.0225    6.9317 H         1 MOL     0.1921
@<TRIPOS>BOND
     1    1   18 1 
     2    1   21 1 
     3    1   17 am
     4    2   20 1 
     5    2   22 am
     6    2   19 1 
     7    3    4 ar
     8    3   12 ar
     9    4   55 1 
    10    4    5 ar
    11    5    6 ar
    12    5   29 2 
    13    6    7 ar
    14    6   11 ar
    15    7    8 ar
    16    7   33 1 
    17    8    9 ar
    18    8   34 1 
    19    9   10 ar
    20    9   35 1 
    21   10   11 ar
    22   10   36 1 
    23   11   12 ar
    24   12   13 1 
    25   13   14 1 
    26   13   37 1 
    27   13   38 1 
    28   14   15 ar
    29   14   28 ar
    30   15   16 ar
    31   15   39 1 
    32   16   17 1 
    33   16   26 ar
    34   17   31 2 
    35   18   19 1 
    36   18   40 1 
    37   18   41 1 
    38   19   42 1 
    39   19   43 1 
    40   20   21 1 
    41   20   44 1 
    42   20   45 1 
    43   21   46 1 
    44   21   47 1 
    45   22   23 1 
    46   22   30 2 
    47   23   24 1 
    48   23   25 1 
    49   23   48 1 
    50   24   25 1 
    51   24   49 1 
    52   24   50 1 
    53   25   51 1 
    54   25   52 1 
    55   26   27 ar
    56   26   32 1 
    57   27   28 ar
    58   27   53 1 
    59   28   54 1 
@<TRIPOS>SUBSTRUCTURE
1 MOL         1
@<TRIPOS>MOLECULE
query molecule
   55    59     1     0     0
SMALL
NO_CHARGE

@<TRIPOS>ATOM
      1 N         -61.6773  -55.6428   27.0299 N.am      1 MOL    -0.2945
      2 N         -60.6586  -53.9305   25.3630 N.am      1 MOL    -0.2983
      3 N         -61.6673  -61.3310   29.9076 N.ar      1 MOL    -0.1750
      4 N         -62.4964  -61.8191   30.7981 N.ar      1 MOL    -0.2425
      5 C         -63.5613  -62.5678   30.4785 C.ar      1 MOL     0.2725
      6 C         -63.8042  -62.8426   29.1484 C.ar      1 MOL     0.0496
      7 C         -64.9095  -63.6001   28.7592 C.ar      1 MOL     0.0138
      8 C         -65.1442  -63.8441   27.4232 C.ar      1 MOL     0.0008
      9 C         -64.2476  -63.3085   26.5229 C.ar      1 MOL     0.0007
     10 C         -63.1469  -62.5549   26.8949 C.ar      1 MOL     0.0103
     11 C         -62.9224  -62.3214   28.2196 C.ar      1 MOL     0.0106
     12 C         -61.8397  -61.5598   28.5692 C.ar      1 MOL     0.0736
     13 C         -60.8116  -61.0170   27.6909 C.3       1 MOL     0.0925
     14 C         -60.2804  -59.7367   28.2351 C.ar      1 MOL    -0.0406
     15 C         -61.1065  -58.6130   28.0549 C.ar      1 MOL     0.0196
     16 C         -60.6979  -57.3837   28.5140 C.ar      1 MOL     0.0723
     17 C         -61.5432  -56.1816   28.3364 C.2       1 MOL     0.2495
     18 C         -62.4878  -54.4873   26.8183 C.3       1 MOL     0.1268
     19 C         -62.0554  -53.6841   25.6104 C.3       1 MOL     0.1265
     20 C         -60.2747  -55.3065   25.0297 C.3       1 MOL     0.1265
     21 C         -60.9810  -56.2861   25.9312 C.3       1 MOL     0.1268
     22 C         -59.6942  -52.9208   25.4327 C.2       1 MOL     0.2187
     23 C         -59.9167  -51.5111   25.7649 C.3       1 MOL     0.0752
     24 C         -61.2953  -50.9656   25.4681 C.3       1 MOL     0.0134
     25 C         -60.1393  -50.4988   24.6993 C.3       1 MOL     0.0134
     26 C         -59.4999  -57.1786   29.1564 C.ar      1 MOL     0.1355
     27 C         -58.6921  -58.2793   29.3323 C.ar      1 MOL     0.0392
     28 C         -59.1055  -59.5349   28.8642 C.ar      1 MOL     0.0066
     29 O         -64.3667  -63.0457   31.3180 O.2       1 MOL    -0.2658
     30 O         -58.4778  -53.2424   25.1834 O.2       1 MOL    -0.2753
     31 O         -62.1359  -55.6342   29.2944 O.2       1 MOL    -0.2699
     32 F         -59.1387  -55.9372   29.5935 F         1 MOL    -0.2047
     33 H         -65.5520  -63.9788   29.4725 H         1 MOL     0.0625
     34 H         -65.9538  -64.4013   27.1112 H         1 MOL     0.0618
     35 H         -64.4056  -63.4782   25.5177 H         1 MOL     0.0618
     36 H         -62.5054  -62.1755   26.1808 H         1 MOL     0.0624
     37 H         -61.2325  -60.8405   26.7230 H         1 MOL     0.0377
     38 H         -60.0086  -61.7211   27.6228 H         1 MOL     0.0377
     39 H         -62.0167  -58.7110   27.5790 H         1 MOL     0.0629
     40 H         -62.4267  -53.8627   27.6852 H         1 MOL     0.0480
     41 H         -63.4891  -54.8227   26.6422 H         1 MOL     0.0480
     42 H         -62.2094  -52.6422   25.7979 H         1 MOL     0.0480
     43 H         -62.6321  -53.9742   24.7568 H         1 MOL     0.0480
     44 H         -59.2175  -55.4169   25.1508 H         1 MOL     0.0480
     45 H         -60.5533  -55.5080   24.0164 H         1 MOL     0.0480
     46 H         -60.2565  -56.9614   26.3364 H         1 MOL     0.0480
     47 H         -61.7138  -56.7943   25.3413 H         1 MOL     0.0480
     48 H         -59.2508  -51.5684   26.6001 H         1 MOL     0.0394
     49 H         -61.7736  -50.3108   26.1665 H         1 MOL     0.0273
     50 H         -62.2438  -51.3968   25.2241 H         1 MOL     0.0273
     51 H         -59.7817  -49.4992   24.8333 H         1 MOL     0.0273
     52 H         -59.9075  -50.4484   23.6567 H         1 MOL     0.0273
     53 H         -57.7817  -58.1800   29.8092 H         1 MOL     0.0646
     54 H         -58.4807  -60.3437   29.0086 H         1 MOL     0.0621
     55 H         -62.3279  -61.6265   31.7491 H         1 MOL     0.1921
@<TRIPOS>BOND
     1    1   18 1 
     2    1   21 1 
     3    1   17 am
     4    2   20 1 
     5    2   22 am
     6    2   19 1 
     7    3    4 ar
     8    3   12 ar
     9    4   55 1 
    10    4    5 ar
    11    5    6 ar
    12    5   29 2 
    13    6    7 ar
    14    6   11 ar
    15    7    8 ar
    16    7   33 1 
    17    8    9 ar
    18    8   34 1 
    19    9   10 ar
    20    9   35 1 
    21   10   11 ar
    22   10   36 1 
    23   11   12 ar
    24   12   13 1 
    25   13   14 1 
    26   13   37 1 
    27   13   38 1 
    28   14   15 ar
    29   14   28 ar
    30   15   16 ar
    31   15   39 1 
    32   16   17 1 
    33   16   26 ar
    34   17   31 2 
    35   18   19 1 
    36   18   40 1 
    37   18   41 1 
    38   19   42 1 
    39   19   43 1 
    40   20   21 1 
    41   20   44 1 
    42   20   45 1 
    43   21   46 1 
    44   21   47 1 
    45   22   23 1 
    46   22   30 2 
    47   23   24 1 
    48   23   25 1 
    49   23   48 1 
    50   24   25 1 
    51   24   49 1 
    52   24   50 1 
    53   25   51 1 
    54   25   52 1 
    55   26   27 ar
    56   26   32 1 
    57   27   28 ar
    58   27   53 1 
    59   28   54 1 
@<TRIPOS>SUBSTRUCTURE
1 MOL         1
@<TRIPOS>MOLECULE
query molecule
   55    59     1     0     0
SMALL
NO_CHARGE

@<TRIPOS>ATOM
      1 N         -64.9324  -53.9952  -23.1436 N.am      1 MOL    -0.2945
      2 N         -64.0138  -56.3793  -23.6135 N.am      1 MOL    -0.2983
      3 N         -63.3570  -54.0304  -27.8435 N.ar      1 MOL    -0.1750
      4 N         -62.2578  -54.7429  -27.7904 N.ar      1 MOL    -0.2425
      5 C         -61.0557  -54.2672  -28.1448 C.ar      1 MOL     0.2725
      6 C         -60.9623  -52.9643  -28.5890 C.ar      1 MOL     0.0496
      7 C         -59.7390  -52.4254  -28.9893 C.ar      1 MOL     0.0138
      8 C         -59.6730  -51.1280  -29.4497 C.ar      1 MOL     0.0008
      9 C         -60.8544  -50.4182  -29.4906 C.ar      1 MOL     0.0007
     10 C         -62.0752  -50.9403  -29.0971 C.ar      1 MOL     0.0103
     11 C         -62.1291  -52.2243  -28.6405 C.ar      1 MOL     0.0106
     12 C         -63.3466  -52.7306  -28.2720 C.ar      1 MOL     0.0736
     13 C         -64.6236  -52.0309  -28.2203 C.3       1 MOL     0.0925
     14 C         -64.8741  -51.4988  -26.8523 C.ar      1 MOL    -0.0406
     15 C         -65.2416  -52.4547  -25.8885 C.ar      1 MOL     0.0196
     16 C         -65.5037  -52.0591  -24.5987 C.ar      1 MOL     0.0723
     17 C         -65.8961  -53.0409  -23.5626 C.2       1 MOL     0.2495
     18 C         -65.2720  -54.9548  -22.1432 C.3       1 MOL     0.1268
     19 C         -64.4565  -56.2253  -22.2521 C.3       1 MOL     0.1265
     20 C         -63.1247  -55.3407  -24.1453 C.3       1 MOL     0.1265
     21 C         -63.6132  -53.9715  -23.7477 C.3       1 MOL     0.1268
     22 C         -64.4011  -57.4598  -24.4113 C.2       1 MOL     0.2187
     23 C         -65.2890  -58.5620  -24.0316 C.3       1 MOL     0.0752
     24 C         -65.8182  -58.5344  -22.6156 C.3       1 MOL     0.0134
     25 C         -64.8691  -59.5720  -23.0250 C.3       1 MOL     0.0134
     26 C         -65.4264  -50.7518  -24.1804 C.ar      1 MOL     0.1355
     27 C         -65.0667  -49.8169  -25.1246 C.ar      1 MOL     0.0392
     28 C         -64.7995  -50.2170  -26.4417 C.ar      1 MOL     0.0066
     29 O         -59.9905  -54.9344  -28.0996 O.2       1 MOL    -0.2658
     30 O         -63.9417  -57.5101  -25.6078 O.2       1 MOL    -0.2753
     31 O         -67.0397  -53.0522  -23.0521 O.2       1 MOL    -0.2699
     32 F         -65.6974  -50.4091  -22.8874 F         1 MOL    -0.2047
     33 H         -58.8822  -52.9985  -28.9399 H         1 MOL     0.0625
     34 H         -58.7808  -50.7077  -29.7506 H         1 MOL     0.0618
     35 H         -60.8274  -49.4456  -29.8334 H         1 MOL     0.0618
     36 H         -62.9319  -50.3668  -29.1478 H         1 MOL     0.0624
     37 H         -65.4081  -52.7094  -28.4833 H         1 MOL     0.0377
     38 H         -64.5965  -51.2115  -28.9082 H         1 MOL     0.0377
     39 H         -65.3145  -53.4504  -26.1491 H         1 MOL     0.0629
     40 H         -66.3083  -55.2028  -22.2444 H         1 MOL     0.0480
     41 H         -65.0615  -54.5160  -21.1897 H         1 MOL     0.0480
     42 H         -65.0589  -57.0639  -21.9726 H         1 MOL     0.0480
     43 H         -63.6104  -56.1700  -21.5990 H         1 MOL     0.0480
     44 H         -63.1013  -55.4090  -25.2127 H         1 MOL     0.0480
     45 H         -62.1433  -55.4862  -23.7444 H         1 MOL     0.0480
     46 H         -63.6502  -53.3549  -24.6215 H         1 MOL     0.0480
     47 H         -62.9332  -53.5878  -23.0173 H         1 MOL     0.0480
     48 H         -65.6841  -58.6293  -25.0234 H         1 MOL     0.0394
     49 H         -66.8391  -58.7894  -22.4207 H         1 MOL     0.0273
     50 H         -65.8524  -57.8041  -21.8342 H         1 MOL     0.0273
     51 H         -65.1993  -60.5854  -23.1198 H         1 MOL     0.0273
     52 H         -63.9246  -59.9081  -22.6532 H         1 MOL     0.0273
     53 H         -64.9936  -48.8209  -24.8624 H         1 MOL     0.0646
     54 H         -64.5322  -49.4958  -27.1302 H         1 MOL     0.0621
     55 H         -62.3184  -55.6734  -27.4738 H         1 MOL     0.1921
@<TRIPOS>BOND
     1    1   18 1 
     2    1   21 1 
     3    1   17 am
     4    2   20 1 
     5    2   22 am
     6    2   19 1 
     7    3    4 ar
     8    3   12 ar
     9    4   55 1 
    10    4    5 ar
    11    5    6 ar
    12    5   29 2 
    13    6    7 ar
    14    6   11 ar
    15    7    8 ar
    16    7   33 1 
    17    8    9 ar
    18    8   34 1 
    19    9   10 ar
    20    9   35 1 
    21   10   11 ar
    22   10   36 1 
    23   11   12 ar
    24   12   13 1 
    25   13   14 1 
    26   13   37 1 
    27   13   38 1 
    28   14   15 ar
    29   14   28 ar
    30   15   16 ar
    31   15   39 1 
    32   16   17 1 
    33   16   26 ar
    34   17   31 2 
    35   18   19 1 
    36   18   40 1 
    37   18   41 1 
    38   19   42 1 
    39   19   43 1 
    40   20   21 1 
    41   20   44 1 
    42   20   45 1 
    43   21   46 1 
    44   21   47 1 
    45   22   23 1 
    46   22   30 2 
    47   23   24 1 
    48   23   25 1 
    49   23   48 1 
    50   24   25 1 
    51   24   49 1 
    52   24   50 1 
    53   25   51 1 
    54   25   52 1 
    55   26   27 ar
    56   26   32 1 
    57   27   28 ar
    58   27   53 1 
    59   28   54 1 
@<TRIPOS>SUBSTRUCTURE
1 MOL         1
@<TRIPOS>MOLECULE
query molecule
   55    59     1     0     0
SMALL
NO_CHARGE

@<TRIPOS>ATOM
      1 N         -67.1248  -75.7790  -15.4359 N.am      1 MOL    -0.2945
      2 N         -66.8200  -78.2627  -14.7382 N.am      1 MOL    -0.2983
      3 N         -66.7298  -77.0870  -22.2181 N.ar      1 MOL    -0.1750
      4 N         -66.0156  -78.1269  -22.5748 N.ar      1 MOL    -0.2425
      5 C         -66.1544  -79.3392  -22.0201 C.ar      1 MOL     0.2725
      6 C         -67.0931  -79.5094  -21.0233 C.ar      1 MOL     0.0496
      7 C         -67.2648  -80.7452  -20.3984 C.ar      1 MOL     0.0138
      8 C         -68.1938  -80.8865  -19.3902 C.ar      1 MOL     0.0008
      9 C         -68.9195  -79.7654  -19.0470 C.ar      1 MOL     0.0007
     10 C         -68.7594  -78.5331  -19.6582 C.ar      1 MOL     0.0103
     11 C         -67.8392  -78.4046  -20.6565 C.ar      1 MOL     0.0106
     12 C         -67.6811  -77.1752  -21.2381 C.ar      1 MOL     0.0736
     13 C         -68.4498  -75.9639  -20.9833 C.3       1 MOL     0.0925
     14 C         -67.7748  -75.1214  -19.9578 C.ar      1 MOL    -0.0406
     15 C         -68.1380  -75.3829  -18.6246 C.ar      1 MOL     0.0196
     16 C         -67.5764  -74.6497  -17.6069 C.ar      1 MOL     0.0723
     17 C         -67.9407  -74.8988  -16.1939 C.2       1 MOL     0.2495
     18 C         -67.4414  -76.0401  -14.0689 C.3       1 MOL     0.1268
     19 C         -66.9380  -77.3885  -13.6003 C.3       1 MOL     0.1265
     20 C         -65.8662  -77.8712  -15.7817 C.3       1 MOL     0.1265
     21 C         -65.9780  -76.3972  -16.0748 C.3       1 MOL     0.1268
     22 C         -67.5704  -79.4353  -14.8652 C.2       1 MOL     0.2187
     23 C         -68.5667  -79.9504  -13.9221 C.3       1 MOL     0.0752
     24 C         -68.9670  -81.3976  -14.0994 C.3       1 MOL     0.0134
     25 C         -69.9296  -80.3296  -14.3786 C.3       1 MOL     0.0134
     26 C         -66.6563  -73.6500  -17.8163 C.ar      1 MOL     0.1355
     27 C         -66.3016  -73.3948  -19.1217 C.ar      1 MOL     0.0392
     28 C         -66.8734  -74.1403  -20.1626 C.ar      1 MOL     0.0066
     29 O         -65.4799  -80.3484  -22.3495 O.2       1 MOL    -0.2658
     30 O         -67.3823  -80.1510  -15.9128 O.2       1 MOL    -0.2753
     31 O         -68.9358  -74.3611  -15.6558 O.2       1 MOL    -0.2699
     32 F         -66.1275  -72.9493  -16.7712 F         1 MOL    -0.2047
     33 H         -66.6959  -81.5547  -20.6918 H         1 MOL     0.0625
     34 H         -68.3390  -81.7895  -18.9140 H         1 MOL     0.0618
     35 H         -69.6193  -79.8492  -18.2938 H         1 MOL     0.0618
     36 H         -69.3279  -77.7236  -19.3635 H         1 MOL     0.0624
     37 H         -69.4244  -76.2324  -20.6326 H         1 MOL     0.0377
     38 H         -68.5245  -75.4047  -21.8927 H         1 MOL     0.0377
     39 H         -68.8245  -76.1230  -18.4111 H         1 MOL     0.0629
     40 H         -68.5050  -76.0118  -13.9523 H         1 MOL     0.0480
     41 H         -66.9584  -75.2907  -13.4764 H         1 MOL     0.0480
     42 H         -67.6278  -77.8048  -12.8967 H         1 MOL     0.0480
     43 H         -65.9839  -77.2753  -13.1288 H         1 MOL     0.0480
     44 H         -66.0734  -78.4236  -16.6742 H         1 MOL     0.0480
     45 H         -64.8739  -78.0803  -15.4401 H         1 MOL     0.0480
     46 H         -66.0659  -76.2649  -17.1331 H         1 MOL     0.0480
     47 H         -65.1012  -75.9252  -15.6854 H         1 MOL     0.0480
     48 H         -68.1999  -79.3205  -13.1391 H         1 MOL     0.0394
     49 H         -69.0976  -82.0255  -13.2427 H         1 MOL     0.0273
     50 H         -68.5771  -82.2292  -14.6484 H         1 MOL     0.0273
     51 H         -70.7667  -80.1864  -13.7277 H         1 MOL     0.0273
     52 H         -70.5336  -80.0712  -15.2222 H         1 MOL     0.0273
     53 H         -65.6140  -72.6543  -19.3340 H         1 MOL     0.0646
     54 H         -66.5903  -73.9285  -21.1325 H         1 MOL     0.0621
     55 H         -65.3442  -78.0115  -23.2860 H         1 MOL     0.1921
@<TRIPOS>BOND
     1    1   18 1 
     2    1   21 1 
     3    1   17 am
     4    2   20 1 
     5    2   22 am
     6    2   19 1 
     7    3    4 ar
     8    3   12 ar
     9    4   55 1 
    10    4    5 ar
    11    5    6 ar
    12    5   29 2 
    13    6    7 ar
    14    6   11 ar
    15    7    8 ar
    16    7   33 1 
    17    8    9 ar
    18    8   34 1 
    19    9   10 ar
    20    9   35 1 
    21   10   11 ar
    22   10   36 1 
    23   11   12 ar
    24   12   13 1 
    25   13   14 1 
    26   13   37 1 
    27   13   38 1 
    28   14   15 ar
    29   14   28 ar
    30   15   16 ar
    31   15   39 1 
    32   16   17 1 
    33   16   26 ar
    34   17   31 2 
    35   18   19 1 
    36   18   40 1 
    37   18   41 1 
    38   19   42 1 
    39   19   43 1 
    40   20   21 1 
    41   20   44 1 
    42   20   45 1 
    43   21   46 1 
    44   21   47 1 
    45   22   23 1 
    46   22   30 2 
    47   23   24 1 
    48   23   25 1 
    49   23   48 1 
    50   24   25 1 
    51   24   49 1 
    52   24   50 1 
    53   25   51 1 
    54   25   52 1 
    55   26   27 ar
    56   26   32 1 
    57   27   28 ar
    58   27   53 1 
    59   28   54 1 
@<TRIPOS>SUBSTRUCTURE
1 MOL         1
@<TRIPOS>MOLECULE
query molecule
   55    59     1     0     0
SMALL
NO_CHARGE

@<TRIPOS>ATOM
      1 N          -5.9853  -76.6188   29.5086 N.am      1 MOL    -0.2945
      2 N          -4.6207  -74.7125   28.3895 N.am      1 MOL    -0.2983
      3 N          -9.4149  -79.5842   26.1518 N.ar      1 MOL    -0.1750
      4 N         -10.0601  -78.5612   25.6459 N.ar      1 MOL    -0.2425
      5 C         -11.0358  -77.9125   26.2971 C.ar      1 MOL     0.2725
      6 C         -11.3847  -78.3366   27.5628 C.ar      1 MOL     0.0496
      7 C         -12.4068  -77.7098   28.2767 C.ar      1 MOL     0.0138
      8 C         -12.7527  -78.1642   29.5310 C.ar      1 MOL     0.0008
      9 C         -12.0491  -79.2441   30.0209 C.ar      1 MOL     0.0007
     10 C         -11.0331  -79.8759   29.3235 C.ar      1 MOL     0.0103
     11 C         -10.6968  -79.4168   28.0842 C.ar      1 MOL     0.0106
     12 C          -9.7021  -80.0637   27.4011 C.ar      1 MOL     0.0736
     13 C          -8.8678  -81.1620   27.8710 C.3       1 MOL     0.0925
     14 C          -7.4683  -80.7013   28.0868 C.ar      1 MOL    -0.0406
     15 C          -7.3205  -79.5908   28.9368 C.ar      1 MOL     0.0196
     16 C          -6.0678  -79.0853   29.1893 C.ar      1 MOL     0.0723
     17 C          -5.8799  -77.9154   30.0767 C.2       1 MOL     0.2495
     18 C          -5.8152  -75.4664   30.3334 C.3       1 MOL     0.1268
     19 C          -5.3293  -74.2604   29.5585 C.3       1 MOL     0.1265
     20 C          -5.3868  -75.4823   27.4035 C.3       1 MOL     0.1265
     21 C          -6.2663  -76.4952   28.0904 C.3       1 MOL     0.1268
     22 C          -3.2646  -74.4433   28.1828 C.2       1 MOL     0.2187
     23 C          -2.3666  -73.7054   29.0750 C.3       1 MOL     0.0752
     24 C          -3.0302  -72.8380   30.1207 C.3       1 MOL     0.0134
     25 C          -2.2827  -72.2222   29.0221 C.3       1 MOL     0.0134
     26 C          -4.9188  -79.6122   28.6488 C.ar      1 MOL     0.1355
     27 C          -5.0646  -80.6992   27.8169 C.ar      1 MOL     0.0392
     28 C          -6.3415  -81.2169   27.5563 C.ar      1 MOL     0.0066
     29 O         -11.6649  -76.9290   25.8293 O.2       1 MOL    -0.2658
     30 O          -2.7296  -74.8813   27.1024 O.2       1 MOL    -0.2753
     31 O          -5.6342  -78.0366   31.2989 O.2       1 MOL    -0.2699
     32 F          -3.6968  -79.0733   28.9300 F         1 MOL    -0.2047
     33 H         -12.9041  -76.9045   27.8654 H         1 MOL     0.0625
     34 H         -13.5040  -77.7172   30.0778 H         1 MOL     0.0618
     35 H         -12.2931  -79.6009   30.9576 H         1 MOL     0.0618
     36 H         -10.5369  -80.6820   29.7351 H         1 MOL     0.0624
     37 H          -8.8723  -81.9448   27.1415 H         1 MOL     0.0377
     38 H          -9.2591  -81.5197   28.8006 H         1 MOL     0.0377
     39 H          -8.1505  -79.1564   29.3694 H         1 MOL     0.0629
     40 H          -5.1005  -75.6942   31.0968 H         1 MOL     0.0480
     41 H          -6.7716  -75.2212   30.7473 H         1 MOL     0.0480
     42 H          -4.6754  -73.6782   30.1730 H         1 MOL     0.0480
     43 H          -6.1636  -73.6568   29.2666 H         1 MOL     0.0480
     44 H          -4.7097  -75.9910   26.7497 H         1 MOL     0.0480
     45 H          -6.0055  -74.8113   26.8449 H         1 MOL     0.0480
     46 H          -6.1141  -77.4487   27.6291 H         1 MOL     0.0480
     47 H          -7.2774  -76.1615   27.9920 H         1 MOL     0.0480
     48 H          -1.6370  -74.4869   29.0415 H         1 MOL     0.0394
     49 H          -2.6403  -72.8076   31.1168 H         1 MOL     0.0273
     50 H          -4.0235  -72.7447   30.5076 H         1 MOL     0.0273
     51 H          -1.3509  -71.7355   29.2218 H         1 MOL     0.0273
     52 H          -2.5149  -71.4869   28.2814 H         1 MOL     0.0273
     53 H          -4.2332  -81.1333   27.3851 H         1 MOL     0.0646
     54 H          -6.4229  -82.0324   26.9286 H         1 MOL     0.0621
     55 H          -9.8151  -78.2537   24.7430 H         1 MOL     0.1921
@<TRIPOS>BOND
     1    1   18 1 
     2    1   21 1 
     3    1   17 am
     4    2   20 1 
     5    2   22 am
     6    2   19 1 
     7    3    4 ar
     8    3   12 ar
     9    4   55 1 
    10    4    5 ar
    11    5    6 ar
    12    5   29 2 
    13    6    7 ar
    14    6   11 ar
    15    7    8 ar
    16    7   33 1 
    17    8    9 ar
    18    8   34 1 
    19    9   10 ar
    20    9   35 1 
    21   10   11 ar
    22   10   36 1 
    23   11   12 ar
    24   12   13 1 
    25   13   14 1 
    26   13   37 1 
    27   13   38 1 
    28   14   15 ar
    29   14   28 ar
    30   15   16 ar
    31   15   39 1 
    32   16   17 1 
    33   16   26 ar
    34   17   31 2 
    35   18   19 1 
    36   18   40 1 
    37   18   41 1 
    38   19   42 1 
    39   19   43 1 
    40   20   21 1 
    41   20   44 1 
    42   20   45 1 
    43   21   46 1 
    44   21   47 1 
    45   22   23 1 
    46   22   30 2 
    47   23   24 1 
    48   23   25 1 
    49   23   48 1 
    50   24   25 1 
    51   24   49 1 
    52   24   50 1 
    53   25   51 1 
    54   25   52 1 
    55   26   27 ar
    56   26   32 1 
    57   27   28 ar
    58   27   53 1 
    59   28   54 1 
@<TRIPOS>SUBSTRUCTURE
1 MOL         1
@<TRIPOS>MOLECULE
query molecule
   55    59     1     0     0
SMALL
NO_CHARGE

@<TRIPOS>ATOM
      1 N         -19.4501  -79.6737   28.6627 N.am      1 MOL    -0.2945
      2 N         -19.3340  -78.5513   31.0026 N.am      1 MOL    -0.2983
      3 N         -13.3663  -78.3108   23.8047 N.ar      1 MOL    -0.1750
      4 N         -12.7075  -77.3808   23.1570 N.ar      1 MOL    -0.2425
      5 C         -12.2683  -76.2536   23.7343 C.ar      1 MOL     0.2725
      6 C         -12.5185  -76.0545   25.0765 C.ar      1 MOL     0.0496
      7 C         -12.1013  -74.8900   25.7224 C.ar      1 MOL     0.0138
      8 C         -12.3810  -74.7031   27.0589 C.ar      1 MOL     0.0008
      9 C         -13.0784  -75.7062   27.6981 C.ar      1 MOL     0.0007
     10 C         -13.4988  -76.8666   27.0697 C.ar      1 MOL     0.0103
     11 C         -13.2146  -77.0429   25.7476 C.ar      1 MOL     0.0106
     12 C         -13.6527  -78.1875   25.1374 C.ar      1 MOL     0.0736
     13 C         -14.3318  -79.3207   25.7522 C.3       1 MOL     0.0925
     14 C         -15.8086  -79.1384   25.6982 C.ar      1 MOL    -0.0406
     15 C         -16.5402  -79.8269   26.6823 C.ar      1 MOL     0.0196
     16 C         -17.9108  -79.7294   26.7082 C.ar      1 MOL     0.0723
     17 C         -18.7091  -80.4448   27.7292 C.2       1 MOL     0.2495
     18 C         -20.2355  -80.3277   29.6589 C.3       1 MOL     0.1268
     19 C         -20.4280  -79.4816   30.8991 C.3       1 MOL     0.1265
     20 C         -19.1913  -77.5694   29.9221 C.3       1 MOL     0.1265
     21 C         -19.3910  -78.2262   28.5804 C.3       1 MOL     0.1268
     22 C         -18.4357  -78.5648   32.0736 C.2       1 MOL     0.2187
     23 C         -18.4373  -79.4856   33.2135 C.3       1 MOL     0.0752
     24 C         -17.6825  -80.7820   33.0246 C.3       1 MOL     0.0134
     25 C         -19.1424  -80.7922   33.1420 C.3       1 MOL     0.0134
     26 C         -18.6308  -78.9799   25.8083 C.ar      1 MOL     0.1355
     27 C         -17.9137  -78.3065   24.8454 C.ar      1 MOL     0.0392
     28 C         -16.5152  -78.4045   24.8155 C.ar      1 MOL     0.0066
     29 O         -11.6339  -75.3511   23.1303 O.2       1 MOL    -0.2658
     30 O         -17.5018  -77.6856   32.0773 O.2       1 MOL    -0.2753
     31 O         -18.7482  -81.6951   27.7910 O.2       1 MOL    -0.2699
     32 F         -19.9925  -78.9157   25.8755 F         1 MOL    -0.2047
     33 H         -11.5820  -74.1680   25.1990 H         1 MOL     0.0625
     34 H         -12.0828  -73.8514   27.5579 H         1 MOL     0.0618
     35 H         -13.2993  -75.5856   28.6985 H         1 MOL     0.0618
     36 H         -14.0191  -77.5878   27.5936 H         1 MOL     0.0624
     37 H         -14.0243  -79.4037   26.7738 H         1 MOL     0.0377
     38 H         -14.0753  -80.2099   25.2148 H         1 MOL     0.0377
     39 H         -16.0494  -80.4039   27.3827 H         1 MOL     0.0629
     40 H         -19.7464  -81.2381   29.9375 H         1 MOL     0.0480
     41 H         -21.2030  -80.5110   29.2389 H         1 MOL     0.0480
     42 H         -20.4482  -80.1109   31.7638 H         1 MOL     0.0480
     43 H         -21.3535  -78.9481   30.8338 H         1 MOL     0.0480
     44 H         -18.2115  -77.1415   29.9614 H         1 MOL     0.0480
     45 H         -19.9322  -76.8074   30.0464 H         1 MOL     0.0480
     46 H         -18.5759  -77.9547   27.9424 H         1 MOL     0.0480
     47 H         -20.3292  -77.8886   28.1944 H         1 MOL     0.0480
     48 H         -18.4560  -78.6747   33.9110 H         1 MOL     0.0394
     49 H         -17.0789  -81.1704   33.8184 H         1 MOL     0.0273
     50 H         -16.9770  -81.1500   32.3092 H         1 MOL     0.0273
     51 H         -19.6012  -81.1969   34.0199 H         1 MOL     0.0273
     52 H         -19.9367  -81.1804   32.5406 H         1 MOL     0.0273
     53 H         -18.4061  -77.7288   24.1454 H         1 MOL     0.0646
     54 H         -16.0017  -77.8897   24.0828 H         1 MOL     0.0621
     55 H         -12.5257  -77.5176   22.1988 H         1 MOL     0.1921
@<TRIPOS>BOND
     1    1   18 1 
     2    1   21 1 
     3    1   17 am
     4    2   20 1 
     5    2   22 am
     6    2   19 1 
     7    3    4 ar
     8    3   12 ar
     9    4   55 1 
    10    4    5 ar
    11    5    6 ar
    12    5   29 2 
    13    6    7 ar
    14    6   11 ar
    15    7    8 ar
    16    7   33 1 
    17    8    9 ar
    18    8   34 1 
    19    9   10 ar
    20    9   35 1 
    21   10   11 ar
    22   10   36 1 
    23   11   12 ar
    24   12   13 1 
    25   13   14 1 
    26   13   37 1 
    27   13   38 1 
    28   14   15 ar
    29   14   28 ar
    30   15   16 ar
    31   15   39 1 
    32   16   17 1 
    33   16   26 ar
    34   17   31 2 
    35   18   19 1 
    36   18   40 1 
    37   18   41 1 
    38   19   42 1 
    39   19   43 1 
    40   20   21 1 
    41   20   44 1 
    42   20   45 1 
    43   21   46 1 
    44   21   47 1 
    45   22   23 1 
    46   22   30 2 
    47   23   24 1 
    48   23   25 1 
    49   23   48 1 
    50   24   25 1 
    51   24   49 1 
    52   24   50 1 
    53   25   51 1 
    54   25   52 1 
    55   26   27 ar
    56   26   32 1 
    57   27   28 ar
    58   27   53 1 
    59   28   54 1 
@<TRIPOS>SUBSTRUCTURE
1 MOL         1
@<TRIPOS>MOLECULE
query molecule
   55    59     1     0     0
SMALL
NO_CHARGE

@<TRIPOS>ATOM
      1 N         -50.4222  -28.5489   14.9120 N.am      1 MOL    -0.2945
      2 N         -47.8826  -28.3273   15.4115 N.am      1 MOL    -0.2983
      3 N         -51.2418  -34.9528   10.2232 N.ar      1 MOL    -0.1750
      4 N         -50.9865  -35.3606    9.0038 N.ar      1 MOL    -0.2425
      5 C         -50.1662  -34.7091    8.1674 C.ar      1 MOL     0.2725
      6 C         -49.5568  -33.5507    8.6039 C.ar      1 MOL     0.0496
      7 C         -48.7097  -32.8228    7.7674 C.ar      1 MOL     0.0138
      8 C         -48.1287  -31.6569    8.2177 C.ar      1 MOL     0.0008
      9 C         -48.4284  -31.2658    9.5055 C.ar      1 MOL     0.0007
     10 C         -49.2673  -31.9780   10.3463 C.ar      1 MOL     0.0103
     11 C         -49.8351  -33.1316    9.8918 C.ar      1 MOL     0.0106
     12 C         -50.6757  -33.8142   10.7296 C.ar      1 MOL     0.0736
     13 C         -50.9899  -33.5083   12.1192 C.3       1 MOL     0.0925
     14 C         -51.5679  -32.1410   12.2366 C.ar      1 MOL    -0.0406
     15 C         -51.2852  -31.4650   13.4369 C.ar      1 MOL     0.0196
     16 C         -51.7835  -30.2010   13.6432 C.ar      1 MOL     0.0723
     17 C         -51.5064  -29.4651   14.8974 C.2       1 MOL     0.2495
     18 C         -50.1271  -27.8172   16.1014 C.3       1 MOL     0.1268
     19 C         -48.6723  -27.4087   16.1897 C.3       1 MOL     0.1265
     20 C         -48.1496  -28.3783   13.9700 C.3       1 MOL     0.1265
     21 C         -49.6334  -28.3764   13.7063 C.3       1 MOL     0.1268
     22 C         -46.9017  -29.1439   15.9818 C.2       1 MOL     0.2187
     23 C         -46.5304  -29.2179   17.3974 C.3       1 MOL     0.0752
     24 C         -47.6507  -29.5239   18.3655 C.3       1 MOL     0.0134
     25 C         -47.0153  -28.2043   18.3706 C.3       1 MOL     0.0134
     26 C         -52.5616  -29.5378   12.7241 C.ar      1 MOL     0.1355
     27 C         -52.8378  -30.2004   11.5496 C.ar      1 MOL     0.0392
     28 C         -52.3318  -31.4907   11.3363 C.ar      1 MOL     0.0066
     29 O         -49.9080  -35.0850    6.9953 O.2       1 MOL    -0.2658
     30 O         -46.2453  -29.9196   15.1991 O.2       1 MOL    -0.2753
     31 O         -52.1933  -29.6263   15.9322 O.2       1 MOL    -0.2699
     32 F         -53.0336  -28.2823   12.9764 F         1 MOL    -0.2047
     33 H         -48.5173  -33.1579    6.8106 H         1 MOL     0.0625
     34 H         -47.4991  -31.1022    7.6185 H         1 MOL     0.0618
     35 H         -48.0049  -30.3952    9.8618 H         1 MOL     0.0618
     36 H         -49.4602  -31.6415   11.3028 H         1 MOL     0.0624
     37 H         -50.0950  -33.5636   12.7031 H         1 MOL     0.0377
     38 H         -51.7087  -34.2170   12.4748 H         1 MOL     0.0377
     39 H         -50.7054  -31.9170   14.1610 H         1 MOL     0.0629
     40 H         -50.3634  -28.4289   16.9472 H         1 MOL     0.0480
     41 H         -50.7140  -26.9221   16.0842 H         1 MOL     0.0480
     42 H         -48.3532  -27.4349   17.2103 H         1 MOL     0.0480
     43 H         -48.5513  -26.4149   15.8114 H         1 MOL     0.0480
     44 H         -47.7216  -29.2705   13.5633 H         1 MOL     0.0480
     45 H         -47.7163  -27.5165   13.5067 H         1 MOL     0.0480
     46 H         -49.8618  -29.1763   13.0330 H         1 MOL     0.0480
     47 H         -49.8846  -27.4230   13.2927 H         1 MOL     0.0480
     48 H         -45.5629  -29.6064   17.1576 H         1 MOL     0.0394
     49 H         -47.4860  -30.2006   19.1780 H         1 MOL     0.0273
     50 H         -48.6551  -29.8812   18.2727 H         1 MOL     0.0273
     51 H         -46.3938  -27.9181   19.1933 H         1 MOL     0.0273
     52 H         -47.3769  -27.2016   18.2870 H         1 MOL     0.0273
     53 H         -53.4176  -29.7467   10.8256 H         1 MOL     0.0646
     54 H         -52.5541  -31.9654   10.4471 H         1 MOL     0.0621
     55 H         -51.4184  -36.1869    8.6868 H         1 MOL     0.1921
@<TRIPOS>BOND
     1    1   18 1 
     2    1   21 1 
     3    1   17 am
     4    2   20 1 
     5    2   22 am
     6    2   19 1 
     7    3    4 ar
     8    3   12 ar
     9    4   55 1 
    10    4    5 ar
    11    5    6 ar
    12    5   29 2 
    13    6    7 ar
    14    6   11 ar
    15    7    8 ar
    16    7   33 1 
    17    8    9 ar
    18    8   34 1 
    19    9   10 ar
    20    9   35 1 
    21   10   11 ar
    22   10   36 1 
    23   11   12 ar
    24   12   13 1 
    25   13   14 1 
    26   13   37 1 
    27   13   38 1 
    28   14   15 ar
    29   14   28 ar
    30   15   16 ar
    31   15   39 1 
    32   16   17 1 
    33   16   26 ar
    34   17   31 2 
    35   18   19 1 
    36   18   40 1 
    37   18   41 1 
    38   19   42 1 
    39   19   43 1 
    40   20   21 1 
    41   20   44 1 
    42   20   45 1 
    43   21   46 1 
    44   21   47 1 
    45   22   23 1 
    46   22   30 2 
    47   23   24 1 
    48   23   25 1 
    49   23   48 1 
    50   24   25 1 
    51   24   49 1 
    52   24   50 1 
    53   25   51 1 
    54   25   52 1 
    55   26   27 ar
    56   26   32 1 
    57   27   28 ar
    58   27   53 1 
    59   28   54 1 
@<TRIPOS>SUBSTRUCTURE
1 MOL         1
@<TRIPOS>MOLECULE
query molecule
   55    59     1     0     0
SMALL
NO_CHARGE

@<TRIPOS>ATOM
      1 N         -66.1911  -58.8693   16.8326 N.am      1 MOL    -0.2945
      2 N         -66.0312  -60.7958   18.5679 N.am      1 MOL    -0.2983
      3 N         -69.6887  -56.5151   20.0560 N.ar      1 MOL    -0.1750
      4 N         -70.5043  -57.3181   20.6952 N.ar      1 MOL    -0.2425
      5 C         -70.9067  -57.1057   21.9561 C.ar      1 MOL     0.2725
      6 C         -70.4438  -55.9890   22.6212 C.ar      1 MOL     0.0496
      7 C         -70.8152  -55.7309   23.9413 C.ar      1 MOL     0.0138
      8 C         -70.3234  -54.6205   24.5929 C.ar      1 MOL     0.0008
      9 C         -69.4669  -53.8066   23.8822 C.ar      1 MOL     0.0007
     10 C         -69.0896  -54.0507   22.5722 C.ar      1 MOL     0.0103
     11 C         -69.5839  -55.1508   21.9357 C.ar      1 MOL     0.0106
     12 C         -69.1871  -55.3870   20.6468 C.ar      1 MOL     0.0736
     13 C         -68.3448  -54.5463   19.8060 C.3       1 MOL     0.0925
     14 C         -68.2730  -55.0937   18.4231 C.ar      1 MOL    -0.0406
     15 C         -67.2161  -55.9890   18.1802 C.ar      1 MOL     0.0196
     16 C         -67.0603  -56.5396   16.9307 C.ar      1 MOL     0.0723
     17 C         -65.9558  -57.4823   16.6429 C.2       1 MOL     0.2495
     18 C         -65.1521  -59.8093   16.5610 C.3       1 MOL     0.1268
     19 C         -65.2922  -61.0833   17.3661 C.3       1 MOL     0.1265
     20 C         -67.4114  -60.3265   18.4039 C.3       1 MOL     0.1265
     21 C         -67.4944  -59.3018   17.3019 C.3       1 MOL     0.1268
     22 C         -65.4794  -60.9483   19.8432 C.2       1 MOL     0.2187
     23 C         -64.1208  -61.3906   20.1684 C.3       1 MOL     0.0752
     24 C         -63.9575  -62.1402   21.4713 C.3       1 MOL     0.0134
     25 C         -63.3780  -60.8042   21.3148 C.3       1 MOL     0.0134
     26 C         -67.8962  -56.2629   15.8749 C.ar      1 MOL     0.1355
     27 C         -68.9304  -55.3864   16.1138 C.ar      1 MOL     0.0392
     28 C         -69.0917  -54.8219   17.3873 C.ar      1 MOL     0.0066
     29 O         -71.6891  -57.8633   22.5852 O.2       1 MOL    -0.2658
     30 O         -66.2258  -60.6763   20.8503 O.2       1 MOL    -0.2753
     31 O         -64.8344  -57.0950   16.2415 O.2       1 MOL    -0.2699
     32 F         -67.6989  -56.8353   14.6517 F         1 MOL    -0.2047
     33 H         -71.4595  -56.3717   24.4303 H         1 MOL     0.0625
     34 H         -70.5838  -54.4085   25.5679 H         1 MOL     0.0618
     35 H         -69.0863  -52.9707   24.3519 H         1 MOL     0.0618
     36 H         -68.4442  -53.4099   22.0842 H         1 MOL     0.0624
     37 H         -67.3593  -54.5080   20.2211 H         1 MOL     0.0377
     38 H         -68.7681  -53.5643   19.7655 H         1 MOL     0.0377
     39 H         -66.5592  -56.2316   18.9379 H         1 MOL     0.0629
     40 H         -64.2110  -59.3569   16.7960 H         1 MOL     0.0480
     41 H         -65.2169  -60.0723   15.5253 H         1 MOL     0.0480
     42 H         -64.3224  -61.4560   17.6205 H         1 MOL     0.0480
     43 H         -65.8097  -61.8216   16.7893 H         1 MOL     0.0480
     44 H         -67.7451  -59.8854   19.3196 H         1 MOL     0.0480
     45 H         -68.0323  -61.1594   18.1473 H         1 MOL     0.0480
     46 H         -68.0245  -58.4476   17.6688 H         1 MOL     0.0480
     47 H         -67.9969  -59.7585   16.4761 H         1 MOL     0.0480
     48 H         -63.8858  -61.5380   19.1353 H         1 MOL     0.0394
     49 H         -63.3196  -62.9982   21.5188 H         1 MOL     0.0273
     50 H         -64.6258  -62.5995   22.1694 H         1 MOL     0.0273
     51 H         -62.3156  -60.6902   21.2568 H         1 MOL     0.0273
     52 H         -63.4523  -59.8896   21.8636 H         1 MOL     0.0273
     53 H         -69.5875  -55.1449   15.3548 H         1 MOL     0.0646
     54 H         -69.8752  -54.1673   17.5395 H         1 MOL     0.0621
     55 H         -70.8382  -58.1166   20.2254 H         1 MOL     0.1921
@<TRIPOS>BOND
     1    1   18 1 
     2    1   21 1 
     3    1   17 am
     4    2   20 1 
     5    2   22 am
     6    2   19 1 
     7    3    4 ar
     8    3   12 ar
     9    4   55 1 
    10    4    5 ar
    11    5    6 ar
    12    5   29 2 
    13    6    7 ar
    14    6   11 ar
    15    7    8 ar
    16    7   33 1 
    17    8    9 ar
    18    8   34 1 
    19    9   10 ar
    20    9   35 1 
    21   10   11 ar
    22   10   36 1 
    23   11   12 ar
    24   12   13 1 
    25   13   14 1 
    26   13   37 1 
    27   13   38 1 
    28   14   15 ar
    29   14   28 ar
    30   15   16 ar
    31   15   39 1 
    32   16   17 1 
    33   16   26 ar
    34   17   31 2 
    35   18   19 1 
    36   18   40 1 
    37   18   41 1 
    38   19   42 1 
    39   19   43 1 
    40   20   21 1 
    41   20   44 1 
    42   20   45 1 
    43   21   46 1 
    44   21   47 1 
    45   22   23 1 
    46   22   30 2 
    47   23   24 1 
    48   23   25 1 
    49   23   48 1 
    50   24   25 1 
    51   24   49 1 
    52   24   50 1 
    53   25   51 1 
    54   25   52 1 
    55   26   27 ar
    56   26   32 1 
    57   27   28 ar
    58   27   53 1 
    59   28   54 1 
@<TRIPOS>SUBSTRUCTURE
1 MOL         1
@<TRIPOS>MOLECULE
query molecule
   55    59     1     0     0
SMALL
NO_CHARGE

@<TRIPOS>ATOM
      1 N         -30.8467  -32.9608   24.1609 N.am      1 MOL    -0.2945
      2 N         -29.1888  -33.8780   25.9381 N.am      1 MOL    -0.2983
      3 N         -32.3953  -30.6208   18.7917 N.ar      1 MOL    -0.1750
      4 N         -33.0002  -31.1596   17.7610 N.ar      1 MOL    -0.2425
      5 C         -33.7106  -30.4507   16.8723 C.ar      1 MOL     0.2725
      6 C         -33.8155  -29.0858   17.0442 C.ar      1 MOL     0.0496
      7 C         -34.5593  -28.3032   16.1601 C.ar      1 MOL     0.0138
      8 C         -34.6679  -26.9444   16.3636 C.ar      1 MOL     0.0008
      9 C         -34.0176  -26.4227   17.4618 C.ar      1 MOL     0.0007
     10 C         -33.2765  -27.1873   18.3474 C.ar      1 MOL     0.0103
     11 C         -33.1733  -28.5305   18.1355 C.ar      1 MOL     0.0106
     12 C         -32.4516  -29.2743   19.0302 C.ar      1 MOL     0.0736
     13 C         -31.6820  -28.7950   20.1708 C.3       1 MOL     0.0925
     14 C         -30.7505  -29.8510   20.6550 C.ar      1 MOL    -0.0406
     15 C         -31.3353  -30.8615   21.4389 C.ar      1 MOL     0.0196
     16 C         -30.5547  -31.8751   21.9409 C.ar      1 MOL     0.0723
     17 C         -31.1402  -32.9510   22.7721 C.2       1 MOL     0.2495
     18 C         -31.3968  -33.9795   24.9956 C.3       1 MOL     0.1268
     19 C         -30.5506  -34.2505   26.2209 C.3       1 MOL     0.1265
     20 C         -28.9345  -32.4650   25.6370 C.3       1 MOL     0.1265
     21 C         -29.9872  -31.9251   24.7034 C.3       1 MOL     0.1268
     22 C         -28.1409  -34.8032   25.9432 C.2       1 MOL     0.2187
     23 C         -28.2360  -36.2410   26.2091 C.3       1 MOL     0.0752
     24 C         -28.4361  -37.1305   25.0029 C.3       1 MOL     0.0134
     25 C         -29.5080  -36.9783   25.9893 C.3       1 MOL     0.0134
     26 C         -29.2012  -31.9657   21.7179 C.ar      1 MOL     0.1355
     27 C         -28.6297  -30.9760   20.9505 C.ar      1 MOL     0.0392
     28 C         -29.4232  -29.9398   20.4376 C.ar      1 MOL     0.0066
     29 O         -34.2964  -30.9491   15.8772 O.2       1 MOL    -0.2658
     30 O         -26.9616  -34.3671   25.6895 O.2       1 MOL    -0.2753
     31 O         -31.8779  -33.8411   22.2900 O.2       1 MOL    -0.2699
     32 F         -28.4688  -32.9925   22.2395 F         1 MOL    -0.2047
     33 H         -35.0282  -28.7421   15.3523 H         1 MOL     0.0625
     34 H         -35.2114  -26.3455   15.7239 H         1 MOL     0.0618
     35 H         -34.0872  -25.4078   17.6332 H         1 MOL     0.0618
     36 H         -32.8088  -26.7477   19.1557 H         1 MOL     0.0624
     37 H         -32.3524  -28.5276   20.9608 H         1 MOL     0.0377
     38 H         -31.1087  -27.9437   19.8675 H         1 MOL     0.0377
     39 H         -32.3478  -30.8418   21.6370 H         1 MOL     0.0629
     40 H         -31.4757  -34.8827   24.4268 H         1 MOL     0.0480
     41 H         -32.3543  -33.6393   25.3324 H         1 MOL     0.0480
     42 H         -30.5957  -35.2908   26.4658 H         1 MOL     0.0480
     43 H         -30.9185  -33.6806   27.0488 H         1 MOL     0.0480
     44 H         -27.9738  -32.3700   25.1759 H         1 MOL     0.0480
     45 H         -28.9633  -31.9059   26.5489 H         1 MOL     0.0480
     46 H         -29.5004  -31.4270   23.8910 H         1 MOL     0.0480
     47 H         -30.6048  -31.2588   25.2671 H         1 MOL     0.0480
     48 H         -27.5599  -36.1668   27.0348 H         1 MOL     0.0394
     49 H         -27.9057  -38.0569   24.9272 H         1 MOL     0.0273
     50 H         -28.3563  -36.9993   23.9439 H         1 MOL     0.0273
     51 H         -29.7630  -37.7993   26.6265 H         1 MOL     0.0273
     52 H         -30.5370  -36.6929   25.9351 H         1 MOL     0.0273
     53 H         -27.6165  -30.9973   20.7526 H         1 MOL     0.0646
     54 H         -28.9695  -29.2101   19.8655 H         1 MOL     0.0621
     55 H         -32.9285  -32.1334   17.6330 H         1 MOL     0.1921
@<TRIPOS>BOND
     1    1   18 1 
     2    1   21 1 
     3    1   17 am
     4    2   20 1 
     5    2   22 am
     6    2   19 1 
     7    3    4 ar
     8    3   12 ar
     9    4   55 1 
    10    4    5 ar
    11    5    6 ar
    12    5   29 2 
    13    6    7 ar
    14    6   11 ar
    15    7    8 ar
    16    7   33 1 
    17    8    9 ar
    18    8   34 1 
    19    9   10 ar
    20    9   35 1 
    21   10   11 ar
    22   10   36 1 
    23   11   12 ar
    24   12   13 1 
    25   13   14 1 
    26   13   37 1 
    27   13   38 1 
    28   14   15 ar
    29   14   28 ar
    30   15   16 ar
    31   15   39 1 
    32   16   17 1 
    33   16   26 ar
    34   17   31 2 
    35   18   19 1 
    36   18   40 1 
    37   18   41 1 
    38   19   42 1 
    39   19   43 1 
    40   20   21 1 
    41   20   44 1 
    42   20   45 1 
    43   21   46 1 
    44   21   47 1 
    45   22   23 1 
    46   22   30 2 
    47   23   24 1 
    48   23   25 1 
    49   23   48 1 
    50   24   25 1 
    51   24   49 1 
    52   24   50 1 
    53   25   51 1 
    54   25   52 1 
    55   26   27 ar
    56   26   32 1 
    57   27   28 ar
    58   27   53 1 
    59   28   54 1 
@<TRIPOS>SUBSTRUCTURE
1 MOL         1
@<TRIPOS>MOLECULE
query molecule
   55    59     1     0     0
SMALL
NO_CHARGE

@<TRIPOS>ATOM
      1 N         -67.8961  -37.6288   25.4008 N.am      1 MOL    -0.2945
      2 N         -66.9403  -39.6808   24.1264 N.am      1 MOL    -0.2983
      3 N         -73.6666  -33.8546   27.6562 N.ar      1 MOL    -0.1750
      4 N         -73.8297  -33.0806   28.7017 N.ar      1 MOL    -0.2425
      5 C         -73.0466  -32.0247   28.9640 C.ar      1 MOL     0.2725
      6 C         -72.0152  -31.7315   28.0956 C.ar      1 MOL     0.0496
      7 C         -71.1580  -30.6561   28.3319 C.ar      1 MOL     0.0138
      8 C         -70.1212  -30.3949   27.4622 C.ar      1 MOL     0.0008
      9 C         -69.9868  -31.2370   26.3786 C.ar      1 MOL     0.0007
     10 C         -70.8297  -32.3078   26.1321 C.ar      1 MOL     0.0103
     11 C         -71.8541  -32.5560   26.9975 C.ar      1 MOL     0.0106
     12 C         -72.6673  -33.6290   26.7486 C.ar      1 MOL     0.0736
     13 C         -72.6363  -34.5221   25.5977 C.3       1 MOL     0.0925
     14 C         -72.0970  -35.8553   25.9838 C.ar      1 MOL    -0.0406
     15 C         -70.6970  -35.9342   26.0915 C.ar      1 MOL     0.0196
     16 C         -70.1039  -37.1260   26.4328 C.ar      1 MOL     0.0723
     17 C         -68.6329  -37.2419   26.5507 C.2       1 MOL     0.2495
     18 C         -66.4756  -37.7465   25.4742 C.3       1 MOL     0.1268
     19 C         -65.9177  -38.7245   24.4626 C.3       1 MOL     0.1265
     20 C         -68.1527  -39.1605   23.4852 C.3       1 MOL     0.1265
     21 C         -68.6114  -37.8972   24.1671 C.3       1 MOL     0.1268
     22 C         -66.8065  -41.0471   24.3904 C.2       1 MOL     0.2187
     23 C         -65.6707  -41.7133   25.0332 C.3       1 MOL     0.0752
     24 C         -65.9615  -42.4136   26.3413 C.3       1 MOL     0.0134
     25 C         -65.1190  -41.2156   26.3207 C.3       1 MOL     0.0134
     26 C         -70.8130  -38.2770   26.6830 C.ar      1 MOL     0.1355
     27 C         -72.1832  -38.1985   26.5773 C.ar      1 MOL     0.0392
     28 C         -72.7916  -36.9843   26.2283 C.ar      1 MOL     0.0066
     29 O         -73.1880  -31.2702   29.9602 O.2       1 MOL    -0.2658
     30 O         -67.7708  -41.8173   24.0409 O.2       1 MOL    -0.2753
     31 O         -68.0284  -37.0106   27.6231 O.2       1 MOL    -0.2699
     32 F         -70.1769  -39.4371   27.0181 F         1 MOL    -0.2047
     33 H         -71.3006  -30.0550   29.1585 H         1 MOL     0.0625
     34 H         -69.4752  -29.6060   27.6153 H         1 MOL     0.0618
     35 H         -69.2164  -31.0598   25.7159 H         1 MOL     0.0618
     36 H         -70.6857  -32.9092   25.3057 H         1 MOL     0.0624
     37 H         -72.0137  -34.0968   24.8385 H         1 MOL     0.0377
     38 H         -73.6339  -34.6479   25.2313 H         1 MOL     0.0377
     39 H         -70.1167  -35.0997   25.9144 H         1 MOL     0.0629
     40 H         -66.2099  -38.0798   26.4559 H         1 MOL     0.0480
     41 H         -66.0599  -36.7842   25.2571 H         1 MOL     0.0480
     42 H         -65.0740  -39.2319   24.8808 H         1 MOL     0.0480
     43 H         -65.6084  -38.1992   23.5829 H         1 MOL     0.0480
     44 H         -68.9280  -39.8951   23.5482 H         1 MOL     0.0480
     45 H         -67.9355  -38.9399   22.4610 H         1 MOL     0.0480
     46 H         -69.6537  -37.9890   24.3913 H         1 MOL     0.0480
     47 H         -68.4170  -37.0841   23.5006 H         1 MOL     0.0480
     48 H         -65.2331  -41.9531   24.0870 H         1 MOL     0.0394
     49 H         -65.5269  -43.3702   26.5445 H         1 MOL     0.0273
     50 H         -66.8490  -42.7071   26.8620 H         1 MOL     0.0273
     51 H         -64.0707  -41.3009   26.5177 H         1 MOL     0.0273
     52 H         -65.1447  -40.2764   26.8311 H         1 MOL     0.0273
     53 H         -72.7629  -39.0343   26.7553 H         1 MOL     0.0646
     54 H         -73.8208  -36.9529   26.1555 H         1 MOL     0.0621
     55 H         -74.5644  -33.2848   29.3248 H         1 MOL     0.1921
@<TRIPOS>BOND
     1    1   18 1 
     2    1   21 1 
     3    1   17 am
     4    2   20 1 
     5    2   22 am
     6    2   19 1 
     7    3    4 ar
     8    3   12 ar
     9    4   55 1 
    10    4    5 ar
    11    5    6 ar
    12    5   29 2 
    13    6    7 ar
    14    6   11 ar
    15    7    8 ar
    16    7   33 1 
    17    8    9 ar
    18    8   34 1 
    19    9   10 ar
    20    9   35 1 
    21   10   11 ar
    22   10   36 1 
    23   11   12 ar
    24   12   13 1 
    25   13   14 1 
    26   13   37 1 
    27   13   38 1 
    28   14   15 ar
    29   14   28 ar
    30   15   16 ar
    31   15   39 1 
    32   16   17 1 
    33   16   26 ar
    34   17   31 2 
    35   18   19 1 
    36   18   40 1 
    37   18   41 1 
    38   19   42 1 
    39   19   43 1 
    40   20   21 1 
    41   20   44 1 
    42   20   45 1 
    43   21   46 1 
    44   21   47 1 
    45   22   23 1 
    46   22   30 2 
    47   23   24 1 
    48   23   25 1 
    49   23   48 1 
    50   24   25 1 
    51   24   49 1 
    52   24   50 1 
    53   25   51 1 
    54   25   52 1 
    55   26   27 ar
    56   26   32 1 
    57   27   28 ar
    58   27   53 1 
    59   28   54 1 
@<TRIPOS>SUBSTRUCTURE
1 MOL         1
@<TRIPOS>MOLECULE
query molecule
   55    59     1     0     0
SMALL
NO_CHARGE

@<TRIPOS>ATOM
      1 N         -17.3894  -27.1721    2.8287 N.am      1 MOL    -0.2945
      2 N         -17.8446  -25.5968    0.8138 N.am      1 MOL    -0.2983
      3 N         -11.4863  -27.0701    4.9658 N.ar      1 MOL    -0.1750
      4 N         -10.7984  -26.7639    6.0389 N.ar      1 MOL    -0.2425
      5 C          -9.4918  -27.0306    6.1754 C.ar      1 MOL     0.2725
      6 C          -8.8311  -27.6587    5.1398 C.ar      1 MOL     0.0496
      7 C          -7.4761  -27.9776    5.2376 C.ar      1 MOL     0.0138
      8 C          -6.8417  -28.6244    4.1989 C.ar      1 MOL     0.0008
      9 C          -7.6057  -28.9289    3.0922 C.ar      1 MOL     0.0007
     10 C          -8.9509  -28.6189    2.9818 C.ar      1 MOL     0.0103
     11 C          -9.5685  -27.9765    4.0141 C.ar      1 MOL     0.0106
     12 C         -10.9028  -27.6932    3.8960 C.ar      1 MOL     0.0736
     13 C         -11.7621  -27.9177    2.7409 C.3       1 MOL     0.0925
     14 C         -13.0263  -28.5890    3.1513 C.ar      1 MOL    -0.0406
     15 C         -14.1314  -27.7388    3.3352 C.ar      1 MOL     0.0196
     16 C         -15.3404  -28.2639    3.7242 C.ar      1 MOL     0.0723
     17 C         -16.5210  -27.3947    3.9293 C.2       1 MOL     0.2495
     18 C         -18.5406  -26.3438    2.9890 C.3       1 MOL     0.1268
     19 C         -18.9807  -25.6985    1.6925 C.3       1 MOL     0.1265
     20 C         -17.2174  -26.8532    0.3894 C.3       1 MOL     0.1265
     21 C         -17.0830  -27.7980    1.5558 C.3       1 MOL     0.1268
     22 C         -17.3438  -24.3683    0.3731 C.2       1 MOL     0.2187
     23 C         -17.8481  -23.0364    0.7176 C.3       1 MOL     0.0752
     24 C         -19.1251  -22.6085    0.0303 C.3       1 MOL     0.0134
     25 C         -17.8611  -21.9391   -0.2852 C.3       1 MOL     0.0134
     26 C         -15.5426  -29.6047    3.9504 C.ar      1 MOL     0.1355
     27 C         -14.4603  -30.4360    3.7702 C.ar      1 MOL     0.0392
     28 C         -13.2250  -29.9035    3.3742 C.ar      1 MOL     0.0066
     29 O          -8.8149  -26.7436    7.1958 O.2       1 MOL    -0.2658
     30 O         -16.3341  -24.3872   -0.4177 O.2       1 MOL    -0.2753
     31 O         -16.7715  -26.8577    5.0328 O.2       1 MOL    -0.2699
     32 F         -16.7633  -30.0774    4.3365 F         1 MOL    -0.2047
     33 H          -6.9479  -27.7282    6.0883 H         1 MOL     0.0625
     34 H          -5.8414  -28.8699    4.2477 H         1 MOL     0.0618
     35 H          -7.1505  -29.4142    2.3039 H         1 MOL     0.0618
     36 H          -9.4788  -28.8696    2.1310 H         1 MOL     0.0624
     37 H         -11.2484  -28.5360    2.0345 H         1 MOL     0.0377
     38 H         -12.0022  -26.9725    2.3002 H         1 MOL     0.0377
     39 H         -14.0346  -26.7236    3.1787 H         1 MOL     0.0629
     40 H         -18.3122  -25.5730    3.6955 H         1 MOL     0.0480
     41 H         -19.3422  -26.9668    3.3286 H         1 MOL     0.0480
     42 H         -19.3703  -24.7223    1.8912 H         1 MOL     0.0480
     43 H         -19.7435  -26.2920    1.2327 H         1 MOL     0.0480
     44 H         -16.2461  -26.6458   -0.0084 H         1 MOL     0.0480
     45 H         -17.8317  -27.3123   -0.3568 H         1 MOL     0.0480
     46 H         -16.0765  -28.1599    1.5883 H         1 MOL     0.0480
     47 H         -17.7870  -28.5895    1.4104 H         1 MOL     0.0480
     48 H         -17.4758  -23.1175    1.7172 H         1 MOL     0.0394
     49 H         -19.8821  -22.0907    0.5817 H         1 MOL     0.0273
     50 H         -19.8818  -23.1065   -0.5393 H         1 MOL     0.0273
     51 H         -17.7026  -20.9291    0.0306 H         1 MOL     0.0273
     52 H         -17.3237  -21.7472   -1.1894 H         1 MOL     0.0273
     53 H         -14.5586  -31.4519    3.9265 H         1 MOL     0.0646
     54 H         -12.4294  -30.5487    3.2466 H         1 MOL     0.0621
     55 H         -11.2646  -26.3151    6.7812 H         1 MOL     0.1921
@<TRIPOS>BOND
     1    1   18 1 
     2    1   21 1 
     3    1   17 am
     4    2   20 1 
     5    2   22 am
     6    2   19 1 
     7    3    4 ar
     8    3   12 ar
     9    4   55 1 
    10    4    5 ar
    11    5    6 ar
    12    5   29 2 
    13    6    7 ar
    14    6   11 ar
    15    7    8 ar
    16    7   33 1 
    17    8    9 ar
    18    8   34 1 
    19    9   10 ar
    20    9   35 1 
    21   10   11 ar
    22   10   36 1 
    23   11   12 ar
    24   12   13 1 
    25   13   14 1 
    26   13   37 1 
    27   13   38 1 
    28   14   15 ar
    29   14   28 ar
    30   15   16 ar
    31   15   39 1 
    32   16   17 1 
    33   16   26 ar
    34   17   31 2 
    35   18   19 1 
    36   18   40 1 
    37   18   41 1 
    38   19   42 1 
    39   19   43 1 
    40   20   21 1 
    41   20   44 1 
    42   20   45 1 
    43   21   46 1 
    44   21   47 1 
    45   22   23 1 
    46   22   30 2 
    47   23   24 1 
    48   23   25 1 
    49   23   48 1 
    50   24   25 1 
    51   24   49 1 
    52   24   50 1 
    53   25   51 1 
    54   25   52 1 
    55   26   27 ar
    56   26   32 1 
    57   27   28 ar
    58   27   53 1 
    59   28   54 1 
@<TRIPOS>SUBSTRUCTURE
1 MOL         1
@<TRIPOS>MOLECULE
query molecule
   55    59     1     0     0
SMALL
NO_CHARGE

@<TRIPOS>ATOM
      1 N          -3.7308  -23.1840  -15.2112 N.am      1 MOL    -0.2945
      2 N          -2.9070  -25.6416  -15.0377 N.am      1 MOL    -0.2983
      3 N         -10.7072  -23.6154  -18.9747 N.ar      1 MOL    -0.1750
      4 N         -11.9297  -23.1419  -18.9775 N.ar      1 MOL    -0.2425
      5 C         -12.3592  -22.2105  -18.1145 C.ar      1 MOL     0.2725
      6 C         -11.4772  -21.7211  -17.1730 C.ar      1 MOL     0.0496
      7 C         -11.8778  -20.7657  -16.2382 C.ar      1 MOL     0.0138
      8 C         -10.9855  -20.3069  -15.2933 C.ar      1 MOL     0.0008
      9 C          -9.7124  -20.8354  -15.3269 C.ar      1 MOL     0.0007
     10 C          -9.3014  -21.7840  -16.2483 C.ar      1 MOL     0.0103
     11 C         -10.1914  -22.2294  -17.1807 C.ar      1 MOL     0.0106
     12 C          -9.7740  -23.1802  -18.0731 C.ar      1 MOL     0.0736
     13 C          -8.4358  -23.7378  -18.2196 C.3       1 MOL     0.0925
     14 C          -7.4041  -22.7207  -17.8758 C.ar      1 MOL    -0.0406
     15 C          -6.6521  -22.9882  -16.7179 C.ar      1 MOL     0.0196
     16 C          -5.6825  -22.1024  -16.3129 C.ar      1 MOL     0.0723
     17 C          -4.8768  -22.3542  -15.0968 C.2       1 MOL     0.2495
     18 C          -2.9263  -23.4459  -14.0618 C.3       1 MOL     0.1268
     19 C          -2.1848  -24.7621  -14.1557 C.3       1 MOL     0.1265
     20 C          -3.0486  -25.2141  -16.4338 C.3       1 MOL     0.1265
     21 C          -3.4018  -23.7508  -16.5060 C.3       1 MOL     0.1268
     22 C          -3.4577  -26.8517  -14.6058 C.2       1 MOL     0.2187
     23 C          -3.4136  -27.4059  -13.2501 C.3       1 MOL     0.0752
     24 C          -3.7537  -26.4513  -12.1280 C.3       1 MOL     0.0134
     25 C          -2.3872  -26.9582  -12.2724 C.3       1 MOL     0.0134
     26 C          -5.3934  -20.9401  -16.9876 C.ar      1 MOL     0.1355
     27 C          -6.1301  -20.6792  -18.1209 C.ar      1 MOL     0.0392
     28 C          -7.1209  -21.5803  -18.5364 C.ar      1 MOL     0.0066
     29 O         -13.5268  -21.7432  -18.1024 O.2       1 MOL    -0.2658
     30 O          -4.0727  -27.5684  -15.4738 O.2       1 MOL    -0.2753
     31 O          -5.1744  -21.8613  -13.9844 O.2       1 MOL    -0.2699
     32 F          -4.4206  -20.0918  -16.5442 F         1 MOL    -0.2047
     33 H         -12.8432  -20.4014  -16.2547 H         1 MOL     0.0625
     34 H         -11.2580  -19.6010  -14.5928 H         1 MOL     0.0618
     35 H          -9.0292  -20.5065  -14.6274 H         1 MOL     0.0618
     36 H          -8.3360  -22.1487  -16.2305 H         1 MOL     0.0624
     37 H          -8.2948  -24.0541  -19.2320 H         1 MOL     0.0377
     38 H          -8.3336  -24.5697  -17.5540 H         1 MOL     0.0377
     39 H          -6.8281  -23.8469  -16.1737 H         1 MOL     0.0629
     40 H          -3.5593  -23.4697  -13.1990 H         1 MOL     0.0480
     41 H          -2.1953  -22.6668  -13.9947 H         1 MOL     0.0480
     42 H          -2.1144  -25.2049  -13.1845 H         1 MOL     0.0480
     43 H          -1.1983  -24.5961  -14.5361 H         1 MOL     0.0480
     44 H          -3.8229  -25.7858  -16.9010 H         1 MOL     0.0480
     45 H          -2.1186  -25.3694  -16.9397 H         1 MOL     0.0480
     46 H          -4.2464  -23.6346  -17.1527 H         1 MOL     0.0480
     47 H          -2.5430  -23.2311  -16.8742 H         1 MOL     0.0480
     48 H          -3.7326  -28.3664  -13.5965 H         1 MOL     0.0394
     49 H          -4.3632  -26.7799  -11.3120 H         1 MOL     0.0273
     50 H          -4.1997  -25.4804  -12.0690 H         1 MOL     0.0273
     51 H          -1.9997  -27.6506  -11.5546 H         1 MOL     0.0273
     52 H          -1.4257  -26.4982  -12.3568 H         1 MOL     0.0273
     53 H          -5.9526  -19.8197  -18.6649 H         1 MOL     0.0646
     54 H          -7.6591  -21.3606  -19.3894 H         1 MOL     0.0621
     55 H         -12.5635  -23.4872  -19.6475 H         1 MOL     0.1921
@<TRIPOS>BOND
     1    1   18 1 
     2    1   21 1 
     3    1   17 am
     4    2   20 1 
     5    2   22 am
     6    2   19 1 
     7    3    4 ar
     8    3   12 ar
     9    4   55 1 
    10    4    5 ar
    11    5    6 ar
    12    5   29 2 
    13    6    7 ar
    14    6   11 ar
    15    7    8 ar
    16    7   33 1 
    17    8    9 ar
    18    8   34 1 
    19    9   10 ar
    20    9   35 1 
    21   10   11 ar
    22   10   36 1 
    23   11   12 ar
    24   12   13 1 
    25   13   14 1 
    26   13   37 1 
    27   13   38 1 
    28   14   15 ar
    29   14   28 ar
    30   15   16 ar
    31   15   39 1 
    32   16   17 1 
    33   16   26 ar
    34   17   31 2 
    35   18   19 1 
    36   18   40 1 
    37   18   41 1 
    38   19   42 1 
    39   19   43 1 
    40   20   21 1 
    41   20   44 1 
    42   20   45 1 
    43   21   46 1 
    44   21   47 1 
    45   22   23 1 
    46   22   30 2 
    47   23   24 1 
    48   23   25 1 
    49   23   48 1 
    50   24   25 1 
    51   24   49 1 
    52   24   50 1 
    53   25   51 1 
    54   25   52 1 
    55   26   27 ar
    56   26   32 1 
    57   27   28 ar
    58   27   53 1 
    59   28   54 1 
@<TRIPOS>SUBSTRUCTURE
1 MOL         1
@<TRIPOS>MOLECULE
query molecule
   55    59     1     0     0
SMALL
NO_CHARGE

@<TRIPOS>ATOM
      1 N         -24.6213  -37.1739  -20.0721 N.am      1 MOL    -0.2945
      2 N         -27.1157  -37.3573  -20.7738 N.am      1 MOL    -0.2983
      3 N         -20.1341  -39.4259  -22.1975 N.ar      1 MOL    -0.1750
      4 N         -20.5415  -40.6551  -22.4017 N.ar      1 MOL    -0.2425
      5 C         -21.1823  -41.0419  -23.5137 C.ar      1 MOL     0.2725
      6 C         -21.4297  -40.1059  -24.4967 C.ar      1 MOL     0.0496
      7 C         -22.1106  -40.4504  -25.6649 C.ar      1 MOL     0.0138
      8 C         -22.3654  -39.4938  -26.6239 C.ar      1 MOL     0.0008
      9 C         -21.9209  -38.2146  -26.3646 C.ar      1 MOL     0.0007
     10 C         -21.2445  -37.8585  -25.2098 C.ar      1 MOL     0.0103
     11 C         -20.9952  -38.8132  -24.2683 C.ar      1 MOL     0.0106
     12 C         -20.3409  -38.4407  -23.1248 C.ar      1 MOL     0.0736
     13 C         -19.7809  -37.1343  -22.8044 C.3       1 MOL     0.0925
     14 C         -20.8569  -36.1888  -22.3973 C.ar      1 MOL    -0.0406
     15 C         -21.6742  -36.6213  -21.3377 C.ar      1 MOL     0.0196
     16 C         -22.7018  -35.8222  -20.8971 C.ar      1 MOL     0.0723
     17 C         -23.5814  -36.2509  -19.7863 C.2       1 MOL     0.2495
     18 C         -25.4868  -37.6144  -19.0262 C.3       1 MOL     0.1268
     19 C         -26.8476  -38.0395  -19.5345 C.3       1 MOL     0.1265
     20 C         -26.2142  -37.6383  -21.8964 C.3       1 MOL     0.1265
     21 C         -24.7803  -37.6520  -21.4329 C.3       1 MOL     0.1268
     22 C         -28.1797  -36.4630  -20.9235 C.2       1 MOL     0.2187
     23 C         -29.1515  -36.0702  -19.8996 C.3       1 MOL     0.0752
     24 C         -30.6044  -36.3376  -20.2216 C.3       1 MOL     0.0134
     25 C         -30.1114  -34.9608  -20.1398 C.3       1 MOL     0.0134
     26 C         -22.9880  -34.5928  -21.4417 C.ar      1 MOL     0.1355
     27 C         -22.1874  -34.1705  -22.4789 C.ar      1 MOL     0.0392
     28 C         -21.1386  -34.9838  -22.9316 C.ar      1 MOL     0.0066
     29 O         -21.5795  -42.2159  -23.7283 O.2       1 MOL    -0.2658
     30 O         -28.3392  -35.9160  -22.0727 O.2       1 MOL    -0.2753
     31 O         -23.4351  -35.8273  -18.6167 O.2       1 MOL    -0.2699
     32 F         -24.0209  -33.8363  -20.9689 F         1 MOL    -0.2047
     33 H         -22.4233  -41.4228  -25.8117 H         1 MOL     0.0625
     34 H         -22.8662  -39.7243  -27.4953 H         1 MOL     0.0618
     35 H         -22.1025  -37.4830  -27.0689 H         1 MOL     0.0618
     36 H         -20.9330  -36.8855  -25.0632 H         1 MOL     0.0624
     37 H         -19.2780  -36.7458  -23.6652 H         1 MOL     0.0377
     38 H         -19.0934  -37.2433  -21.9914 H         1 MOL     0.0377
     39 H         -21.5030  -37.5362  -20.8925 H         1 MOL     0.0629
     40 H         -25.6163  -36.8131  -18.3286 H         1 MOL     0.0480
     41 H         -25.0315  -38.4681  -18.5678 H         1 MOL     0.0480
     42 H         -27.5960  -37.7845  -18.8141 H         1 MOL     0.0480
     43 H         -26.8612  -39.0980  -19.6924 H         1 MOL     0.0480
     44 H         -26.3347  -36.8819  -22.6434 H         1 MOL     0.0480
     45 H         -26.4546  -38.5990  -22.3016 H         1 MOL     0.0480
     46 H         -24.2050  -37.0260  -22.0828 H         1 MOL     0.0480
     47 H         -24.4449  -38.6670  -21.4571 H         1 MOL     0.0480
     48 H         -28.4613  -36.2908  -19.1126 H         1 MOL     0.0394
     49 H         -31.2591  -36.7177  -19.4652 H         1 MOL     0.0273
     50 H         -31.1227  -36.9145  -20.9588 H         1 MOL     0.0273
     51 H         -30.4154  -34.3360  -19.3260 H         1 MOL     0.0273
     52 H         -30.1316  -34.1205  -20.8005 H         1 MOL     0.0273
     53 H         -22.3594  -33.2544  -22.9231 H         1 MOL     0.0646
     54 H         -20.5536  -34.6435  -23.7111 H         1 MOL     0.0621
     55 H         -20.3674  -41.3277  -21.7037 H         1 MOL     0.1921
@<TRIPOS>BOND
     1    1   18 1 
     2    1   21 1 
     3    1   17 am
     4    2   20 1 
     5    2   22 am
     6    2   19 1 
     7    3    4 ar
     8    3   12 ar
     9    4   55 1 
    10    4    5 ar
    11    5    6 ar
    12    5   29 2 
    13    6    7 ar
    14    6   11 ar
    15    7    8 ar
    16    7   33 1 
    17    8    9 ar
    18    8   34 1 
    19    9   10 ar
    20    9   35 1 
    21   10   11 ar
    22   10   36 1 
    23   11   12 ar
    24   12   13 1 
    25   13   14 1 
    26   13   37 1 
    27   13   38 1 
    28   14   15 ar
    29   14   28 ar
    30   15   16 ar
    31   15   39 1 
    32   16   17 1 
    33   16   26 ar
    34   17   31 2 
    35   18   19 1 
    36   18   40 1 
    37   18   41 1 
    38   19   42 1 
    39   19   43 1 
    40   20   21 1 
    41   20   44 1 
    42   20   45 1 
    43   21   46 1 
    44   21   47 1 
    45   22   23 1 
    46   22   30 2 
    47   23   24 1 
    48   23   25 1 
    49   23   48 1 
    50   24   25 1 
    51   24   49 1 
    52   24   50 1 
    53   25   51 1 
    54   25   52 1 
    55   26   27 ar
    56   26   32 1 
    57   27   28 ar
    58   27   53 1 
    59   28   54 1 
@<TRIPOS>SUBSTRUCTURE
1 MOL         1
@<TRIPOS>MOLECULE
query molecule
   55    59     1     0     0
SMALL
NO_CHARGE

@<TRIPOS>ATOM
      1 N         -13.9722  -23.7167    6.0160 N.am      1 MOL    -0.2945
      2 N         -14.9684  -21.3547    5.5953 N.am      1 MOL    -0.2983
      3 N         -12.7139  -28.5870   11.8709 N.ar      1 MOL    -0.1750
      4 N         -12.9712  -29.7748   12.3624 N.ar      1 MOL    -0.2425
      5 C         -12.7731  -30.9114   11.6800 C.ar      1 MOL     0.2725
      6 C         -12.2742  -30.8361   10.3958 C.ar      1 MOL     0.0496
      7 C         -12.0680  -31.9869    9.6341 C.ar      1 MOL     0.0138
      8 C         -11.5888  -31.8861    8.3458 C.ar      1 MOL     0.0008
      9 C         -11.3353  -30.6169    7.8704 C.ar      1 MOL     0.0007
     10 C         -11.5356  -29.4664    8.6149 C.ar      1 MOL     0.0103
     11 C         -12.0076  -29.5773    9.8896 C.ar      1 MOL     0.0106
     12 C         -12.2166  -28.4292   10.6056 C.ar      1 MOL     0.0736
     13 C         -11.9121  -27.0618   10.2050 C.3       1 MOL     0.0925
     14 C         -13.1415  -26.3695    9.7289 C.ar      1 MOL    -0.0406
     15 C         -13.1642  -26.0486    8.3599 C.ar      1 MOL     0.0196
     16 C         -14.2523  -25.3991    7.8281 C.ar      1 MOL     0.0723
     17 C         -14.3045  -25.0447    6.3918 C.2       1 MOL     0.2495
     18 C         -14.0063  -23.3387    4.6402 C.3       1 MOL     0.1268
     19 C         -14.2606  -21.8591    4.4474 C.3       1 MOL     0.1265
     20 C         -14.2791  -21.4305    6.8880 C.3       1 MOL     0.1265
     21 C         -13.6022  -22.7673    7.0492 C.3       1 MOL     0.1268
     22 C         -16.2546  -20.8143    5.5065 C.2       1 MOL     0.2187
     23 C         -17.0740  -20.6834    4.2988 C.3       1 MOL     0.0752
     24 C         -17.9377  -19.4456    4.2098 C.3       1 MOL     0.0134
     25 C         -18.5568  -20.7637    4.3665 C.3       1 MOL     0.0134
     26 C         -15.3502  -25.0343    8.5708 C.ar      1 MOL     0.1355
     27 C         -15.3269  -25.3489    9.9108 C.ar      1 MOL     0.0392
     28 C         -14.2177  -26.0106   10.4568 C.ar      1 MOL     0.0066
     29 O         -13.0125  -32.0594   12.1346 O.2       1 MOL    -0.2658
     30 O         -16.7935  -20.3817    6.5870 O.2       1 MOL    -0.2753
     31 O         -14.6291  -25.8734    5.5106 O.2       1 MOL    -0.2699
     32 F         -16.4067  -24.3895    7.9958 F         1 MOL    -0.2047
     33 H         -12.2738  -32.9149   10.0360 H         1 MOL     0.0625
     34 H         -11.4279  -32.7220    7.7638 H         1 MOL     0.0618
     35 H         -10.9773  -30.5191    6.9079 H         1 MOL     0.0618
     36 H         -11.3306  -28.5386    8.2119 H         1 MOL     0.0624
     37 H         -11.1895  -27.0785    9.4160 H         1 MOL     0.0377
     38 H         -11.5251  -26.5323   11.0506 H         1 MOL     0.0377
     39 H         -12.3659  -26.2998    7.7564 H         1 MOL     0.0629
     40 H         -14.7861  -23.8869    4.1536 H         1 MOL     0.0480
     41 H         -13.0465  -23.5593    4.2205 H         1 MOL     0.0480
     42 H         -14.8486  -21.7073    3.5668 H         1 MOL     0.0480
     43 H         -13.3296  -21.3423    4.3389 H         1 MOL     0.0480
     44 H         -14.9913  -21.3001    7.6756 H         1 MOL     0.0480
     45 H         -13.5367  -20.6610    6.9303 H         1 MOL     0.0480
     46 H         -13.8746  -23.1758    8.0000 H         1 MOL     0.0480
     47 H         -12.5482  -22.6047    6.9722 H         1 MOL     0.0480
     48 H         -16.3352  -21.1778    3.7037 H         1 MOL     0.0394
     49 H         -18.0255  -18.9198    3.2819 H         1 MOL     0.0273
     50 H         -17.9870  -18.5172    4.7396 H         1 MOL     0.0273
     51 H         -19.1032  -21.1932    3.5529 H         1 MOL     0.0273
     52 H         -19.2510  -21.1840    5.0626 H         1 MOL     0.0273
     53 H         -16.1267  -25.0975   10.5135 H         1 MOL     0.0646
     54 H         -14.2256  -26.2345   11.4645 H         1 MOL     0.0621
     55 H         -13.3272  -29.8348   13.2787 H         1 MOL     0.1921
@<TRIPOS>BOND
     1    1   18 1 
     2    1   21 1 
     3    1   17 am
     4    2   20 1 
     5    2   22 am
     6    2   19 1 
     7    3    4 ar
     8    3   12 ar
     9    4   55 1 
    10    4    5 ar
    11    5    6 ar
    12    5   29 2 
    13    6    7 ar
    14    6   11 ar
    15    7    8 ar
    16    7   33 1 
    17    8    9 ar
    18    8   34 1 
    19    9   10 ar
    20    9   35 1 
    21   10   11 ar
    22   10   36 1 
    23   11   12 ar
    24   12   13 1 
    25   13   14 1 
    26   13   37 1 
    27   13   38 1 
    28   14   15 ar
    29   14   28 ar
    30   15   16 ar
    31   15   39 1 
    32   16   17 1 
    33   16   26 ar
    34   17   31 2 
    35   18   19 1 
    36   18   40 1 
    37   18   41 1 
    38   19   42 1 
    39   19   43 1 
    40   20   21 1 
    41   20   44 1 
    42   20   45 1 
    43   21   46 1 
    44   21   47 1 
    45   22   23 1 
    46   22   30 2 
    47   23   24 1 
    48   23   25 1 
    49   23   48 1 
    50   24   25 1 
    51   24   49 1 
    52   24   50 1 
    53   25   51 1 
    54   25   52 1 
    55   26   27 ar
    56   26   32 1 
    57   27   28 ar
    58   27   53 1 
    59   28   54 1 
@<TRIPOS>SUBSTRUCTURE
1 MOL         1
@<TRIPOS>MOLECULE
query molecule
   55    59     1     0     0
SMALL
NO_CHARGE

@<TRIPOS>ATOM
      1 N         -47.8501  -22.0339    1.7963 N.am      1 MOL    -0.2945
      2 N         -48.3031  -22.1564   -0.7587 N.am      1 MOL    -0.2983
      3 N         -43.8937  -23.1852    7.5372 N.ar      1 MOL    -0.1750
      4 N         -44.2727  -22.8115    8.7353 N.ar      1 MOL    -0.2425
      5 C         -45.5036  -23.0310    9.2188 C.ar      1 MOL     0.2725
      6 C         -46.4232  -23.6816    8.4220 C.ar      1 MOL     0.0496
      7 C         -47.7240  -23.9178    8.8684 C.ar      1 MOL     0.0138
      8 C         -48.6321  -24.5505    8.0471 C.ar      1 MOL     0.0008
      9 C         -48.1897  -24.9227    6.7953 C.ar      1 MOL     0.0007
     10 C         -46.9021  -24.6944    6.3392 C.ar      1 MOL     0.0103
     11 C         -46.0106  -24.0698    7.1607 C.ar      1 MOL     0.0106
     12 C         -44.7471  -23.8361    6.6879 C.ar      1 MOL     0.0736
     13 C         -44.1820  -24.2549    5.4119 C.3       1 MOL     0.0925
     14 C         -44.2840  -23.1590    4.4090 C.ar      1 MOL    -0.0406
     15 C         -45.5912  -22.7538    4.0856 C.ar      1 MOL     0.0196
     16 C         -45.7885  -21.7555    3.1619 C.ar      1 MOL     0.0723
     17 C         -47.1522  -21.3093    2.7978 C.2       1 MOL     0.2495
     18 C         -49.1689  -21.6369    1.4217 C.3       1 MOL     0.1268
     19 C         -49.5183  -22.0360    0.0041 C.3       1 MOL     0.1265
     20 C         -47.3459  -23.1810   -0.3277 C.3       1 MOL     0.1265
     21 C         -47.2001  -23.1714    1.1723 C.3       1 MOL     0.1268
     22 C         -48.0259  -21.3445   -1.8625 C.2       1 MOL     0.2187
     23 C         -48.8689  -20.2751   -2.4036 C.3       1 MOL     0.0752
     24 C         -49.0959  -20.2967   -3.8983 C.3       1 MOL     0.0134
     25 C         -48.3009  -19.2268   -3.2913 C.3       1 MOL     0.0134
     26 C         -44.7598  -21.1102    2.5174 C.ar      1 MOL     0.1355
     27 C         -43.4807  -21.5077    2.8347 C.ar      1 MOL     0.0392
     28 C         -43.2758  -22.5267    3.7760 C.ar      1 MOL     0.0066
     29 O         -45.8852  -22.6815   10.3651 O.2       1 MOL    -0.2658
     30 O         -46.9196  -21.5400   -2.4814 O.2       1 MOL    -0.2753
     31 O         -47.7001  -20.3233    3.3421 O.2       1 MOL    -0.2699
     32 F         -45.0078  -20.1245    1.6065 F         1 MOL    -0.2047
     33 H         -48.0065  -23.6190    9.8149 H         1 MOL     0.0625
     34 H         -49.5986  -24.7365    8.3547 H         1 MOL     0.0618
     35 H         -48.8540  -25.3965    6.1642 H         1 MOL     0.0618
     36 H         -46.6206  -24.9925    5.3920 H         1 MOL     0.0624
     37 H         -44.7158  -25.1105    5.0540 H         1 MOL     0.0377
     38 H         -43.1489  -24.4957    5.5541 H         1 MOL     0.0377
     39 H         -46.4001  -23.2050    4.5403 H         1 MOL     0.0629
     40 H         -49.2431  -20.5726    1.5065 H         1 MOL     0.0480
     41 H         -49.8544  -22.1346    2.0763 H         1 MOL     0.0480
     42 H         -50.1462  -21.2896   -0.4349 H         1 MOL     0.0480
     43 H         -50.0385  -22.9714    0.0086 H         1 MOL     0.0480
     44 H         -46.3938  -22.9845   -0.7744 H         1 MOL     0.0480
     45 H         -47.7056  -24.1415   -0.6327 H         1 MOL     0.0480
     46 H         -46.1581  -23.1426    1.4142 H         1 MOL     0.0480
     47 H         -47.6721  -24.0549    1.5462 H         1 MOL     0.0480
     48 H         -49.4611  -20.2460   -1.5132 H         1 MOL     0.0394
     49 H         -50.0664  -20.0831   -4.2955 H         1 MOL     0.0273
     50 H         -48.9350  -21.0113   -4.6783 H         1 MOL     0.0273
     51 H         -48.6914  -18.2312   -3.2548 H         1 MOL     0.0273
     52 H         -47.3175  -18.8415   -3.4578 H         1 MOL     0.0273
     53 H         -42.6721  -21.0549    2.3794 H         1 MOL     0.0646
     54 H         -42.3066  -22.8059    3.9955 H         1 MOL     0.0621
     55 H         -43.6205  -22.3470    9.3086 H         1 MOL     0.1921
@<TRIPOS>BOND
     1    1   18 1 
     2    1   21 1 
     3    1   17 am
     4    2   20 1 
     5    2   22 am
     6    2   19 1 
     7    3    4 ar
     8    3   12 ar
     9    4   55 1 
    10    4    5 ar
    11    5    6 ar
    12    5   29 2 
    13    6    7 ar
    14    6   11 ar
    15    7    8 ar
    16    7   33 1 
    17    8    9 ar
    18    8   34 1 
    19    9   10 ar
    20    9   35 1 
    21   10   11 ar
    22   10   36 1 
    23   11   12 ar
    24   12   13 1 
    25   13   14 1 
    26   13   37 1 
    27   13   38 1 
    28   14   15 ar
    29   14   28 ar
    30   15   16 ar
    31   15   39 1 
    32   16   17 1 
    33   16   26 ar
    34   17   31 2 
    35   18   19 1 
    36   18   40 1 
    37   18   41 1 
    38   19   42 1 
    39   19   43 1 
    40   20   21 1 
    41   20   44 1 
    42   20   45 1 
    43   21   46 1 
    44   21   47 1 
    45   22   23 1 
    46   22   30 2 
    47   23   24 1 
    48   23   25 1 
    49   23   48 1 
    50   24   25 1 
    51   24   49 1 
    52   24   50 1 
    53   25   51 1 
    54   25   52 1 
    55   26   27 ar
    56   26   32 1 
    57   27   28 ar
    58   27   53 1 
    59   28   54 1 
@<TRIPOS>SUBSTRUCTURE
1 MOL         1
@<TRIPOS>MOLECULE
query molecule
   55    59     1     0     0
SMALL
NO_CHARGE

@<TRIPOS>ATOM
      1 N          -8.5960  -66.9436  -10.3464 N.am      1 MOL    -0.2945
      2 N          -6.2821  -67.9091  -11.0262 N.am      1 MOL    -0.2983
      3 N         -11.7168  -60.0542  -12.0818 N.ar      1 MOL    -0.1750
      4 N         -11.3242  -58.9697  -12.7050 N.ar      1 MOL    -0.2425
      5 C         -10.0440  -58.5763  -12.7603 C.ar      1 MOL     0.2725
      6 C          -9.0858  -59.3453  -12.1325 C.ar      1 MOL     0.0496
      7 C          -7.7415  -58.9711  -12.1421 C.ar      1 MOL     0.0138
      8 C          -6.8046  -59.7435  -11.4899 C.ar      1 MOL     0.0008
      9 C          -7.2640  -60.8729  -10.8460 C.ar      1 MOL     0.0007
     10 C          -8.5947  -61.2559  -10.8280 C.ar      1 MOL     0.0103
     11 C          -9.5134  -60.4861  -11.4786 C.ar      1 MOL     0.0106
     12 C         -10.8271  -60.8695  -11.4361 C.ar      1 MOL     0.0736
     13 C         -11.3837  -62.0769  -10.8400 C.3       1 MOL     0.0925
     14 C         -11.0058  -63.2766  -11.6371 C.ar      1 MOL    -0.0406
     15 C         -10.6726  -64.4201  -10.8894 C.ar      1 MOL     0.0196
     16 C         -10.3003  -65.5746  -11.5354 C.ar      1 MOL     0.0723
     17 C          -9.9405  -66.7935  -10.7764 C.2       1 MOL     0.2495
     18 C          -8.2121  -68.1031   -9.6080 C.3       1 MOL     0.1268
     19 C          -6.7453  -68.4395   -9.7703 C.3       1 MOL     0.1265
     20 C          -6.3322  -66.4525  -11.1921 C.3       1 MOL     0.1265
     21 C          -7.6359  -65.9050  -10.6707 C.3       1 MOL     0.1268
     22 C          -5.8035  -68.7254  -12.0552 C.2       1 MOL     0.2187
     23 C          -5.7051  -70.1874  -12.0468 C.3       1 MOL     0.0752
     24 C          -4.7841  -70.7879  -11.0089 C.3       1 MOL     0.0134
     25 C          -4.4430  -70.8725  -12.4307 C.3       1 MOL     0.0134
     26 C         -10.2320  -65.6845  -12.9041 C.ar      1 MOL     0.1355
     27 C         -10.5583  -64.5646  -13.6349 C.ar      1 MOL     0.0392
     28 C         -10.9377  -63.3847  -12.9789 C.ar      1 MOL     0.0066
     29 O          -9.6480  -57.5406  -13.3539 O.2       1 MOL    -0.2658
     30 O          -5.4034  -68.1528  -13.1310 O.2       1 MOL    -0.2753
     31 O         -10.7788  -67.6841  -10.5064 O.2       1 MOL    -0.2699
     32 F          -9.8556  -66.8539  -13.4987 F         1 MOL    -0.2047
     33 H          -7.4481  -58.1154  -12.6386 H         1 MOL     0.0625
     34 H          -5.8057  -59.4878  -11.4834 H         1 MOL     0.0618
     35 H          -6.5793  -61.4643  -10.3506 H         1 MOL     0.0618
     36 H          -8.8876  -62.1113  -10.3302 H         1 MOL     0.0624
     37 H         -12.4502  -61.9957  -10.8102 H         1 MOL     0.0377
     38 H         -10.9926  -62.1850   -9.8497 H         1 MOL     0.0377
     39 H         -10.7072  -64.3924   -9.8586 H         1 MOL     0.0629
     40 H          -8.7943  -68.9341   -9.9484 H         1 MOL     0.0480
     41 H          -8.3841  -67.8977   -8.5715 H         1 MOL     0.0480
     42 H          -6.6169  -69.5014   -9.7589 H         1 MOL     0.0480
     43 H          -6.1840  -68.0113   -8.9660 H         1 MOL     0.0480
     44 H          -6.2406  -66.2124  -12.2306 H         1 MOL     0.0480
     45 H          -5.5283  -66.0130  -10.6393 H         1 MOL     0.0480
     46 H          -8.0625  -65.2686  -11.4178 H         1 MOL     0.0480
     47 H          -7.4225  -65.3729   -9.7682 H         1 MOL     0.0480
     48 H          -6.7239  -70.2909  -12.3561 H         1 MOL     0.0394
     49 H          -5.0796  -71.6676  -10.4759 H         1 MOL     0.0273
     50 H          -4.2918  -70.4229  -10.1317 H         1 MOL     0.0273
     51 H          -4.4826  -71.8180  -12.9304 H         1 MOL     0.0273
     52 H          -3.5890  -70.5948  -13.0111 H         1 MOL     0.0273
     53 H         -10.5238  -64.5939  -14.6665 H         1 MOL     0.0646
     54 H         -11.1770  -62.5592  -13.5507 H         1 MOL     0.0621
     55 H         -12.0037  -58.4171  -13.1553 H         1 MOL     0.1921
@<TRIPOS>BOND
     1    1   18 1 
     2    1   21 1 
     3    1   17 am
     4    2   20 1 
     5    2   22 am
     6    2   19 1 
     7    3    4 ar
     8    3   12 ar
     9    4   55 1 
    10    4    5 ar
    11    5    6 ar
    12    5   29 2 
    13    6    7 ar
    14    6   11 ar
    15    7    8 ar
    16    7   33 1 
    17    8    9 ar
    18    8   34 1 
    19    9   10 ar
    20    9   35 1 
    21   10   11 ar
    22   10   36 1 
    23   11   12 ar
    24   12   13 1 
    25   13   14 1 
    26   13   37 1 
    27   13   38 1 
    28   14   15 ar
    29   14   28 ar
    30   15   16 ar
    31   15   39 1 
    32   16   17 1 
    33   16   26 ar
    34   17   31 2 
    35   18   19 1 
    36   18   40 1 
    37   18   41 1 
    38   19   42 1 
    39   19   43 1 
    40   20   21 1 
    41   20   44 1 
    42   20   45 1 
    43   21   46 1 
    44   21   47 1 
    45   22   23 1 
    46   22   30 2 
    47   23   24 1 
    48   23   25 1 
    49   23   48 1 
    50   24   25 1 
    51   24   49 1 
    52   24   50 1 
    53   25   51 1 
    54   25   52 1 
    55   26   27 ar
    56   26   32 1 
    57   27   28 ar
    58   27   53 1 
    59   28   54 1 
@<TRIPOS>SUBSTRUCTURE
1 MOL         1
@<TRIPOS>MOLECULE
query molecule
   55    59     1     0     0
SMALL
NO_CHARGE

@<TRIPOS>ATOM
      1 N         -10.5655  -41.0461   10.6957 N.am      1 MOL    -0.2945
      2 N         -11.8520  -40.5528    8.4935 N.am      1 MOL    -0.2983
      3 N          -9.5764  -35.8931   14.6562 N.ar      1 MOL    -0.1750
      4 N          -9.7317  -35.5073   15.8995 N.ar      1 MOL    -0.2425
      5 C          -8.8090  -34.8052   16.5720 C.ar      1 MOL     0.2725
      6 C          -7.6345  -34.4681   15.9313 C.ar      1 MOL     0.0496
      7 C          -6.6324  -33.7555   16.5910 C.ar      1 MOL     0.0138
      8 C          -5.4584  -33.4483   15.9377 C.ar      1 MOL     0.0008
      9 C          -5.3386  -33.8769   14.6326 C.ar      1 MOL     0.0007
     10 C          -6.3244  -34.5849   13.9657 C.ar      1 MOL     0.0103
     11 C          -7.4833  -34.8815   14.6205 C.ar      1 MOL     0.0106
     12 C          -8.4404  -35.5972   13.9524 C.ar      1 MOL     0.0736
     13 C          -8.4216  -36.0266   12.5602 C.3       1 MOL     0.0925
     14 C          -8.1506  -37.4878   12.4664 C.ar      1 MOL    -0.0406
     15 C          -9.2815  -38.3028   12.2806 C.ar      1 MOL     0.0196
     16 C          -9.1343  -39.6663   12.1925 C.ar      1 MOL     0.0723
     17 C         -10.3055  -40.5510   12.0005 C.2       1 MOL     0.2495
     18 C         -11.6827  -41.9056   10.4721 C.3       1 MOL     0.1268
     19 C         -12.1993  -41.8340    9.0512 C.3       1 MOL     0.1265
     20 C         -10.4227  -40.2479    8.3668 C.3       1 MOL     0.1265
     21 C          -9.6807  -40.6631    9.6111 C.3       1 MOL     0.1268
     22 C         -12.8152  -39.6255    8.0855 C.2       1 MOL     0.2187
     23 C         -14.2709  -39.7761    8.1603 C.3       1 MOL     0.0752
     24 C         -14.9453  -39.1500    9.3600 C.3       1 MOL     0.0134
     25 C         -14.9017  -40.6072    9.2191 C.3       1 MOL     0.0134
     26 C          -7.9174  -40.3005   12.2763 C.ar      1 MOL     0.1355
     27 C          -6.8111  -39.5018   12.4583 C.ar      1 MOL     0.0392
     28 C          -6.9579  -38.1102   12.5495 C.ar      1 MOL     0.0066
     29 O          -8.9402  -34.4252   17.7638 O.2       1 MOL    -0.2658
     30 O         -12.4012  -38.5170    7.5905 O.2       1 MOL    -0.2753
     31 O         -11.0632  -40.8707   12.9452 O.2       1 MOL    -0.2699
     32 F          -7.8235  -41.6589   12.1836 F         1 MOL    -0.2047
     33 H          -6.7706  -33.4575   17.5693 H         1 MOL     0.0625
     34 H          -4.7039  -32.9225   16.4040 H         1 MOL     0.0618
     35 H          -4.4671  -33.6585   14.1257 H         1 MOL     0.0618
     36 H          -6.1850  -34.8837   12.9877 H         1 MOL     0.0624
     37 H          -7.6563  -35.4922   12.0370 H         1 MOL     0.0377
     38 H          -9.3780  -35.8257   12.1239 H         1 MOL     0.0377
     39 H         -10.2193  -37.8782   12.2109 H         1 MOL     0.0629
     40 H         -12.4711  -41.6227   11.1383 H         1 MOL     0.0480
     41 H         -11.3578  -42.9104   10.6479 H         1 MOL     0.0480
     42 H         -13.2626  -41.9510    9.0492 H         1 MOL     0.0480
     43 H         -11.7609  -42.6157    8.4662 H         1 MOL     0.0480
     44 H         -10.2983  -39.1957    8.2183 H         1 MOL     0.0480
     45 H         -10.0258  -40.7880    7.5327 H         1 MOL     0.0480
     46 H          -9.0765  -39.8428    9.9385 H         1 MOL     0.0480
     47 H          -9.0902  -41.5189    9.3621 H         1 MOL     0.0480
     48 H         -14.3621  -39.7452    7.0949 H         1 MOL     0.0394
     49 H         -15.8720  -38.6282    9.2412 H         1 MOL     0.0273
     50 H         -14.6504  -38.4524   10.1159 H         1 MOL     0.0273
     51 H         -15.8008  -41.1467    9.0057 H         1 MOL     0.0273
     52 H         -14.5623  -41.4073    9.8419 H         1 MOL     0.0273
     53 H          -5.8731  -39.9279   12.5272 H         1 MOL     0.0646
     54 H          -6.1121  -37.5344   12.6863 H         1 MOL     0.0621
     55 H         -10.5682  -35.7448   16.3619 H         1 MOL     0.1921
@<TRIPOS>BOND
     1    1   18 1 
     2    1   21 1 
     3    1   17 am
     4    2   20 1 
     5    2   22 am
     6    2   19 1 
     7    3    4 ar
     8    3   12 ar
     9    4   55 1 
    10    4    5 ar
    11    5    6 ar
    12    5   29 2 
    13    6    7 ar
    14    6   11 ar
    15    7    8 ar
    16    7   33 1 
    17    8    9 ar
    18    8   34 1 
    19    9   10 ar
    20    9   35 1 
    21   10   11 ar
    22   10   36 1 
    23   11   12 ar
    24   12   13 1 
    25   13   14 1 
    26   13   37 1 
    27   13   38 1 
    28   14   15 ar
    29   14   28 ar
    30   15   16 ar
    31   15   39 1 
    32   16   17 1 
    33   16   26 ar
    34   17   31 2 
    35   18   19 1 
    36   18   40 1 
    37   18   41 1 
    38   19   42 1 
    39   19   43 1 
    40   20   21 1 
    41   20   44 1 
    42   20   45 1 
    43   21   46 1 
    44   21   47 1 
    45   22   23 1 
    46   22   30 2 
    47   23   24 1 
    48   23   25 1 
    49   23   48 1 
    50   24   25 1 
    51   24   49 1 
    52   24   50 1 
    53   25   51 1 
    54   25   52 1 
    55   26   27 ar
    56   26   32 1 
    57   27   28 ar
    58   27   53 1 
    59   28   54 1 
@<TRIPOS>SUBSTRUCTURE
1 MOL         1
@<TRIPOS>MOLECULE
query molecule
   55    59     1     0     0
SMALL
NO_CHARGE

@<TRIPOS>ATOM
      1 N         -57.2143  -28.7860  -14.8066 N.am      1 MOL    -0.2945
      2 N         -56.4034  -31.1914  -14.2544 N.am      1 MOL    -0.2983
      3 N         -60.1778  -27.8926  -10.2236 N.ar      1 MOL    -0.1750
      4 N         -60.2946  -28.6827   -9.1840 N.ar      1 MOL    -0.2425
      5 C         -60.1463  -28.2613   -7.9201 C.ar      1 MOL     0.2725
      6 C         -59.8557  -26.9316   -7.6938 C.ar      1 MOL     0.0496
      7 C         -59.6714  -26.4445   -6.3992 C.ar      1 MOL     0.0138
      8 C         -59.3606  -25.1169   -6.1982 C.ar      1 MOL     0.0008
      9 C         -59.2452  -24.3248   -7.3209 C.ar      1 MOL     0.0007
     10 C         -59.4250  -24.7948   -8.6111 C.ar      1 MOL     0.0103
     11 C         -59.7347  -26.1096   -8.7989 C.ar      1 MOL     0.0106
     12 C         -59.8918  -26.5617  -10.0817 C.ar      1 MOL     0.0736
     13 C         -59.8547  -25.7817  -11.3118 C.3       1 MOL     0.0925
     14 C         -58.4780  -25.7636  -11.8790 C.ar      1 MOL    -0.0406
     15 C         -58.2868  -26.5486  -13.0300 C.ar      1 MOL     0.0196
     16 C         -57.0473  -26.6046  -13.6210 C.ar      1 MOL     0.0723
     17 C         -56.8135  -27.4245  -14.8312 C.2       1 MOL     0.2495
     18 C         -57.0098  -29.6070  -15.9561 C.3       1 MOL     0.1268
     19 C         -56.8762  -31.0743  -15.6093 C.3       1 MOL     0.1265
     20 C         -57.2695  -30.6551  -13.1989 C.3       1 MOL     0.1265
     21 C         -57.8281  -29.3149  -13.6028 C.3       1 MOL     0.1268
     22 C         -55.1781  -31.7839  -13.9353 C.2       1 MOL     0.2187
     23 C         -54.2023  -32.3490  -14.8711 C.3       1 MOL     0.0752
     24 C         -52.9167  -32.8636  -14.2640 C.3       1 MOL     0.0134
     25 C         -52.9008  -31.6754  -15.1203 C.3       1 MOL     0.0134
     26 C         -55.9532  -25.9219  -13.1448 C.ar      1 MOL     0.1355
     27 C         -56.1415  -25.1538  -12.0181 C.ar      1 MOL     0.0392
     28 C         -57.4046  -25.0953  -11.4119 C.ar      1 MOL     0.0066
     29 O         -60.2557  -29.0032   -6.9105 O.2       1 MOL    -0.2658
     30 O         -54.8541  -31.8492  -12.6960 O.2       1 MOL    -0.2753
     31 O         -56.2793  -26.9559  -15.8625 O.2       1 MOL    -0.2699
     32 F         -54.7420  -26.0106  -13.7675 F         1 MOL    -0.2047
     33 H         -59.7684  -27.0788   -5.5910 H         1 MOL     0.0625
     34 H         -59.2203  -24.7337   -5.2512 H         1 MOL     0.0618
     35 H         -59.0118  -23.3282   -7.1927 H         1 MOL     0.0618
     36 H         -59.3266  -24.1600   -9.4191 H         1 MOL     0.0624
     37 H         -60.1625  -24.7786  -11.1023 H         1 MOL     0.0377
     38 H         -60.5145  -26.2303  -12.0252 H         1 MOL     0.0377
     39 H         -59.0748  -27.0815  -13.4295 H         1 MOL     0.0629
     40 H         -56.1151  -29.2885  -16.4496 H         1 MOL     0.0480
     41 H         -57.8686  -29.5004  -16.5863 H         1 MOL     0.0480
     42 H         -56.1795  -31.5388  -16.2750 H         1 MOL     0.0480
     43 H         -57.8263  -31.5575  -15.7054 H         1 MOL     0.0480
     44 H         -56.7011  -30.5422  -12.2996 H         1 MOL     0.0480
     45 H         -58.0819  -31.3331  -13.0396 H         1 MOL     0.0480
     46 H         -57.6638  -28.6215  -12.8044 H         1 MOL     0.0480
     47 H         -58.8691  -29.4492  -13.8064 H         1 MOL     0.0480
     48 H         -54.9778  -32.7147  -15.5108 H         1 MOL     0.0394
     49 H         -52.4896  -33.7807  -14.6129 H         1 MOL     0.0273
     50 H         -52.5844  -33.0873  -13.2718 H         1 MOL     0.0273
     51 H         -52.4533  -31.7271  -16.0909 H         1 MOL     0.0273
     52 H         -52.5427  -30.6749  -15.0018 H         1 MOL     0.0273
     53 H         -55.3521  -24.6205  -11.6196 H         1 MOL     0.0646
     54 H         -57.5186  -24.5120  -10.5679 H         1 MOL     0.0621
     55 H         -60.5023  -29.6327   -9.3394 H         1 MOL     0.1921
@<TRIPOS>BOND
     1    1   18 1 
     2    1   21 1 
     3    1   17 am
     4    2   20 1 
     5    2   22 am
     6    2   19 1 
     7    3    4 ar
     8    3   12 ar
     9    4   55 1 
    10    4    5 ar
    11    5    6 ar
    12    5   29 2 
    13    6    7 ar
    14    6   11 ar
    15    7    8 ar
    16    7   33 1 
    17    8    9 ar
    18    8   34 1 
    19    9   10 ar
    20    9   35 1 
    21   10   11 ar
    22   10   36 1 
    23   11   12 ar
    24   12   13 1 
    25   13   14 1 
    26   13   37 1 
    27   13   38 1 
    28   14   15 ar
    29   14   28 ar
    30   15   16 ar
    31   15   39 1 
    32   16   17 1 
    33   16   26 ar
    34   17   31 2 
    35   18   19 1 
    36   18   40 1 
    37   18   41 1 
    38   19   42 1 
    39   19   43 1 
    40   20   21 1 
    41   20   44 1 
    42   20   45 1 
    43   21   46 1 
    44   21   47 1 
    45   22   23 1 
    46   22   30 2 
    47   23   24 1 
    48   23   25 1 
    49   23   48 1 
    50   24   25 1 
    51   24   49 1 
    52   24   50 1 
    53   25   51 1 
    54   25   52 1 
    55   26   27 ar
    56   26   32 1 
    57   27   28 ar
    58   27   53 1 
    59   28   54 1 
@<TRIPOS>SUBSTRUCTURE
1 MOL         1
@<TRIPOS>MOLECULE
query molecule
   55    59     1     0     0
SMALL
NO_CHARGE

@<TRIPOS>ATOM
      1 N         -57.9122  -81.9650   -3.6433 N.am      1 MOL    -0.2945
      2 N         -59.9720  -80.5175   -4.2841 N.am      1 MOL    -0.2983
      3 N         -56.1209  -79.2729   -7.9221 N.ar      1 MOL    -0.1750
      4 N         -57.2415  -78.6084   -8.0689 N.ar      1 MOL    -0.2425
      5 C         -58.3186  -79.1115   -8.6883 C.ar      1 MOL     0.2725
      6 C         -58.2526  -80.3912   -9.1998 C.ar      1 MOL     0.0496
      7 C         -59.3378  -80.9557   -9.8711 C.ar      1 MOL     0.0138
      8 C         -59.2419  -82.2279  -10.3926 C.ar      1 MOL     0.0008
      9 C         -58.0437  -82.8872  -10.2165 C.ar      1 MOL     0.0007
     10 C         -56.9588  -82.3391   -9.5529 C.ar      1 MOL     0.0103
     11 C         -57.0650  -81.0806   -9.0385 C.ar      1 MOL     0.0106
     12 C         -55.9772  -80.5470   -8.4008 C.ar      1 MOL     0.0736
     13 C         -54.7054  -81.1975   -8.1137 C.3       1 MOL     0.0925
     14 C         -54.8468  -82.1436   -6.9726 C.ar      1 MOL    -0.0406
     15 C         -55.5677  -81.6564   -5.8678 C.ar      1 MOL     0.0196
     16 C         -55.7431  -82.4524   -4.7613 C.ar      1 MOL     0.0723
     17 C         -56.4941  -81.9671   -3.5815 C.2       1 MOL     0.2495
     18 C         -58.6709  -81.5088   -2.5238 C.3       1 MOL     0.1268
     19 C         -60.0299  -80.9721   -2.9191 C.3       1 MOL     0.1265
     20 C         -59.6768  -81.5248   -5.3088 C.3       1 MOL     0.1265
     21 C         -58.5621  -82.4314   -4.8541 C.3       1 MOL     0.1268
     22 C         -60.1827  -79.1822   -4.6402 C.2       1 MOL     0.2187
     23 C         -60.4710  -78.0644   -3.7377 C.3       1 MOL     0.0752
     24 C         -61.0548  -76.8247   -4.3768 C.3       1 MOL     0.0134
     25 C         -59.7008  -76.7956   -3.8192 C.3       1 MOL     0.0134
     26 C         -55.2449  -83.7301   -4.6647 C.ar      1 MOL     0.1355
     27 C         -54.5393  -84.2059   -5.7467 C.ar      1 MOL     0.0392
     28 C         -54.3576  -83.3960   -6.8769 C.ar      1 MOL     0.0066
     29 O         -59.4020  -78.4905   -8.8377 O.2       1 MOL    -0.2658
     30 O         -60.1205  -78.8822   -5.8858 O.2       1 MOL    -0.2753
     31 O         -55.9201  -81.5638   -2.5439 O.2       1 MOL    -0.2699
     32 F         -55.4456  -84.4812   -3.5430 F         1 MOL    -0.2047
     33 H         -60.2138  -80.4205   -9.9769 H         1 MOL     0.0625
     34 H         -60.0302  -82.6664  -10.8921 H         1 MOL     0.0618
     35 H         -57.9504  -83.8401  -10.6003 H         1 MOL     0.0618
     36 H         -56.0826  -82.8747   -9.4485 H         1 MOL     0.0624
     37 H         -53.9772  -80.4535   -7.8662 H         1 MOL     0.0377
     38 H         -54.3951  -81.7461   -8.9787 H         1 MOL     0.0377
     39 H         -55.9637  -80.7038   -5.8877 H         1 MOL     0.0629
     40 H         -58.1240  -80.7301   -2.0339 H         1 MOL     0.0480
     41 H         -58.8298  -82.3475   -1.8777 H         1 MOL     0.0480
     42 H         -60.2942  -80.1568   -2.2792 H         1 MOL     0.0480
     43 H         -60.7659  -81.7434   -2.8242 H         1 MOL     0.0480
     44 H         -59.3833  -81.0332   -6.2125 H         1 MOL     0.0480
     45 H         -60.5536  -82.1146   -5.4774 H         1 MOL     0.0480
     46 H         -57.8300  -82.4896   -5.6324 H         1 MOL     0.0480
     47 H         -58.9925  -83.3863   -4.6392 H         1 MOL     0.0480
     48 H         -60.7123  -78.7304   -2.9361 H         1 MOL     0.0394
     49 H         -61.8459  -76.2934   -3.8899 H         1 MOL     0.0273
     50 H         -61.4878  -76.5957   -5.3282 H         1 MOL     0.0273
     51 H         -59.5056  -76.2346   -2.9291 H         1 MOL     0.0273
     52 H         -58.7402  -76.5284   -4.2055 H         1 MOL     0.0273
     53 H         -54.1441  -85.1596   -5.7257 H         1 MOL     0.0646
     54 H         -53.8243  -83.7769   -7.6744 H         1 MOL     0.0621
     55 H         -57.2945  -77.6947   -7.7055 H         1 MOL     0.1921
@<TRIPOS>BOND
     1    1   18 1 
     2    1   21 1 
     3    1   17 am
     4    2   20 1 
     5    2   22 am
     6    2   19 1 
     7    3    4 ar
     8    3   12 ar
     9    4   55 1 
    10    4    5 ar
    11    5    6 ar
    12    5   29 2 
    13    6    7 ar
    14    6   11 ar
    15    7    8 ar
    16    7   33 1 
    17    8    9 ar
    18    8   34 1 
    19    9   10 ar
    20    9   35 1 
    21   10   11 ar
    22   10   36 1 
    23   11   12 ar
    24   12   13 1 
    25   13   14 1 
    26   13   37 1 
    27   13   38 1 
    28   14   15 ar
    29   14   28 ar
    30   15   16 ar
    31   15   39 1 
    32   16   17 1 
    33   16   26 ar
    34   17   31 2 
    35   18   19 1 
    36   18   40 1 
    37   18   41 1 
    38   19   42 1 
    39   19   43 1 
    40   20   21 1 
    41   20   44 1 
    42   20   45 1 
    43   21   46 1 
    44   21   47 1 
    45   22   23 1 
    46   22   30 2 
    47   23   24 1 
    48   23   25 1 
    49   23   48 1 
    50   24   25 1 
    51   24   49 1 
    52   24   50 1 
    53   25   51 1 
    54   25   52 1 
    55   26   27 ar
    56   26   32 1 
    57   27   28 ar
    58   27   53 1 
    59   28   54 1 
@<TRIPOS>SUBSTRUCTURE
1 MOL         1
@<TRIPOS>MOLECULE
query molecule
   55    59     1     0     0
SMALL
NO_CHARGE

@<TRIPOS>ATOM
      1 N          -4.6545  -56.9112   32.4040 N.am      1 MOL    -0.2945
      2 N          -2.7668  -58.0230   31.0079 N.am      1 MOL    -0.2983
      3 N          -6.6623  -54.2685   27.7184 N.ar      1 MOL    -0.1750
      4 N          -7.4118  -55.0195   26.9485 N.ar      1 MOL    -0.2425
      5 C          -8.7418  -54.8805   26.8559 C.ar      1 MOL     0.2725
      6 C          -9.3603  -53.9009   27.6053 C.ar      1 MOL     0.0496
      7 C         -10.7440  -53.7263   27.5618 C.ar      1 MOL     0.0138
      8 C         -11.3426  -52.7553   28.3353 C.ar      1 MOL     0.0008
      9 C         -10.5152  -51.9918   29.1313 C.ar      1 MOL     0.0007
     10 C          -9.1409  -52.1543   29.1847 C.ar      1 MOL     0.0103
     11 C          -8.5583  -53.1163   28.4133 C.ar      1 MOL     0.0106
     12 C          -7.2006  -53.2754   28.4912 C.ar      1 MOL     0.0736
     13 C          -6.2516  -52.4712   29.2499 C.3       1 MOL     0.0925
     14 C          -6.1798  -52.9391   30.6617 C.ar      1 MOL    -0.0406
     15 C          -6.0926  -54.3320   30.8344 C.ar      1 MOL     0.0196
     16 C          -6.0321  -54.8612   32.1013 C.ar      1 MOL     0.0723
     17 C          -5.9434  -56.3232   32.3158 C.2       1 MOL     0.2495
     18 C          -4.5285  -58.3171   32.6153 C.3       1 MOL     0.1268
     19 C          -3.2310  -58.8754   32.0715 C.3       1 MOL     0.1265
     20 C          -2.4364  -56.6382   31.3615 C.3       1 MOL     0.1265
     21 C          -3.4855  -56.0610   32.2767 C.3       1 MOL     0.1268
     22 C          -2.6304  -58.4721   29.6911 C.2       1 MOL     0.2187
     23 C          -2.9314  -59.8125   29.1816 C.3       1 MOL     0.0752
     24 C          -2.8507  -60.9409   30.1847 C.3       1 MOL     0.0134
     25 C          -1.8748  -60.8547   29.0959 C.3       1 MOL     0.0134
     26 C          -6.0512  -54.0930   33.2412 C.ar      1 MOL     0.1355
     27 C          -6.1365  -52.7296   33.0710 C.ar      1 MOL     0.0392
     28 C          -6.1995  -52.1864   31.7798 C.ar      1 MOL     0.0066
     29 O          -9.4771  -55.5899   26.1225 O.2       1 MOL    -0.2658
     30 O          -2.1976  -57.6362   28.8198 O.2       1 MOL    -0.2753
     31 O          -6.9610  -57.0459   32.4204 O.2       1 MOL    -0.2699
     32 F          -5.9895  -54.6667   34.4781 F         1 MOL    -0.2047
     33 H         -11.3202  -54.3245   26.9492 H         1 MOL     0.0625
     34 H         -12.3630  -52.6070   28.3198 H         1 MOL     0.0618
     35 H         -10.9432  -51.2602   29.7193 H         1 MOL     0.0618
     36 H          -8.5654  -51.5564   29.7985 H         1 MOL     0.0624
     37 H          -6.5647  -51.4481   29.2335 H         1 MOL     0.0377
     38 H          -5.2830  -52.5693   28.8055 H         1 MOL     0.0377
     39 H          -6.0746  -54.9550   30.0121 H         1 MOL     0.0629
     40 H          -5.3445  -58.8108   32.1296 H         1 MOL     0.0480
     41 H          -4.5360  -58.4871   33.6722 H         1 MOL     0.0480
     42 H          -3.3945  -59.8633   31.6954 H         1 MOL     0.0480
     43 H          -2.4986  -58.9152   32.8509 H         1 MOL     0.0480
     44 H          -2.3854  -56.0491   30.4699 H         1 MOL     0.0480
     45 H          -1.4934  -56.6253   31.8670 H         1 MOL     0.0480
     46 H          -3.7948  -55.1135   31.8872 H         1 MOL     0.0480
     47 H          -3.0485  -55.9694   33.2482 H         1 MOL     0.0480
     48 H          -3.6419  -59.4236   28.4828 H         1 MOL     0.0394
     49 H          -3.5902  -61.7145   30.1807 H         1 MOL     0.0273
     50 H          -2.7927  -61.0030   31.2513 H         1 MOL     0.0273
     51 H          -1.9000  -61.5726   28.3029 H         1 MOL     0.0273
     52 H          -0.8067  -60.8336   29.0510 H         1 MOL     0.0273
     53 H          -6.1540  -52.1072   33.8947 H         1 MOL     0.0646
     54 H          -6.2634  -51.1610   31.6802 H         1 MOL     0.0621
     55 H          -6.9758  -55.7202   26.4110 H         1 MOL     0.1921
@<TRIPOS>BOND
     1    1   18 1 
     2    1   21 1 
     3    1   17 am
     4    2   20 1 
     5    2   22 am
     6    2   19 1 
     7    3    4 ar
     8    3   12 ar
     9    4   55 1 
    10    4    5 ar
    11    5    6 ar
    12    5   29 2 
    13    6    7 ar
    14    6   11 ar
    15    7    8 ar
    16    7   33 1 
    17    8    9 ar
    18    8   34 1 
    19    9   10 ar
    20    9   35 1 
    21   10   11 ar
    22   10   36 1 
    23   11   12 ar
    24   12   13 1 
    25   13   14 1 
    26   13   37 1 
    27   13   38 1 
    28   14   15 ar
    29   14   28 ar
    30   15   16 ar
    31   15   39 1 
    32   16   17 1 
    33   16   26 ar
    34   17   31 2 
    35   18   19 1 
    36   18   40 1 
    37   18   41 1 
    38   19   42 1 
    39   19   43 1 
    40   20   21 1 
    41   20   44 1 
    42   20   45 1 
    43   21   46 1 
    44   21   47 1 
    45   22   23 1 
    46   22   30 2 
    47   23   24 1 
    48   23   25 1 
    49   23   48 1 
    50   24   25 1 
    51   24   49 1 
    52   24   50 1 
    53   25   51 1 
    54   25   52 1 
    55   26   27 ar
    56   26   32 1 
    57   27   28 ar
    58   27   53 1 
    59   28   54 1 
@<TRIPOS>SUBSTRUCTURE
1 MOL         1
@<TRIPOS>MOLECULE
query molecule
   55    59     1     0     0
SMALL
NO_CHARGE

@<TRIPOS>ATOM
      1 N         -42.5968  -38.0281   27.9595 N.am      1 MOL    -0.2945
      2 N         -44.7295  -37.1379   29.1458 N.am      1 MOL    -0.2983
      3 N         -41.6730  -37.8110   22.4132 N.ar      1 MOL    -0.1750
      4 N         -42.5682  -38.7370   22.1686 N.ar      1 MOL    -0.2425
      5 C         -42.3897  -40.0304   22.4723 C.ar      1 MOL     0.2725
      6 C         -41.2078  -40.4143   23.0717 C.ar      1 MOL     0.0496
      7 C         -40.9623  -41.7504   23.3906 C.ar      1 MOL     0.0138
      8 C         -39.7656  -42.1140   23.9696 C.ar      1 MOL     0.0008
      9 C         -38.8536  -41.1070   24.2054 C.ar      1 MOL     0.0007
     10 C         -39.0838  -39.7774   23.8939 C.ar      1 MOL     0.0103
     11 C         -40.2722  -39.4279   23.3236 C.ar      1 MOL     0.0106
     12 C         -40.4766  -38.1119   23.0058 C.ar      1 MOL     0.0736
     13 C         -39.5986  -36.9823   23.2819 C.3       1 MOL     0.0925
     14 C         -39.8706  -36.4264   24.6362 C.ar      1 MOL    -0.0406
     15 C         -40.3691  -37.3437   25.5785 C.ar      1 MOL     0.0196
     16 C         -40.6607  -36.9229   26.8539 C.ar      1 MOL     0.0723
     17 C         -41.1899  -37.8635   27.8671 C.2       1 MOL     0.2495
     18 C         -43.1444  -38.9297   28.9208 C.3       1 MOL     0.1268
     19 C         -44.5489  -38.5530   29.3410 C.3       1 MOL     0.1265
     20 C         -44.6245  -36.6372   27.7710 C.3       1 MOL     0.1265
     21 C         -43.4519  -37.2691   27.0659 C.3       1 MOL     0.1268
     22 C         -44.9926  -36.2618   30.2029 C.2       1 MOL     0.2187
     23 C         -45.1119  -36.6044   31.6226 C.3       1 MOL     0.0752
     24 C         -43.8517  -37.0960   32.2981 C.3       1 MOL     0.0134
     25 C         -44.9758  -38.0104   32.0855 C.3       1 MOL     0.0134
     26 C         -40.4901  -35.6263   27.2778 C.ar      1 MOL     0.1355
     27 C         -40.0022  -34.7293   26.3547 C.ar      1 MOL     0.0392
     28 C         -39.7046  -35.1550   25.0522 C.ar      1 MOL     0.0066
     29 O         -43.2366  -40.9325   22.2468 O.2       1 MOL    -0.2658
     30 O         -45.1488  -35.0202   29.9211 O.2       1 MOL    -0.2753
     31 O         -40.4403  -38.5098   28.6347 O.2       1 MOL    -0.2699
     32 F         -40.7953  -35.2575   28.5559 F         1 MOL    -0.2047
     33 H         -41.6778  -42.4674   23.1933 H         1 MOL     0.0625
     34 H         -39.5614  -43.0946   24.2146 H         1 MOL     0.0618
     35 H         -37.9509  -41.3579   24.6370 H         1 MOL     0.0618
     36 H         -38.3672  -39.0611   24.0904 H         1 MOL     0.0624
     37 H         -39.7637  -36.2204   22.5489 H         1 MOL     0.0377
     38 H         -38.5829  -37.3174   23.2455 H         1 MOL     0.0377
     39 H         -40.5159  -38.3298   25.3129 H         1 MOL     0.0629
     40 H         -42.5158  -38.9300   29.7870 H         1 MOL     0.0480
     41 H         -43.1915  -39.8977   28.4659 H         1 MOL     0.0480
     42 H         -44.6923  -38.7951   30.3730 H         1 MOL     0.0480
     43 H         -45.2607  -39.0944   28.7531 H         1 MOL     0.0480
     44 H         -44.4918  -35.5758   27.7913 H         1 MOL     0.0480
     45 H         -45.5202  -36.8874   27.2418 H         1 MOL     0.0480
     46 H         -42.8683  -36.4952   26.6124 H         1 MOL     0.0480
     47 H         -43.8428  -37.9507   26.3408 H         1 MOL     0.0480
     48 H         -45.8489  -35.8449   31.7782 H         1 MOL     0.0394
     49 H         -43.6104  -36.7650   33.2868 H         1 MOL     0.0273
     50 H         -42.8115  -37.1024   32.0474 H         1 MOL     0.0273
     51 H         -45.5479  -38.3516   32.9230 H         1 MOL     0.0273
     52 H         -45.0827  -38.9650   31.6159 H         1 MOL     0.0273
     53 H         -39.8552  -33.7428   26.6220 H         1 MOL     0.0646
     54 H         -39.3403  -34.4620   24.3794 H         1 MOL     0.0621
     55 H         -43.4139  -38.4688   21.7412 H         1 MOL     0.1921
@<TRIPOS>BOND
     1    1   18 1 
     2    1   21 1 
     3    1   17 am
     4    2   20 1 
     5    2   22 am
     6    2   19 1 
     7    3    4 ar
     8    3   12 ar
     9    4   55 1 
    10    4    5 ar
    11    5    6 ar
    12    5   29 2 
    13    6    7 ar
    14    6   11 ar
    15    7    8 ar
    16    7   33 1 
    17    8    9 ar
    18    8   34 1 
    19    9   10 ar
    20    9   35 1 
    21   10   11 ar
    22   10   36 1 
    23   11   12 ar
    24   12   13 1 
    25   13   14 1 
    26   13   37 1 
    27   13   38 1 
    28   14   15 ar
    29   14   28 ar
    30   15   16 ar
    31   15   39 1 
    32   16   17 1 
    33   16   26 ar
    34   17   31 2 
    35   18   19 1 
    36   18   40 1 
    37   18   41 1 
    38   19   42 1 
    39   19   43 1 
    40   20   21 1 
    41   20   44 1 
    42   20   45 1 
    43   21   46 1 
    44   21   47 1 
    45   22   23 1 
    46   22   30 2 
    47   23   24 1 
    48   23   25 1 
    49   23   48 1 
    50   24   25 1 
    51   24   49 1 
    52   24   50 1 
    53   25   51 1 
    54   25   52 1 
    55   26   27 ar
    56   26   32 1 
    57   27   28 ar
    58   27   53 1 
    59   28   54 1 
@<TRIPOS>SUBSTRUCTURE
1 MOL         1
@<TRIPOS>MOLECULE
query molecule
   55    59     1     0     0
SMALL
NO_CHARGE

@<TRIPOS>ATOM
      1 N         -33.6778  -40.1816   25.6575 N.am      1 MOL    -0.2945
      2 N         -35.5893  -41.2298   24.2448 N.am      1 MOL    -0.2983
      3 N         -27.8381  -40.3358   25.6888 N.ar      1 MOL    -0.1750
      4 N         -26.9803  -40.3520   26.6800 N.ar      1 MOL    -0.2425
      5 C         -25.9754  -39.4726   26.7970 C.ar      1 MOL     0.2725
      6 C         -25.8295  -38.4992   25.8301 C.ar      1 MOL     0.0496
      7 C         -24.7890  -37.5715   25.8927 C.ar      1 MOL     0.0138
      8 C         -24.6502  -36.6212   24.9042 C.ar      1 MOL     0.0008
      9 C         -25.5736  -36.6444   23.8805 C.ar      1 MOL     0.0007
     10 C         -26.6107  -37.5591   23.8055 C.ar      1 MOL     0.0103
     11 C         -26.7406  -38.4937   24.7901 C.ar      1 MOL     0.0106
     12 C         -27.7607  -39.4016   24.6916 C.ar      1 MOL     0.0736
     13 C         -28.8135  -39.4527   23.6855 C.3       1 MOL     0.0925
     14 C         -29.9358  -38.5466   24.0553 C.ar      1 MOL    -0.0406
     15 C         -30.9434  -39.1233   24.8488 C.ar      1 MOL     0.0196
     16 C         -32.0263  -38.3692   25.2330 C.ar      1 MOL     0.0723
     17 C         -33.1049  -38.9486   26.0652 C.2       1 MOL     0.2495
     18 C         -34.7166  -40.7738   26.4367 C.3       1 MOL     0.1268
     19 C         -35.6261  -41.6639   25.6172 C.3       1 MOL     0.1265
     20 C         -34.2971  -41.3125   23.5554 C.3       1 MOL     0.1265
     21 C         -33.1886  -40.8163   24.4476 C.3       1 MOL     0.1268
     22 C         -36.7200  -40.7470   23.5795 C.2       1 MOL     0.2187
     23 C         -38.0682  -40.5914   24.1320 C.3       1 MOL     0.0752
     24 C         -38.4185  -39.2184   24.6594 C.3       1 MOL     0.0134
     25 C         -38.2780  -40.3463   25.5831 C.3       1 MOL     0.0134
     26 C         -32.1900  -37.0504   24.8811 C.ar      1 MOL     0.1355
     27 C         -31.2030  -36.4869   24.1044 C.ar      1 MOL     0.0392
     28 C         -30.0973  -37.2538   23.7098 C.ar      1 MOL     0.0066
     29 O         -25.1438  -39.4713   27.7406 O.2       1 MOL    -0.2658
     30 O         -36.5837  -40.3963   22.3533 O.2       1 MOL    -0.2753
     31 O         -33.5201  -38.3881   27.1055 O.2       1 MOL    -0.2699
     32 F         -33.2846  -36.3438   25.2876 F         1 MOL    -0.2047
     33 H         -24.1229  -37.5963   26.6805 H         1 MOL     0.0625
     34 H         -23.8899  -35.9251   24.9289 H         1 MOL     0.0618
     35 H         -25.4870  -35.9424   23.1296 H         1 MOL     0.0618
     36 H         -27.2759  -37.5344   23.0167 H         1 MOL     0.0624
     37 H         -29.1804  -40.4550   23.6102 H         1 MOL     0.0377
     38 H         -28.4098  -39.1345   22.7468 H         1 MOL     0.0377
     39 H         -30.8702  -40.1100   25.1415 H         1 MOL     0.0629
     40 H         -35.3040  -39.9933   26.8740 H         1 MOL     0.0480
     41 H         -34.2525  -41.3851   27.1830 H         1 MOL     0.0480
     42 H         -36.6266  -41.5954   25.9895 H         1 MOL     0.0480
     43 H         -35.2968  -42.6799   25.6857 H         1 MOL     0.0480
     44 H         -34.3307  -40.7128   22.6701 H         1 MOL     0.0480
     45 H         -34.1044  -42.3342   23.3022 H         1 MOL     0.0480
     46 H         -32.6040  -40.1046   23.9027 H         1 MOL     0.0480
     47 H         -32.6098  -41.6654   24.7428 H         1 MOL     0.0480
     48 H         -38.4703  -41.2993   23.4381 H         1 MOL     0.0394
     49 H         -39.3851  -38.8015   24.4666 H         1 MOL     0.0273
     50 H         -37.9836  -38.2438   24.5814 H         1 MOL     0.0273
     51 H         -39.1439  -40.7448   26.0694 H         1 MOL     0.0273
     52 H         -37.6956  -40.5228   26.4623 H         1 MOL     0.0273
     53 H         -31.2773  -35.4992   23.8126 H         1 MOL     0.0646
     54 H         -29.3717  -36.8070   23.1272 H         1 MOL     0.0621
     55 H         -27.0796  -41.0443   27.3733 H         1 MOL     0.1921
@<TRIPOS>BOND
     1    1   18 1 
     2    1   21 1 
     3    1   17 am
     4    2   20 1 
     5    2   22 am
     6    2   19 1 
     7    3    4 ar
     8    3   12 ar
     9    4   55 1 
    10    4    5 ar
    11    5    6 ar
    12    5   29 2 
    13    6    7 ar
    14    6   11 ar
    15    7    8 ar
    16    7   33 1 
    17    8    9 ar
    18    8   34 1 
    19    9   10 ar
    20    9   35 1 
    21   10   11 ar
    22   10   36 1 
    23   11   12 ar
    24   12   13 1 
    25   13   14 1 
    26   13   37 1 
    27   13   38 1 
    28   14   15 ar
    29   14   28 ar
    30   15   16 ar
    31   15   39 1 
    32   16   17 1 
    33   16   26 ar
    34   17   31 2 
    35   18   19 1 
    36   18   40 1 
    37   18   41 1 
    38   19   42 1 
    39   19   43 1 
    40   20   21 1 
    41   20   44 1 
    42   20   45 1 
    43   21   46 1 
    44   21   47 1 
    45   22   23 1 
    46   22   30 2 
    47   23   24 1 
    48   23   25 1 
    49   23   48 1 
    50   24   25 1 
    51   24   49 1 
    52   24   50 1 
    53   25   51 1 
    54   25   52 1 
    55   26   27 ar
    56   26   32 1 
    57   27   28 ar
    58   27   53 1 
    59   28   54 1 
@<TRIPOS>SUBSTRUCTURE
1 MOL         1
@<TRIPOS>MOLECULE
query molecule
   55    59     1     0     0
SMALL
NO_CHARGE

@<TRIPOS>ATOM
      1 N          -9.3665  -35.8350   14.1344 N.am      1 MOL    -0.2945
      2 N         -10.4939  -37.4409   15.8368 N.am      1 MOL    -0.2983
      3 N          -6.8520  -38.3187    7.4023 N.ar      1 MOL    -0.1750
      4 N          -6.0536  -38.4210    6.3676 N.ar      1 MOL    -0.2425
      5 C          -5.0579  -39.3154    6.2930 C.ar      1 MOL     0.2725
      6 C          -4.8565  -40.1741    7.3539 C.ar      1 MOL     0.0496
      7 C          -3.8221  -41.1106    7.3367 C.ar      1 MOL     0.0138
      8 C          -3.6264  -41.9439    8.4169 C.ar      1 MOL     0.0008
      9 C          -4.4884  -41.7982    9.4832 C.ar      1 MOL     0.0007
     10 C          -5.5186  -40.8732    9.5140 C.ar      1 MOL     0.0103
     11 C          -5.7052  -40.0552    8.4390 C.ar      1 MOL     0.0106
     12 C          -6.7172  -39.1345    8.4929 C.ar      1 MOL     0.0736
     13 C          -7.7092  -38.9621    9.5461 C.3       1 MOL     0.0925
     14 C          -7.3334  -37.8318   10.4396 C.ar      1 MOL    -0.0406
     15 C          -8.3946  -37.2424   11.1497 C.ar      1 MOL     0.0196
     16 C          -8.1491  -36.1850   11.9924 C.ar      1 MOL     0.0723
     17 C          -9.2453  -35.5412   12.7509 C.2       1 MOL     0.2495
     18 C         -10.4079  -35.2298   14.9000 C.3       1 MOL     0.1268
     19 C         -10.8088  -36.0608   16.1000 C.3       1 MOL     0.1265
     20 C          -9.0799  -37.7732   15.6318 C.3       1 MOL     0.1265
     21 C          -8.4197  -36.7514   14.7423 C.3       1 MOL     0.1268
     22 C         -11.4740  -38.4357   15.7737 C.2       1 MOL     0.2187
     23 C         -12.9192  -38.2609   15.9411 C.3       1 MOL     0.0752
     24 C         -13.4804  -36.9182   15.5309 C.3       1 MOL     0.0134
     25 C         -13.4646  -37.3075   16.9428 C.3       1 MOL     0.0134
     26 C          -6.8968  -35.6533   12.1905 C.ar      1 MOL     0.1355
     27 C          -5.8589  -36.2309   11.4949 C.ar      1 MOL     0.0392
     28 C          -6.1060  -37.3094   10.6334 C.ar      1 MOL     0.0066
     29 O          -4.2829  -39.4296    5.3090 O.2       1 MOL    -0.2658
     30 O         -11.0876  -39.6372   15.5448 O.2       1 MOL    -0.2753
     31 O         -10.0579  -34.7547   12.2126 O.2       1 MOL    -0.2699
     32 F          -6.7046  -34.6012   13.0384 F         1 MOL    -0.2047
     33 H          -3.2032  -41.1800    6.5139 H         1 MOL     0.0625
     34 H          -2.8694  -42.6440    8.4273 H         1 MOL     0.0618
     35 H          -4.3585  -42.4113   10.3026 H         1 MOL     0.0618
     36 H          -6.1365  -40.8036   10.3378 H         1 MOL     0.0624
     37 H          -7.7707  -39.8614   10.1227 H         1 MOL     0.0377
     38 H          -8.6558  -38.7448    9.0965 H         1 MOL     0.0377
     39 H          -9.3549  -37.6028   11.0381 H         1 MOL     0.0629
     40 H         -11.2642  -35.1002   14.2712 H         1 MOL     0.0480
     41 H         -10.0389  -34.2930   15.2639 H         1 MOL     0.0480
     42 H         -11.8593  -35.9581   16.2733 H         1 MOL     0.0480
     43 H         -10.2775  -35.7259   16.9666 H         1 MOL     0.0480
     44 H          -9.0069  -38.7373   15.1737 H         1 MOL     0.0480
     45 H          -8.5838  -37.7765   16.5800 H         1 MOL     0.0480
     46 H          -7.8949  -37.2644   13.9635 H         1 MOL     0.0480
     47 H          -7.7604  -36.1723   15.3531 H         1 MOL     0.0480
     48 H         -13.1021  -39.2935   15.7299 H         1 MOL     0.0394
     49 H         -14.4084  -36.8654   15.0005 H         1 MOL     0.0273
     50 H         -13.1137  -36.0835   14.9707 H         1 MOL     0.0273
     51 H         -14.3846  -37.5302   17.4420 H         1 MOL     0.0273
     52 H         -13.0811  -36.8615   17.8356 H         1 MOL     0.0273
     53 H          -4.8982  -35.8697   11.6080 H         1 MOL     0.0646
     54 H          -5.3099  -37.7239   10.1235 H         1 MOL     0.0621
     55 H          -6.1928  -37.8109    5.6072 H         1 MOL     0.1921
@<TRIPOS>BOND
     1    1   18 1 
     2    1   21 1 
     3    1   17 am
     4    2   20 1 
     5    2   22 am
     6    2   19 1 
     7    3    4 ar
     8    3   12 ar
     9    4   55 1 
    10    4    5 ar
    11    5    6 ar
    12    5   29 2 
    13    6    7 ar
    14    6   11 ar
    15    7    8 ar
    16    7   33 1 
    17    8    9 ar
    18    8   34 1 
    19    9   10 ar
    20    9   35 1 
    21   10   11 ar
    22   10   36 1 
    23   11   12 ar
    24   12   13 1 
    25   13   14 1 
    26   13   37 1 
    27   13   38 1 
    28   14   15 ar
    29   14   28 ar
    30   15   16 ar
    31   15   39 1 
    32   16   17 1 
    33   16   26 ar
    34   17   31 2 
    35   18   19 1 
    36   18   40 1 
    37   18   41 1 
    38   19   42 1 
    39   19   43 1 
    40   20   21 1 
    41   20   44 1 
    42   20   45 1 
    43   21   46 1 
    44   21   47 1 
    45   22   23 1 
    46   22   30 2 
    47   23   24 1 
    48   23   25 1 
    49   23   48 1 
    50   24   25 1 
    51   24   49 1 
    52   24   50 1 
    53   25   51 1 
    54   25   52 1 
    55   26   27 ar
    56   26   32 1 
    57   27   28 ar
    58   27   53 1 
    59   28   54 1 
@<TRIPOS>SUBSTRUCTURE
1 MOL         1
@<TRIPOS>MOLECULE
query molecule
   55    59     1     0     0
SMALL
NO_CHARGE

@<TRIPOS>ATOM
      1 N         -59.8776  -79.2985   -0.1528 N.am      1 MOL    -0.2945
      2 N         -61.4495  -78.1806   -1.8929 N.am      1 MOL    -0.2983
      3 N         -52.4217  -80.1731    1.2369 N.ar      1 MOL    -0.1750
      4 N         -51.1676  -79.8134    1.1091 N.ar      1 MOL    -0.2425
      5 C         -50.4351  -80.0762    0.0176 C.ar      1 MOL     0.2725
      6 C         -51.0228  -80.7590   -1.0274 C.ar      1 MOL     0.0496
      7 C         -50.3001  -81.0759   -2.1782 C.ar      1 MOL     0.0138
      8 C         -50.9018  -81.7774   -3.2007 C.ar      1 MOL     0.0008
      9 C         -52.2208  -82.1369   -3.0207 C.ar      1 MOL     0.0007
     10 C         -52.9498  -81.8295   -1.8841 C.ar      1 MOL     0.0103
     11 C         -52.3458  -81.1328   -0.8793 C.ar      1 MOL     0.0106
     12 C         -53.0754  -80.8524    0.2447 C.ar      1 MOL     0.0736
     13 C         -54.4846  -81.1343    0.4852 C.3       1 MOL     0.0925
     14 C         -55.3062  -79.9097    0.2791 C.ar      1 MOL    -0.0406
     15 C         -56.6582  -80.0178    0.6508 C.ar      1 MOL     0.0196
     16 C         -57.4996  -78.9434    0.4887 C.ar      1 MOL     0.0723
     17 C         -58.9283  -79.0272    0.8671 C.2       1 MOL     0.2495
     18 C         -61.2638  -79.3916    0.1742 C.3       1 MOL     0.1268
     19 C         -62.1635  -79.0496   -0.9940 C.3       1 MOL     0.1265
     20 C         -60.2410  -78.7233   -2.5231 C.3       1 MOL     0.1265
     21 C         -59.4115  -79.4767   -1.5154 C.3       1 MOL     0.1268
     22 C         -61.8689  -76.8756   -2.1670 C.2       1 MOL     0.2187
     23 C         -63.0380  -76.1903   -1.6095 C.3       1 MOL     0.0752
     24 C         -62.7721  -74.8703   -0.9217 C.3       1 MOL     0.0134
     25 C         -63.2050  -76.0315   -0.1410 C.3       1 MOL     0.0134
     26 C         -57.0910  -77.7365   -0.0274 C.ar      1 MOL     0.1355
     27 C         -55.7674  -77.6317   -0.3909 C.ar      1 MOL     0.0392
     28 C         -54.9064  -78.7264   -0.2278 C.ar      1 MOL     0.0066
     29 O         -49.2319  -79.7384   -0.1240 O.2       1 MOL    -0.2658
     30 O         -61.1684  -76.1869   -2.9918 O.2       1 MOL    -0.2753
     31 O         -59.3173  -78.8677    2.0470 O.2       1 MOL    -0.2699
     32 F         -57.9660  -76.6988   -0.1693 F         1 MOL    -0.2047
     33 H         -49.3140  -80.7841   -2.2644 H         1 MOL     0.0625
     34 H         -50.3886  -82.0227   -4.0607 H         1 MOL     0.0618
     35 H         -52.6897  -82.6638   -3.7735 H         1 MOL     0.0618
     36 H         -53.9357  -82.1226   -1.7981 H         1 MOL     0.0624
     37 H         -54.6087  -81.4765    1.4914 H         1 MOL     0.0377
     38 H         -54.8089  -81.8859   -0.2043 H         1 MOL     0.0377
     39 H         -57.0175  -80.9016    1.0438 H         1 MOL     0.0629
     40 H         -61.4724  -78.7153    0.9771 H         1 MOL     0.0480
     41 H         -61.4634  -80.4066    0.4500 H         1 MOL     0.0480
     42 H         -63.0425  -78.5551   -0.6377 H         1 MOL     0.0480
     43 H         -62.4497  -79.9452   -1.5054 H         1 MOL     0.0480
     44 H         -59.6610  -77.9189   -2.9245 H         1 MOL     0.0480
     45 H         -60.5296  -79.3958   -3.3037 H         1 MOL     0.0480
     46 H         -58.4009  -79.1303   -1.5772 H         1 MOL     0.0480
     47 H         -59.4913  -80.5173   -1.7477 H         1 MOL     0.0480
     48 H         -63.6698  -76.5646   -2.3874 H         1 MOL     0.0394
     49 H         -63.4384  -74.0460   -1.0695 H         1 MOL     0.0273
     50 H         -61.9451  -74.1928   -0.8774 H         1 MOL     0.0273
     51 H         -64.1856  -76.0474    0.2868 H         1 MOL     0.0273
     52 H         -62.8169  -76.5423    0.7144 H         1 MOL     0.0273
     53 H         -55.4089  -76.7466   -0.7835 H         1 MOL     0.0646
     54 H         -53.9186  -78.6213   -0.5087 H         1 MOL     0.0621
     55 H         -50.7428  -79.3255    1.8516 H         1 MOL     0.1921
@<TRIPOS>BOND
     1    1   18 1 
     2    1   21 1 
     3    1   17 am
     4    2   20 1 
     5    2   22 am
     6    2   19 1 
     7    3    4 ar
     8    3   12 ar
     9    4   55 1 
    10    4    5 ar
    11    5    6 ar
    12    5   29 2 
    13    6    7 ar
    14    6   11 ar
    15    7    8 ar
    16    7   33 1 
    17    8    9 ar
    18    8   34 1 
    19    9   10 ar
    20    9   35 1 
    21   10   11 ar
    22   10   36 1 
    23   11   12 ar
    24   12   13 1 
    25   13   14 1 
    26   13   37 1 
    27   13   38 1 
    28   14   15 ar
    29   14   28 ar
    30   15   16 ar
    31   15   39 1 
    32   16   17 1 
    33   16   26 ar
    34   17   31 2 
    35   18   19 1 
    36   18   40 1 
    37   18   41 1 
    38   19   42 1 
    39   19   43 1 
    40   20   21 1 
    41   20   44 1 
    42   20   45 1 
    43   21   46 1 
    44   21   47 1 
    45   22   23 1 
    46   22   30 2 
    47   23   24 1 
    48   23   25 1 
    49   23   48 1 
    50   24   25 1 
    51   24   49 1 
    52   24   50 1 
    53   25   51 1 
    54   25   52 1 
    55   26   27 ar
    56   26   32 1 
    57   27   28 ar
    58   27   53 1 
    59   28   54 1 
@<TRIPOS>SUBSTRUCTURE
1 MOL         1
@<TRIPOS>MOLECULE
query molecule
   55    59     1     0     0
SMALL
NO_CHARGE

@<TRIPOS>ATOM
      1 N         -27.2205  -78.0130  -11.9077 N.am      1 MOL    -0.2945
      2 N         -28.3326  -76.9532   -9.8128 N.am      1 MOL    -0.2983
      3 N         -24.4511  -72.8401  -12.9208 N.ar      1 MOL    -0.1750
      4 N         -25.3082  -71.8767  -12.6848 N.ar      1 MOL    -0.2425
      5 C         -25.7836  -71.5987  -11.4627 C.ar      1 MOL     0.2725
      6 C         -25.3547  -72.3601  -10.3949 C.ar      1 MOL     0.0496
      7 C         -25.8329  -72.1264   -9.1050 C.ar      1 MOL     0.0138
      8 C         -25.4066  -72.9134   -8.0569 C.ar      1 MOL     0.0008
      9 C         -24.5075  -73.9159   -8.3531 C.ar      1 MOL     0.0007
     10 C         -24.0249  -74.1593   -9.6282 C.ar      1 MOL     0.0103
     11 C         -24.4511  -73.3731  -10.6578 C.ar      1 MOL     0.0106
     12 C         -23.9778  -73.6384  -11.9149 C.ar      1 MOL     0.0736
     13 C         -22.9804  -74.6281  -12.3006 C.3       1 MOL     0.0925
     14 C         -23.6001  -75.7024  -13.1246 C.ar      1 MOL    -0.0406
     15 C         -24.4688  -76.5684  -12.4367 C.ar      1 MOL     0.0196
     16 C         -25.0813  -77.5983  -13.1095 C.ar      1 MOL     0.0723
     17 C         -25.9981  -78.5285  -12.4127 C.2       1 MOL     0.2495
     18 C         -28.1324  -78.8802  -11.2342 C.3       1 MOL     0.1268
     19 C         -29.0117  -78.1474  -10.2438 C.3       1 MOL     0.1265
     20 C         -28.0401  -75.9470  -10.8395 C.3       1 MOL     0.1265
     21 C         -27.5163  -76.6042  -12.0905 C.3       1 MOL     0.1268
     22 C         -27.9583  -76.7408   -8.4828 C.2       1 MOL     0.2187
     23 C         -28.1658  -77.6504   -7.3529 C.3       1 MOL     0.0752
     24 C         -27.3269  -78.9083   -7.3466 C.3       1 MOL     0.0134
     25 C         -28.7747  -78.9919   -7.5512 C.3       1 MOL     0.0134
     26 C         -24.8934  -77.8411  -14.4496 C.ar      1 MOL     0.1355
     27 C         -24.0428  -76.9929  -15.1219 C.ar      1 MOL     0.0392
     28 C         -23.4154  -75.9416  -14.4382 C.ar      1 MOL     0.0066
     29 O         -26.6047  -70.6785  -11.2163 O.2       1 MOL    -0.2658
     30 O         -27.3677  -75.6378   -8.2003 O.2       1 MOL    -0.2753
     31 O         -25.7285  -79.7420  -12.2587 O.2       1 MOL    -0.2699
     32 F         -25.5247  -78.8784  -15.0726 F         1 MOL    -0.2047
     33 H         -26.5061  -71.3629   -8.9352 H         1 MOL     0.0625
     34 H         -25.7453  -72.7598   -7.0952 H         1 MOL     0.0618
     35 H         -24.1766  -74.5174   -7.5831 H         1 MOL     0.0618
     36 H         -23.3525  -74.9238   -9.7975 H         1 MOL     0.0624
     37 H         -22.5548  -75.0613  -11.4195 H         1 MOL     0.0377
     38 H         -22.2210  -74.1454  -12.8799 H         1 MOL     0.0377
     39 H         -24.6455  -76.4310  -11.4295 H         1 MOL     0.0629
     40 H         -27.5717  -79.6254  -10.7091 H         1 MOL     0.0480
     41 H         -28.7717  -79.3149  -11.9747 H         1 MOL     0.0480
     42 H         -29.2040  -78.7763   -9.4002 H         1 MOL     0.0480
     43 H         -29.9417  -77.8895  -10.7064 H         1 MOL     0.0480
     44 H         -27.3045  -75.2657  -10.4662 H         1 MOL     0.0480
     45 H         -28.9420  -75.4226  -11.0775 H         1 MOL     0.0480
     46 H         -26.6186  -76.1040  -12.3890 H         1 MOL     0.0480
     47 H         -28.2800  -76.5312  -12.8352 H         1 MOL     0.0480
     48 H         -28.3760  -76.8355   -6.6925 H         1 MOL     0.0394
     49 H         -26.8942  -79.2585   -6.4326 H         1 MOL     0.0273
     50 H         -26.4648  -79.2460   -7.8831 H         1 MOL     0.0273
     51 H         -29.3950  -79.4119   -6.7871 H         1 MOL     0.0273
     52 H         -29.3982  -79.4254   -8.3040 H         1 MOL     0.0273
     53 H         -23.8673  -77.1310  -16.1300 H         1 MOL     0.0646
     54 H         -22.7820  -75.3204  -14.9660 H         1 MOL     0.0621
     55 H         -25.6177  -71.3297  -13.4430 H         1 MOL     0.1921
@<TRIPOS>BOND
     1    1   18 1 
     2    1   21 1 
     3    1   17 am
     4    2   20 1 
     5    2   22 am
     6    2   19 1 
     7    3    4 ar
     8    3   12 ar
     9    4   55 1 
    10    4    5 ar
    11    5    6 ar
    12    5   29 2 
    13    6    7 ar
    14    6   11 ar
    15    7    8 ar
    16    7   33 1 
    17    8    9 ar
    18    8   34 1 
    19    9   10 ar
    20    9   35 1 
    21   10   11 ar
    22   10   36 1 
    23   11   12 ar
    24   12   13 1 
    25   13   14 1 
    26   13   37 1 
    27   13   38 1 
    28   14   15 ar
    29   14   28 ar
    30   15   16 ar
    31   15   39 1 
    32   16   17 1 
    33   16   26 ar
    34   17   31 2 
    35   18   19 1 
    36   18   40 1 
    37   18   41 1 
    38   19   42 1 
    39   19   43 1 
    40   20   21 1 
    41   20   44 1 
    42   20   45 1 
    43   21   46 1 
    44   21   47 1 
    45   22   23 1 
    46   22   30 2 
    47   23   24 1 
    48   23   25 1 
    49   23   48 1 
    50   24   25 1 
    51   24   49 1 
    52   24   50 1 
    53   25   51 1 
    54   25   52 1 
    55   26   27 ar
    56   26   32 1 
    57   27   28 ar
    58   27   53 1 
    59   28   54 1 
@<TRIPOS>SUBSTRUCTURE
1 MOL         1
@<TRIPOS>MOLECULE
query molecule
   55    59     1     0     0
SMALL
NO_CHARGE

@<TRIPOS>ATOM
      1 N         -60.8406  -76.7890   28.4890 N.am      1 MOL    -0.2945
      2 N         -59.1068  -77.0043   30.4115 N.am      1 MOL    -0.2983
      3 N         -67.3594  -77.6142   30.1696 N.ar      1 MOL    -0.1750
      4 N         -67.5522  -78.3988   31.2019 N.ar      1 MOL    -0.2425
      5 C         -67.0290  -79.6292   31.2980 C.ar      1 MOL     0.2725
      6 C         -66.2479  -80.1008   30.2631 C.ar      1 MOL     0.0496
      7 C         -65.6954  -81.3815   30.3029 C.ar      1 MOL     0.0138
      8 C         -64.9360  -81.8396   29.2479 C.ar      1 MOL     0.0008
      9 C         -64.7627  -80.9810   28.1830 C.ar      1 MOL     0.0007
     10 C         -65.3052  -79.7079   28.1299 C.ar      1 MOL     0.0103
     11 C         -66.0530  -79.2633   29.1802 C.ar      1 MOL     0.0106
     12 C         -66.5965  -78.0090   29.1040 C.ar      1 MOL     0.0736
     13 C         -66.4071  -77.0186   28.0523 C.3       1 MOL     0.0925
     14 C         -65.3311  -76.0588   28.4244 C.ar      1 MOL    -0.0406
     15 C         -64.0471  -76.3727   27.9444 C.ar      1 MOL     0.0196
     16 C         -62.9860  -75.5522   28.2440 C.ar      1 MOL     0.0723
     17 C         -61.6220  -75.8574   27.7565 C.2       1 MOL     0.2495
     18 C         -59.5225  -77.1125   28.0473 C.3       1 MOL     0.1268
     19 C         -58.6229  -77.5658   29.1770 C.3       1 MOL     0.1265
     20 C         -60.4494  -77.4068   30.8441 C.3       1 MOL     0.1265
     21 C         -61.4061  -77.3957   29.6797 C.3       1 MOL     0.1268
     22 C         -58.3501  -76.1138   31.1787 C.2       1 MOL     0.2187
     23 C         -57.0086  -75.6087   30.8751 C.3       1 MOL     0.0752
     24 C         -56.1862  -75.1478   32.0572 C.3       1 MOL     0.0134
     25 C         -56.6666  -74.1756   31.0726 C.3       1 MOL     0.0134
     26 C         -63.1048  -74.4126   29.0037 C.ar      1 MOL     0.1355
     27 C         -64.3622  -74.1064   29.4731 C.ar      1 MOL     0.0392
     28 C         -65.4468  -74.9419   29.1701 C.ar      1 MOL     0.0066
     29 O         -67.2014  -80.3956   32.2802 O.2       1 MOL    -0.2658
     30 O         -58.8682  -75.6797   32.2689 O.2       1 MOL    -0.2753
     31 O         -61.1449  -75.3235   26.7288 O.2       1 MOL    -0.2699
     32 F         -62.0196  -73.6304   29.2744 F         1 MOL    -0.2047
     33 H         -65.8550  -81.9865   31.1235 H         1 MOL     0.0625
     34 H         -64.5171  -82.7818   29.2545 H         1 MOL     0.0618
     35 H         -64.1987  -81.3047   27.3823 H         1 MOL     0.0618
     36 H         -65.1462  -79.1038   27.3083 H         1 MOL     0.0624
     37 H         -67.3213  -76.4826   27.9043 H         1 MOL     0.0377
     38 H         -66.1226  -77.5216   27.1515 H         1 MOL     0.0377
     39 H         -63.9019  -77.2168   27.3691 H         1 MOL     0.0629
     40 H         -59.0912  -76.2449   27.5926 H         1 MOL     0.0480
     41 H         -59.6042  -77.9236   27.3534 H         1 MOL     0.0480
     42 H         -57.6232  -77.2307   28.9968 H         1 MOL     0.0480
     43 H         -58.6275  -78.6343   29.2376 H         1 MOL     0.0480
     44 H         -60.7981  -76.7256   31.5917 H         1 MOL     0.0480
     45 H         -60.4023  -78.3991   31.2419 H         1 MOL     0.0480
     46 H         -62.2795  -76.8447   29.9603 H         1 MOL     0.0480
     47 H         -61.6353  -78.4129   29.4430 H         1 MOL     0.0480
     48 H         -56.9036  -76.2854   30.0532 H         1 MOL     0.0394
     49 H         -55.1443  -75.3861   32.1099 H         1 MOL     0.0273
     50 H         -56.2628  -75.2518   33.1194 H         1 MOL     0.0273
     51 H         -55.9706  -73.7000   30.4136 H         1 MOL     0.0273
     52 H         -57.2366  -73.2730   31.1319 H         1 MOL     0.0273
     53 H         -64.5062  -73.2610   30.0482 H         1 MOL     0.0646
     54 H         -66.3789  -74.6896   29.5348 H         1 MOL     0.0621
     55 H         -68.1086  -78.0674   31.9439 H         1 MOL     0.1921
@<TRIPOS>BOND
     1    1   18 1 
     2    1   21 1 
     3    1   17 am
     4    2   20 1 
     5    2   22 am
     6    2   19 1 
     7    3    4 ar
     8    3   12 ar
     9    4   55 1 
    10    4    5 ar
    11    5    6 ar
    12    5   29 2 
    13    6    7 ar
    14    6   11 ar
    15    7    8 ar
    16    7   33 1 
    17    8    9 ar
    18    8   34 1 
    19    9   10 ar
    20    9   35 1 
    21   10   11 ar
    22   10   36 1 
    23   11   12 ar
    24   12   13 1 
    25   13   14 1 
    26   13   37 1 
    27   13   38 1 
    28   14   15 ar
    29   14   28 ar
    30   15   16 ar
    31   15   39 1 
    32   16   17 1 
    33   16   26 ar
    34   17   31 2 
    35   18   19 1 
    36   18   40 1 
    37   18   41 1 
    38   19   42 1 
    39   19   43 1 
    40   20   21 1 
    41   20   44 1 
    42   20   45 1 
    43   21   46 1 
    44   21   47 1 
    45   22   23 1 
    46   22   30 2 
    47   23   24 1 
    48   23   25 1 
    49   23   48 1 
    50   24   25 1 
    51   24   49 1 
    52   24   50 1 
    53   25   51 1 
    54   25   52 1 
    55   26   27 ar
    56   26   32 1 
    57   27   28 ar
    58   27   53 1 
    59   28   54 1 
@<TRIPOS>SUBSTRUCTURE
1 MOL         1
@<TRIPOS>MOLECULE
query molecule
   55    59     1     0     0
SMALL
NO_CHARGE

@<TRIPOS>ATOM
      1 N         -13.9199  -78.3629   -7.4441 N.am      1 MOL    -0.2945
      2 N         -13.0878  -79.9802   -5.5894 N.am      1 MOL    -0.2983
      3 N          -9.9651  -78.7331  -13.4714 N.ar      1 MOL    -0.1750
      4 N         -10.2847  -79.3069  -14.6060 N.ar      1 MOL    -0.2425
      5 C         -10.6856  -80.5827  -14.6972 C.ar      1 MOL     0.2725
      6 C         -10.7684  -81.3363  -13.5444 C.ar      1 MOL     0.0496
      7 C         -11.1608  -82.6748  -13.5849 C.ar      1 MOL     0.0138
      8 C         -11.2157  -83.4142  -12.4232 C.ar      1 MOL     0.0008
      9 C         -10.8681  -82.7699  -11.2548 C.ar      1 MOL     0.0007
     10 C         -10.4766  -81.4426  -11.1998 C.ar      1 MOL     0.0103
     11 C         -10.4281  -80.7190  -12.3548 C.ar      1 MOL     0.0106
     12 C         -10.0222  -79.4133  -12.2852 C.ar      1 MOL     0.0736
     13 C          -9.7051  -78.6417  -11.0906 C.3       1 MOL     0.0925
     14 C         -10.8401  -77.7487  -10.7274 C.ar      1 MOL    -0.0406
     15 C         -11.8752  -78.3534   -9.9921 C.ar      1 MOL     0.0196
     16 C         -12.9712  -77.6129   -9.6189 C.ar      1 MOL     0.0723
     17 C         -14.0784  -78.2215   -8.8477 C.2       1 MOL     0.2495
     18 C         -14.9677  -78.9406   -6.6660 C.3       1 MOL     0.1268
     19 C         -14.4612  -79.5931   -5.3976 C.3       1 MOL     0.1265
     20 C         -12.1230  -78.9051   -5.8447 C.3       1 MOL     0.1265
     21 C         -12.6855  -77.9120   -6.8288 C.3       1 MOL     0.1268
     22 C         -12.6696  -81.3133   -5.5403 C.2       1 MOL     0.2187
     23 C         -13.5090  -82.4922   -5.3110 C.3       1 MOL     0.0752
     24 C         -12.7790  -83.7981   -5.0919 C.3       1 MOL     0.0134
     25 C         -13.5709  -83.5940   -6.3070 C.3       1 MOL     0.0134
     26 C         -13.1226  -76.2818   -9.9273 C.ar      1 MOL     0.1355
     27 C         -12.1088  -75.6909  -10.6471 C.ar      1 MOL     0.0392
     28 C         -10.9896  -76.4438  -11.0304 C.ar      1 MOL     0.0066
     29 O         -10.9974  -81.1501  -15.7755 O.2       1 MOL    -0.2658
     30 O         -11.4211  -81.5514   -5.7128 O.2       1 MOL    -0.2753
     31 O         -15.1374  -78.6098   -9.3923 O.2       1 MOL    -0.2699
     32 F         -14.2312  -75.5896   -9.5340 F         1 MOL    -0.2047
     33 H         -11.4109  -83.1116  -14.4858 H         1 MOL     0.0625
     34 H         -11.5031  -84.4045  -12.4278 H         1 MOL     0.0618
     35 H         -10.9012  -83.3057  -10.3739 H         1 MOL     0.0618
     36 H         -10.2255  -81.0067  -10.2986 H         1 MOL     0.0624
     37 H          -8.8348  -78.0474  -11.2757 H         1 MOL     0.0377
     38 H          -9.5266  -79.3175  -10.2802 H         1 MOL     0.0377
     39 H         -11.8121  -79.3503   -9.7338 H         1 MOL     0.0629
     40 H         -15.4650  -79.6811   -7.2575 H         1 MOL     0.0480
     41 H         -15.6316  -78.1508   -6.3807 H         1 MOL     0.0480
     42 H         -15.0515  -80.4577   -5.1779 H         1 MOL     0.0480
     43 H         -14.5338  -78.9042   -4.5817 H         1 MOL     0.0480
     44 H         -11.2241  -79.3253   -6.2446 H         1 MOL     0.0480
     45 H         -11.9166  -78.3992   -4.9246 H         1 MOL     0.0480
     46 H         -11.9616  -77.7472   -7.5996 H         1 MOL     0.0480
     47 H         -12.9052  -77.0152   -6.2897 H         1 MOL     0.0480
     48 H         -14.2522  -81.9071   -4.8115 H         1 MOL     0.0394
     49 H         -13.1176  -84.4810   -4.3406 H         1 MOL     0.0273
     50 H         -11.7661  -84.0737   -4.8847 H         1 MOL     0.0273
     51 H         -14.4832  -84.1365   -6.4429 H         1 MOL     0.0273
     52 H         -13.3642  -83.6674   -7.3535 H         1 MOL     0.0273
     53 H         -12.1729  -74.6930  -10.9044 H         1 MOL     0.0646
     54 H         -10.2438  -75.9765  -11.5699 H         1 MOL     0.0621
     55 H         -10.2278  -78.7738  -15.4321 H         1 MOL     0.1921
@<TRIPOS>BOND
     1    1   18 1 
     2    1   21 1 
     3    1   17 am
     4    2   20 1 
     5    2   22 am
     6    2   19 1 
     7    3    4 ar
     8    3   12 ar
     9    4   55 1 
    10    4    5 ar
    11    5    6 ar
    12    5   29 2 
    13    6    7 ar
    14    6   11 ar
    15    7    8 ar
    16    7   33 1 
    17    8    9 ar
    18    8   34 1 
    19    9   10 ar
    20    9   35 1 
    21   10   11 ar
    22   10   36 1 
    23   11   12 ar
    24   12   13 1 
    25   13   14 1 
    26   13   37 1 
    27   13   38 1 
    28   14   15 ar
    29   14   28 ar
    30   15   16 ar
    31   15   39 1 
    32   16   17 1 
    33   16   26 ar
    34   17   31 2 
    35   18   19 1 
    36   18   40 1 
    37   18   41 1 
    38   19   42 1 
    39   19   43 1 
    40   20   21 1 
    41   20   44 1 
    42   20   45 1 
    43   21   46 1 
    44   21   47 1 
    45   22   23 1 
    46   22   30 2 
    47   23   24 1 
    48   23   25 1 
    49   23   48 1 
    50   24   25 1 
    51   24   49 1 
    52   24   50 1 
    53   25   51 1 
    54   25   52 1 
    55   26   27 ar
    56   26   32 1 
    57   27   28 ar
    58   27   53 1 
    59   28   54 1 
@<TRIPOS>SUBSTRUCTURE
1 MOL         1
@<TRIPOS>MOLECULE
query molecule
   55    59     1     0     0
SMALL
NO_CHARGE

@<TRIPOS>ATOM
      1 N         -56.0242  -26.0067    7.3377 N.am      1 MOL    -0.2945
      2 N         -56.8255  -26.3219    4.8867 N.am      1 MOL    -0.2983
      3 N         -50.9020  -28.2902    6.0884 N.ar      1 MOL    -0.1750
      4 N         -50.8793  -28.7903    4.8768 N.ar      1 MOL    -0.2425
      5 C         -50.5444  -30.0610    4.6121 C.ar      1 MOL     0.2725
      6 C         -50.2050  -30.8901    5.6615 C.ar      1 MOL     0.0496
      7 C         -49.8291  -32.2155    5.4402 C.ar      1 MOL     0.0138
      8 C         -49.4735  -33.0193    6.5018 C.ar      1 MOL     0.0008
      9 C         -49.5095  -32.4497    7.7569 C.ar      1 MOL     0.0007
     10 C         -49.8800  -31.1360    7.9911 C.ar      1 MOL     0.0103
     11 C         -50.2326  -30.3499    6.9340 C.ar      1 MOL     0.0106
     12 C         -50.5793  -29.0486    7.1811 C.ar      1 MOL     0.0736
     13 C         -50.7084  -28.3916    8.4752 C.3       1 MOL     0.0925
     14 C         -52.1415  -28.2743    8.8623 C.ar      1 MOL    -0.0406
     15 C         -52.8168  -27.1515    8.3515 C.ar      1 MOL     0.0196
     16 C         -54.1405  -26.9505    8.6617 C.ar      1 MOL     0.0723
     17 C         -54.8778  -25.7765    8.1425 C.2       1 MOL     0.2495
     18 C         -56.7639  -24.8999    6.8228 C.3       1 MOL     0.1268
     19 C         -57.5030  -25.2354    5.5452 C.3       1 MOL     0.1265
     20 C         -56.7619  -27.5992    5.6053 C.3       1 MOL     0.1265
     21 C         -56.4202  -27.3739    7.0558 C.3       1 MOL     0.1268
     22 C         -56.2462  -26.1888    3.6214 C.2       1 MOL     0.2187
     23 C         -56.2141  -24.9831    2.7893 C.3       1 MOL     0.0752
     24 C         -54.9967  -24.0995    2.9424 C.3       1 MOL     0.0134
     25 C         -56.3073  -23.6299    3.3974 C.3       1 MOL     0.0134
     26 C         -54.8655  -27.8020    9.4613 C.ar      1 MOL     0.1355
     27 C         -54.2034  -28.9007    9.9607 C.ar      1 MOL     0.0392
     28 C         -52.8526  -29.1083    9.6470 C.ar      1 MOL     0.0066
     29 O         -50.5180  -30.5590    3.4575 O.2       1 MOL    -0.2658
     30 O         -55.6758  -27.2211    3.1172 O.2       1 MOL    -0.2753
     31 O         -54.5227  -24.6014    8.3907 O.2       1 MOL    -0.2699
     32 F         -56.1789  -27.5581    9.7409 F         1 MOL    -0.2047
     33 H         -49.8180  -32.5949    4.4805 H         1 MOL     0.0625
     34 H         -49.1927  -34.0018    6.3634 H         1 MOL     0.0618
     35 H         -49.2457  -33.0338    8.5653 H         1 MOL     0.0618
     36 H         -49.8898  -30.7569    8.9511 H         1 MOL     0.0624
     37 H         -50.2778  -27.4137    8.4183 H         1 MOL     0.0377
     38 H         -50.2001  -28.9778    9.2123 H         1 MOL     0.0377
     39 H         -52.3198  -26.4802    7.7458 H         1 MOL     0.0629
     40 H         -56.0850  -24.0965    6.6253 H         1 MOL     0.0480
     41 H         -57.4940  -24.6293    7.5574 H         1 MOL     0.0480
     42 H         -57.5184  -24.3794    4.9038 H         1 MOL     0.0480
     43 H         -58.5095  -25.5195    5.7726 H         1 MOL     0.0480
     44 H         -56.0113  -28.2177    5.1596 H         1 MOL     0.0480
     45 H         -57.7172  -28.0776    5.5466 H         1 MOL     0.0480
     46 H         -55.6126  -28.0237    7.3215 H         1 MOL     0.0480
     47 H         -57.3003  -27.5770    7.6280 H         1 MOL     0.0480
     48 H         -56.7416  -25.4744    1.9989 H         1 MOL     0.0394
     49 H         -54.5413  -23.6615    2.0786 H         1 MOL     0.0273
     50 H         -54.0327  -24.2103    3.3934 H         1 MOL     0.0273
     51 H         -56.8019  -22.8425    2.8677 H         1 MOL     0.0273
     52 H         -56.6840  -23.2516    4.3238 H         1 MOL     0.0273
     53 H         -54.7022  -29.5721   10.5663 H         1 MOL     0.0646
     54 H         -52.3797  -29.9399   10.0349 H         1 MOL     0.0621
     55 H         -51.1209  -28.2033    4.1239 H         1 MOL     0.1921
@<TRIPOS>BOND
     1    1   18 1 
     2    1   21 1 
     3    1   17 am
     4    2   20 1 
     5    2   22 am
     6    2   19 1 
     7    3    4 ar
     8    3   12 ar
     9    4   55 1 
    10    4    5 ar
    11    5    6 ar
    12    5   29 2 
    13    6    7 ar
    14    6   11 ar
    15    7    8 ar
    16    7   33 1 
    17    8    9 ar
    18    8   34 1 
    19    9   10 ar
    20    9   35 1 
    21   10   11 ar
    22   10   36 1 
    23   11   12 ar
    24   12   13 1 
    25   13   14 1 
    26   13   37 1 
    27   13   38 1 
    28   14   15 ar
    29   14   28 ar
    30   15   16 ar
    31   15   39 1 
    32   16   17 1 
    33   16   26 ar
    34   17   31 2 
    35   18   19 1 
    36   18   40 1 
    37   18   41 1 
    38   19   42 1 
    39   19   43 1 
    40   20   21 1 
    41   20   44 1 
    42   20   45 1 
    43   21   46 1 
    44   21   47 1 
    45   22   23 1 
    46   22   30 2 
    47   23   24 1 
    48   23   25 1 
    49   23   48 1 
    50   24   25 1 
    51   24   49 1 
    52   24   50 1 
    53   25   51 1 
    54   25   52 1 
    55   26   27 ar
    56   26   32 1 
    57   27   28 ar
    58   27   53 1 
    59   28   54 1 
@<TRIPOS>SUBSTRUCTURE
1 MOL         1
@<TRIPOS>MOLECULE
query molecule
   55    59     1     0     0
SMALL
NO_CHARGE

@<TRIPOS>ATOM
      1 N         -41.6906  -21.6774   -8.8061 N.am      1 MOL    -0.2945
      2 N         -41.7886  -23.2689   -6.7553 N.am      1 MOL    -0.2983
      3 N         -37.2348  -22.2245  -13.2909 N.ar      1 MOL    -0.1750
      4 N         -37.5901  -22.8528  -14.3853 N.ar      1 MOL    -0.2425
      5 C         -37.4351  -24.1730  -14.5583 C.ar      1 MOL     0.2725
      6 C         -36.8741  -24.9145  -13.5388 C.ar      1 MOL     0.0496
      7 C         -36.6716  -26.2884  -13.6742 C.ar      1 MOL     0.0138
      8 C         -36.0898  -27.0053  -12.6509 C.ar      1 MOL     0.0008
      9 C         -35.7300  -26.3021  -11.5207 C.ar      1 MOL     0.0007
     10 C         -35.9246  -24.9389  -11.3729 C.ar      1 MOL     0.0103
     11 C         -36.5035  -24.2394  -12.3905 C.ar      1 MOL     0.0106
     12 C         -36.6726  -22.8896  -12.2351 C.ar      1 MOL     0.0736
     13 C         -36.3846  -22.0860  -11.0543 C.3       1 MOL     0.0925
     14 C         -37.5049  -21.1457  -10.7748 C.ar      1 MOL    -0.0406
     15 C         -38.7640  -21.7430  -10.5860 C.ar      1 MOL     0.0196
     16 C         -39.8624  -20.9567  -10.3328 C.ar      1 MOL     0.0723
     17 C         -41.2015  -21.5553  -10.1331 C.2       1 MOL     0.2495
     18 C         -42.9794  -22.2450   -8.5739 C.3       1 MOL     0.1268
     19 C         -43.0998  -22.8798   -7.2052 C.3       1 MOL     0.1265
     20 C         -40.8057  -22.1969   -6.5637 C.3       1 MOL     0.1265
     21 C         -40.8610  -21.2176   -7.7079 C.3       1 MOL     0.1268
     22 C         -41.4445  -24.6009   -6.5072 C.2       1 MOL     0.2187
     23 C         -42.3042  -25.7771   -6.6644 C.3       1 MOL     0.0752
     24 C         -42.0123  -26.6620   -7.8551 C.3       1 MOL     0.0134
     25 C         -43.2532  -25.8857   -7.8034 C.3       1 MOL     0.0134
     26 C         -39.8055  -19.5857  -10.2496 C.ar      1 MOL     0.1355
     27 C         -38.5725  -19.0021  -10.4346 C.ar      1 MOL     0.0392
     28 C         -37.4499  -19.8013  -10.6941 C.ar      1 MOL     0.0066
     29 O         -37.7707  -24.7935  -15.5995 O.2       1 MOL    -0.2658
     30 O         -40.2528  -24.8408   -6.0980 O.2       1 MOL    -0.2753
     31 O         -41.9056  -21.9514  -11.0902 O.2       1 MOL    -0.2699
     32 F         -40.9258  -18.8485   -9.9965 F         1 MOL    -0.2047
     33 H         -36.9584  -26.7688  -14.5413 H         1 MOL     0.0625
     34 H         -35.9304  -28.0211  -12.7274 H         1 MOL     0.0618
     35 H         -35.2917  -26.8195  -10.7433 H         1 MOL     0.0618
     36 H         -35.6365  -24.4589  -10.5058 H         1 MOL     0.0624
     37 H         -35.4878  -21.5260  -11.2194 H         1 MOL     0.0377
     38 H         -36.2650  -22.7376  -10.2139 H         1 MOL     0.0377
     39 H         -38.8630  -22.7687  -10.6378 H         1 MOL     0.0629
     40 H         -43.1626  -22.9937   -9.3165 H         1 MOL     0.0480
     41 H         -43.6962  -21.4517   -8.6268 H         1 MOL     0.0480
     42 H         -43.7308  -23.7416   -7.2631 H         1 MOL     0.0480
     43 H         -43.5269  -22.1799   -6.5173 H         1 MOL     0.0480
     44 H         -39.8254  -22.6221   -6.5124 H         1 MOL     0.0480
     45 H         -41.0313  -21.6784   -5.6552 H         1 MOL     0.0480
     46 H         -39.8673  -21.0630   -8.0737 H         1 MOL     0.0480
     47 H         -41.2942  -20.3136   -7.3359 H         1 MOL     0.0480
     48 H         -42.4082  -25.8839   -5.6051 H         1 MOL     0.0394
     49 H         -42.0422  -27.7267   -7.7508 H         1 MOL     0.0273
     50 H         -41.2040  -26.7537   -8.5502 H         1 MOL     0.0273
     51 H         -44.1883  -26.3884   -7.6696 H         1 MOL     0.0273
     52 H         -43.7195  -25.1796   -8.4571 H         1 MOL     0.0273
     53 H         -38.4747  -17.9756  -10.3819 H         1 MOL     0.0646
     54 H         -36.5372  -19.3384  -10.8293 H         1 MOL     0.0621
     55 H         -37.9914  -22.3288  -15.1162 H         1 MOL     0.1921
@<TRIPOS>BOND
     1    1   18 1 
     2    1   21 1 
     3    1   17 am
     4    2   20 1 
     5    2   22 am
     6    2   19 1 
     7    3    4 ar
     8    3   12 ar
     9    4   55 1 
    10    4    5 ar
    11    5    6 ar
    12    5   29 2 
    13    6    7 ar
    14    6   11 ar
    15    7    8 ar
    16    7   33 1 
    17    8    9 ar
    18    8   34 1 
    19    9   10 ar
    20    9   35 1 
    21   10   11 ar
    22   10   36 1 
    23   11   12 ar
    24   12   13 1 
    25   13   14 1 
    26   13   37 1 
    27   13   38 1 
    28   14   15 ar
    29   14   28 ar
    30   15   16 ar
    31   15   39 1 
    32   16   17 1 
    33   16   26 ar
    34   17   31 2 
    35   18   19 1 
    36   18   40 1 
    37   18   41 1 
    38   19   42 1 
    39   19   43 1 
    40   20   21 1 
    41   20   44 1 
    42   20   45 1 
    43   21   46 1 
    44   21   47 1 
    45   22   23 1 
    46   22   30 2 
    47   23   24 1 
    48   23   25 1 
    49   23   48 1 
    50   24   25 1 
    51   24   49 1 
    52   24   50 1 
    53   25   51 1 
    54   25   52 1 
    55   26   27 ar
    56   26   32 1 
    57   27   28 ar
    58   27   53 1 
    59   28   54 1 
@<TRIPOS>SUBSTRUCTURE
1 MOL         1
@<TRIPOS>MOLECULE
query molecule
   55    59     1     0     0
SMALL
NO_CHARGE

@<TRIPOS>ATOM
      1 N         -20.7013  -28.9047   15.2568 N.am      1 MOL    -0.2945
      2 N         -19.8586  -31.0444   16.4649 N.am      1 MOL    -0.2983
      3 N         -17.4884  -29.5351    9.5527 N.ar      1 MOL    -0.1750
      4 N         -17.4448  -29.7341    8.2576 N.ar      1 MOL    -0.2425
      5 C         -16.5683  -29.1221    7.4489 C.ar      1 MOL     0.2725
      6 C         -15.6640  -28.2369    7.9990 C.ar      1 MOL     0.0496
      7 C         -14.7433  -27.5578    7.2001 C.ar      1 MOL     0.0138
      8 C         -13.8635  -26.6621    7.7686 C.ar      1 MOL     0.0008
      9 C         -13.9481  -26.4830    9.1332 C.ar      1 MOL     0.0007
     10 C         -14.8568  -27.1498    9.9379 C.ar      1 MOL     0.0103
     11 C         -15.7212  -28.0359    9.3658 C.ar      1 MOL     0.0106
     12 C         -16.6247  -28.6734   10.1731 C.ar      1 MOL     0.0736
     13 C         -16.7349  -28.5931   11.6237 C.3       1 MOL     0.0925
     14 C         -17.9021  -27.7553   12.0148 C.ar      1 MOL    -0.0406
     15 C         -18.8846  -28.4059   12.7823 C.ar      1 MOL     0.0196
     16 C         -20.0051  -27.7184   13.1830 C.ar      1 MOL     0.0723
     17 C         -21.0584  -28.3763   13.9886 C.2       1 MOL     0.2495
     18 C         -21.6905  -29.5419   16.0645 C.3       1 MOL     0.1268
     19 C         -21.1006  -30.5639   17.0124 C.3       1 MOL     0.1265
     20 C         -18.7841  -30.0612   16.2902 C.3       1 MOL     0.1265
     21 C         -19.3267  -28.7825   15.7055 C.3       1 MOL     0.1268
     22 C         -19.6629  -32.3818   16.1079 C.2       1 MOL     0.2187
     23 C         -20.6367  -33.4721   16.2081 C.3       1 MOL     0.0752
     24 C         -20.9181  -33.9890   17.6008 C.3       1 MOL     0.0134
     25 C         -20.2199  -34.8351   16.6304 C.3       1 MOL     0.0134
     26 C         -20.2313  -26.3984   12.8726 C.ar      1 MOL     0.1355
     27 C         -19.2689  -25.7626   12.1212 C.ar      1 MOL     0.0392
     28 C         -18.1249  -26.4613   11.7098 C.ar      1 MOL     0.0066
     29 O         -16.5102  -29.3009    6.2053 O.2       1 MOL    -0.2658
     30 O         -18.5149  -32.7101   15.6394 O.2       1 MOL    -0.2753
     31 O         -22.2406  -28.4780   13.5873 O.2       1 MOL    -0.2699
     32 F         -21.3614  -25.7596   13.2939 F         1 MOL    -0.2047
     33 H         -14.7204  -27.7268    6.1823 H         1 MOL     0.0625
     34 H         -13.1740  -26.1488    7.1992 H         1 MOL     0.0618
     35 H         -13.2995  -25.8159    9.5786 H         1 MOL     0.0618
     36 H         -14.8799  -26.9794   10.9557 H         1 MOL     0.0624
     37 H         -15.8411  -28.1594   12.0214 H         1 MOL     0.0377
     38 H         -16.8735  -29.5797   12.0147 H         1 MOL     0.0377
     39 H         -18.7647  -29.3968   13.0436 H         1 MOL     0.0629
     40 H         -22.3916  -30.0340   15.4227 H         1 MOL     0.0480
     41 H         -22.1608  -28.7845   16.6572 H         1 MOL     0.0480
     42 H         -21.7818  -31.3803   17.1298 H         1 MOL     0.0480
     43 H         -20.9265  -30.1142   17.9678 H         1 MOL     0.0480
     44 H         -18.0429  -30.4621   15.6310 H         1 MOL     0.0480
     45 H         -18.3518  -29.8471   17.2453 H         1 MOL     0.0480
     46 H         -18.7194  -28.5043   14.8695 H         1 MOL     0.0480
     47 H         -19.3062  -28.0427   16.4772 H         1 MOL     0.0480
     48 H         -21.1933  -33.0960   15.3756 H         1 MOL     0.0394
     49 H         -21.9208  -34.2237   17.8922 H         1 MOL     0.0273
     50 H         -20.7117  -33.6439   18.5925 H         1 MOL     0.0273
     51 H         -20.7136  -35.6920   16.2217 H         1 MOL     0.0273
     52 H         -19.2910  -35.3645   16.6341 H         1 MOL     0.0273
     53 H         -19.3899  -24.7707   11.8609 H         1 MOL     0.0646
     54 H         -17.4189  -25.9610   11.1469 H         1 MOL     0.0621
     55 H         -18.0875  -30.3651    7.8594 H         1 MOL     0.1921
@<TRIPOS>BOND
     1    1   18 1 
     2    1   21 1 
     3    1   17 am
     4    2   20 1 
     5    2   22 am
     6    2   19 1 
     7    3    4 ar
     8    3   12 ar
     9    4   55 1 
    10    4    5 ar
    11    5    6 ar
    12    5   29 2 
    13    6    7 ar
    14    6   11 ar
    15    7    8 ar
    16    7   33 1 
    17    8    9 ar
    18    8   34 1 
    19    9   10 ar
    20    9   35 1 
    21   10   11 ar
    22   10   36 1 
    23   11   12 ar
    24   12   13 1 
    25   13   14 1 
    26   13   37 1 
    27   13   38 1 
    28   14   15 ar
    29   14   28 ar
    30   15   16 ar
    31   15   39 1 
    32   16   17 1 
    33   16   26 ar
    34   17   31 2 
    35   18   19 1 
    36   18   40 1 
    37   18   41 1 
    38   19   42 1 
    39   19   43 1 
    40   20   21 1 
    41   20   44 1 
    42   20   45 1 
    43   21   46 1 
    44   21   47 1 
    45   22   23 1 
    46   22   30 2 
    47   23   24 1 
    48   23   25 1 
    49   23   48 1 
    50   24   25 1 
    51   24   49 1 
    52   24   50 1 
    53   25   51 1 
    54   25   52 1 
    55   26   27 ar
    56   26   32 1 
    57   27   28 ar
    58   27   53 1 
    59   28   54 1 
@<TRIPOS>SUBSTRUCTURE
1 MOL         1
@<TRIPOS>MOLECULE
query molecule
   55    59     1     0     0
SMALL
NO_CHARGE

@<TRIPOS>ATOM
      1 N         -62.7951  -64.5634  -19.4404 N.am      1 MOL    -0.2945
      2 N         -64.1001  -64.1680  -17.2293 N.am      1 MOL    -0.2983
      3 N         -63.0590  -60.7671  -26.1961 N.ar      1 MOL    -0.1750
      4 N         -62.5258  -60.6027  -27.3824 N.ar      1 MOL    -0.2425
      5 C         -61.3726  -61.1752  -27.7557 C.ar      1 MOL     0.2725
      6 C         -60.7076  -61.9784  -26.8522 C.ar      1 MOL     0.0496
      7 C         -59.4937  -62.5823  -27.1822 C.ar      1 MOL     0.0138
      8 C         -58.8363  -63.3634  -26.2563 C.ar      1 MOL     0.0008
      9 C         -59.4332  -63.5054  -25.0215 C.ar      1 MOL     0.0007
     10 C         -60.6370  -62.9118  -24.6804 C.ar      1 MOL     0.0103
     11 C         -61.2807  -62.1429  -25.6047 C.ar      1 MOL     0.0106
     12 C         -62.4608  -61.5491  -25.2454 C.ar      1 MOL     0.0736
     13 C         -63.1897  -61.7019  -23.9930 C.3       1 MOL     0.0925
     14 C         -62.2464  -61.7660  -22.8426 C.ar      1 MOL    -0.0406
     15 C         -62.3312  -62.9272  -22.0539 C.ar      1 MOL     0.0196
     16 C         -61.5083  -63.0740  -20.9630 C.ar      1 MOL     0.0723
     17 C         -61.5760  -64.2829  -20.1114 C.2       1 MOL     0.2495
     18 C         -62.9003  -65.7225  -18.6143 C.3       1 MOL     0.1268
     19 C         -63.9360  -65.5684  -17.5213 C.3       1 MOL     0.1265
     20 C         -64.6000  -63.3164  -18.3141 C.3       1 MOL     0.1265
     21 C         -63.9150  -63.6569  -19.6126 C.3       1 MOL     0.1268
     22 C         -63.8020  -63.6222  -15.9773 C.2       1 MOL     0.2187
     23 C         -63.2849  -64.3346  -14.8059 C.3       1 MOL     0.0752
     24 C         -64.0902  -65.5270  -14.3413 C.3       1 MOL     0.0134
     25 C         -64.0203  -64.3203  -13.5142 C.3       1 MOL     0.0134
     26 C         -60.5818  -62.1313  -20.5848 C.ar      1 MOL     0.1355
     27 C         -60.4997  -60.9951  -21.3575 C.ar      1 MOL     0.0392
     28 C         -61.3385  -60.8416  -22.4707 C.ar      1 MOL     0.0066
     29 O         -60.8463  -61.0306  -28.8887 O.2       1 MOL    -0.2658
     30 O         -63.9941  -62.3643  -15.8162 O.2       1 MOL    -0.2753
     31 O         -60.6002  -65.0551  -19.9688 O.2       1 MOL    -0.2699
     32 F         -59.7875  -62.3236  -19.4917 F         1 MOL    -0.2047
     33 H         -59.0877  -62.4446  -28.1209 H         1 MOL     0.0625
     34 H         -57.9386  -63.8203  -26.4769 H         1 MOL     0.0618
     35 H         -58.9570  -64.0850  -24.3134 H         1 MOL     0.0618
     36 H         -61.0419  -63.0491  -23.7409 H         1 MOL     0.0624
     37 H         -63.7645  -62.6037  -24.0277 H         1 MOL     0.0377
     38 H         -63.8335  -60.8570  -23.8629 H         1 MOL     0.0377
     39 H         -63.0096  -63.6668  -22.2933 H         1 MOL     0.0629
     40 H         -61.9486  -65.9075  -18.1611 H         1 MOL     0.0480
     41 H         -63.2067  -66.5370  -19.2378 H         1 MOL     0.0480
     42 H         -63.6101  -66.0835  -16.6423 H         1 MOL     0.0480
     43 H         -64.8682  -65.9837  -17.8440 H         1 MOL     0.0480
     44 H         -64.4090  -62.2914  -18.0744 H         1 MOL     0.0480
     45 H         -65.6516  -63.4797  -18.4261 H         1 MOL     0.0480
     46 H         -63.5552  -62.7521  -20.0566 H         1 MOL     0.0480
     47 H         -64.6324  -64.1485  -20.2346 H         1 MOL     0.0480
     48 H         -62.2735  -64.1209  -15.0810 H         1 MOL     0.0394
     49 H         -63.5914  -66.4205  -14.0280 H         1 MOL     0.0273
     50 H         -64.8807  -66.1155  -14.7582 H         1 MOL     0.0273
     51 H         -63.4763  -64.3395  -12.5929 H         1 MOL     0.0273
     52 H         -64.7496  -63.6720  -13.0770 H         1 MOL     0.0273
     53 H         -59.8199  -60.2560  -21.1171 H         1 MOL     0.0646
     54 H         -61.2568  -59.9798  -23.0330 H         1 MOL     0.0621
     55 H         -62.9962  -60.0307  -28.0315 H         1 MOL     0.1921
@<TRIPOS>BOND
     1    1   18 1 
     2    1   21 1 
     3    1   17 am
     4    2   20 1 
     5    2   22 am
     6    2   19 1 
     7    3    4 ar
     8    3   12 ar
     9    4   55 1 
    10    4    5 ar
    11    5    6 ar
    12    5   29 2 
    13    6    7 ar
    14    6   11 ar
    15    7    8 ar
    16    7   33 1 
    17    8    9 ar
    18    8   34 1 
    19    9   10 ar
    20    9   35 1 
    21   10   11 ar
    22   10   36 1 
    23   11   12 ar
    24   12   13 1 
    25   13   14 1 
    26   13   37 1 
    27   13   38 1 
    28   14   15 ar
    29   14   28 ar
    30   15   16 ar
    31   15   39 1 
    32   16   17 1 
    33   16   26 ar
    34   17   31 2 
    35   18   19 1 
    36   18   40 1 
    37   18   41 1 
    38   19   42 1 
    39   19   43 1 
    40   20   21 1 
    41   20   44 1 
    42   20   45 1 
    43   21   46 1 
    44   21   47 1 
    45   22   23 1 
    46   22   30 2 
    47   23   24 1 
    48   23   25 1 
    49   23   48 1 
    50   24   25 1 
    51   24   49 1 
    52   24   50 1 
    53   25   51 1 
    54   25   52 1 
    55   26   27 ar
    56   26   32 1 
    57   27   28 ar
    58   27   53 1 
    59   28   54 1 
@<TRIPOS>SUBSTRUCTURE
1 MOL         1
@<TRIPOS>MOLECULE
query molecule
   55    59     1     0     0
SMALL
NO_CHARGE

@<TRIPOS>ATOM
      1 N         -43.8085  -27.7218   14.7387 N.am      1 MOL    -0.2945
      2 N         -42.6848  -28.4403   16.9679 N.am      1 MOL    -0.2983
      3 N         -42.9245  -31.8123    8.9306 N.ar      1 MOL    -0.1750
      4 N         -43.1925  -32.2304    7.7173 N.ar      1 MOL    -0.2425
      5 C         -42.2717  -32.3078    6.7463 C.ar      1 MOL     0.2725
      6 C         -40.9752  -31.9301    7.0296 C.ar      1 MOL     0.0496
      7 C         -39.9821  -31.9720    6.0503 C.ar      1 MOL     0.0138
      8 C         -38.6984  -31.5696    6.3503 C.ar      1 MOL     0.0008
      9 C         -38.4642  -31.1350    7.6378 C.ar      1 MOL     0.0007
     10 C         -39.4400  -31.0879    8.6193 C.ar      1 MOL     0.0103
     11 C         -40.7064  -31.4907    8.3128 C.ar      1 MOL     0.0106
     12 C         -41.6631  -31.4211    9.2897 C.ar      1 MOL     0.0736
     13 C         -41.4852  -31.0413   10.6851 C.3       1 MOL     0.0925
     14 C         -42.0459  -29.6844   10.9340 C.ar      1 MOL    -0.0406
     15 C         -42.8904  -29.5741   12.0531 C.ar      1 MOL     0.0196
     16 C         -43.4649  -28.3637   12.3591 C.ar      1 MOL     0.0723
     17 C         -44.3609  -28.2164   13.5282 C.2       1 MOL     0.2495
     18 C         -44.6421  -27.5614   15.8861 C.3       1 MOL     0.1268
     19 C         -43.8712  -27.6540   17.1854 C.3       1 MOL     0.1265
     20 C         -41.7048  -27.9151   16.0109 C.3       1 MOL     0.1265
     21 C         -42.3970  -27.3877   14.7805 C.3       1 MOL     0.1268
     22 C         -42.4561  -29.6522   17.6261 C.2       1 MOL     0.2187
     23 C         -43.3395  -30.3108   18.5920 C.3       1 MOL     0.0752
     24 C         -42.9543  -30.1761   20.0479 C.3       1 MOL     0.0134
     25 C         -42.8733  -31.4791   19.3841 C.3       1 MOL     0.0134
     26 C         -43.2593  -27.2229   11.6200 C.ar      1 MOL     0.1355
     27 C         -42.4325  -27.3321   10.5249 C.ar      1 MOL     0.0392
     28 C         -41.8455  -28.5658   10.2091 C.ar      1 MOL     0.0066
     29 O         -42.5090  -32.7072    5.5776 O.2       1 MOL    -0.2658
     30 O         -41.3616  -30.2702   17.3705 O.2       1 MOL    -0.2753
     31 O         -45.5770  -28.5121   13.4792 O.2       1 MOL    -0.2699
     32 F         -43.8537  -26.0438   11.9649 F         1 MOL    -0.2047
     33 H         -40.2085  -32.3053    5.1003 H         1 MOL     0.0625
     34 H         -37.9477  -31.5920    5.6438 H         1 MOL     0.0618
     35 H         -37.5103  -30.8281    7.8829 H         1 MOL     0.0618
     36 H         -39.2130  -30.7533    9.5690 H         1 MOL     0.0624
     37 H         -40.4411  -31.0392   10.9193 H         1 MOL     0.0377
     38 H         -42.0021  -31.7455   11.3033 H         1 MOL     0.0377
     39 H         -43.0786  -30.3998   12.6426 H         1 MOL     0.0629
     40 H         -45.3899  -28.3270   15.8757 H         1 MOL     0.0480
     41 H         -45.0760  -26.5840   15.8363 H         1 MOL     0.0480
     42 H         -44.4797  -28.1197   17.9317 H         1 MOL     0.0480
     43 H         -43.6010  -26.6731   17.5173 H         1 MOL     0.0480
     44 H         -41.0335  -28.6985   15.7277 H         1 MOL     0.0480
     45 H         -41.1648  -27.1147   16.4722 H         1 MOL     0.0480
     46 H         -41.9230  -27.8048   13.9165 H         1 MOL     0.0480
     47 H         -42.3207  -26.3214   14.8015 H         1 MOL     0.0480
     48 H         -44.1982  -30.1300   17.9802 H         1 MOL     0.0394
     49 H         -43.7078  -29.9974   20.7865 H         1 MOL     0.0273
     50 H         -42.2718  -29.5612   20.5966 H         1 MOL     0.0273
     51 H         -43.5646  -32.2524   19.6472 H         1 MOL     0.0273
     52 H         -42.0990  -32.2057   19.2584 H         1 MOL     0.0273
     53 H         -42.2445  -26.5049    9.9361 H         1 MOL     0.0646
     54 H         -41.2299  -28.6204    9.3823 H         1 MOL     0.0621
     55 H         -44.1161  -32.5016    7.5093 H         1 MOL     0.1921
@<TRIPOS>BOND
     1    1   18 1 
     2    1   21 1 
     3    1   17 am
     4    2   20 1 
     5    2   22 am
     6    2   19 1 
     7    3    4 ar
     8    3   12 ar
     9    4   55 1 
    10    4    5 ar
    11    5    6 ar
    12    5   29 2 
    13    6    7 ar
    14    6   11 ar
    15    7    8 ar
    16    7   33 1 
    17    8    9 ar
    18    8   34 1 
    19    9   10 ar
    20    9   35 1 
    21   10   11 ar
    22   10   36 1 
    23   11   12 ar
    24   12   13 1 
    25   13   14 1 
    26   13   37 1 
    27   13   38 1 
    28   14   15 ar
    29   14   28 ar
    30   15   16 ar
    31   15   39 1 
    32   16   17 1 
    33   16   26 ar
    34   17   31 2 
    35   18   19 1 
    36   18   40 1 
    37   18   41 1 
    38   19   42 1 
    39   19   43 1 
    40   20   21 1 
    41   20   44 1 
    42   20   45 1 
    43   21   46 1 
    44   21   47 1 
    45   22   23 1 
    46   22   30 2 
    47   23   24 1 
    48   23   25 1 
    49   23   48 1 
    50   24   25 1 
    51   24   49 1 
    52   24   50 1 
    53   25   51 1 
    54   25   52 1 
    55   26   27 ar
    56   26   32 1 
    57   27   28 ar
    58   27   53 1 
    59   28   54 1 
@<TRIPOS>SUBSTRUCTURE
1 MOL         1
@<TRIPOS>MOLECULE
query molecule
   55    59     1     0     0
SMALL
NO_CHARGE

@<TRIPOS>ATOM
      1 N         -44.1024  -68.4026    9.7646 N.am      1 MOL    -0.2945
      2 N         -44.2153  -67.6917    7.2686 N.am      1 MOL    -0.2983
      3 N         -48.6981  -70.6334   11.5282 N.ar      1 MOL    -0.1750
      4 N         -49.3377  -69.5133   11.2934 N.ar      1 MOL    -0.2425
      5 C         -49.1270  -68.3869   11.9887 C.ar      1 MOL     0.2725
      6 C         -48.1926  -68.3986   13.0038 C.ar      1 MOL     0.0496
      7 C         -47.9485  -67.2594   13.7718 C.ar      1 MOL     0.0138
      8 C         -47.0258  -67.3004   14.7948 C.ar      1 MOL     0.0008
      9 C         -46.3800  -68.5001   15.0067 C.ar      1 MOL     0.0007
     10 C         -46.6125  -69.6382   14.2528 C.ar      1 MOL     0.0103
     11 C         -47.5257  -69.5863   13.2412 C.ar      1 MOL     0.0106
     12 C         -47.7563  -70.7251   12.5170 C.ar      1 MOL     0.0736
     13 C         -47.0723  -72.0067   12.6306 C.3       1 MOL     0.0925
     14 C         -45.8016  -71.9927   11.8545 C.ar      1 MOL    -0.0406
     15 C         -45.2390  -70.7224   11.6365 C.ar      1 MOL     0.0196
     16 C         -44.0712  -70.6056   10.9214 C.ar      1 MOL     0.0723
     17 C         -43.4563  -69.2823   10.6722 C.2       1 MOL     0.2495
     18 C         -43.5424  -67.1163    9.5024 C.3       1 MOL     0.1268
     19 C         -43.9202  -66.5822    8.1375 C.3       1 MOL     0.1265
     20 C         -45.3484  -68.5455    7.6413 C.3       1 MOL     0.1265
     21 C         -45.3281  -68.8362    9.1199 C.3       1 MOL     0.1268
     22 C         -43.4694  -67.9631    6.1178 C.2       1 MOL     0.2187
     23 C         -42.3091  -67.2172    5.6234 C.3       1 MOL     0.0752
     24 C         -40.9777  -67.9299    5.6962 C.3       1 MOL     0.0134
     25 C         -41.2363  -66.7674    6.5488 C.3       1 MOL     0.0134
     26 C         -43.4001  -71.6824   10.3921 C.ar      1 MOL     0.1355
     27 C         -43.9517  -72.9253   10.6061 C.ar      1 MOL     0.0392
     28 C         -45.1436  -73.0480   11.3344 C.ar      1 MOL     0.0066
     29 O         -49.7292  -67.3031   11.7776 O.2       1 MOL    -0.2658
     30 O         -43.8216  -68.9695    5.4048 O.2       1 MOL    -0.2753
     31 O         -42.3959  -68.9222   11.2329 O.2       1 MOL    -0.2699
     32 F         -42.2430  -71.5142    9.6881 F         1 MOL    -0.2047
     33 H         -48.4589  -66.3848   13.5734 H         1 MOL     0.0625
     34 H         -46.8280  -66.4716   15.3756 H         1 MOL     0.0618
     35 H         -45.6863  -68.5527   15.7684 H         1 MOL     0.0618
     36 H         -46.1024  -70.5130   14.4526 H         1 MOL     0.0624
     37 H         -47.7077  -72.7799   12.2519 H         1 MOL     0.0377
     38 H         -46.8440  -72.1862   13.6606 H         1 MOL     0.0377
     39 H         -45.7019  -69.8803   12.0121 H         1 MOL     0.0629
     40 H         -42.4761  -67.1891    9.5589 H         1 MOL     0.0480
     41 H         -43.9319  -66.4389   10.2341 H         1 MOL     0.0480
     42 H         -43.1064  -66.0165    7.7351 H         1 MOL     0.0480
     43 H         -44.7784  -65.9482    8.2212 H         1 MOL     0.0480
     44 H         -45.2883  -69.4671    7.1013 H         1 MOL     0.0480
     45 H         -46.2589  -68.0364    7.4028 H         1 MOL     0.0480
     46 H         -45.4322  -69.8917    9.2622 H         1 MOL     0.0480
     47 H         -46.1339  -68.2923    9.5650 H         1 MOL     0.0480
     48 H         -42.9018  -66.7202    4.8844 H         1 MOL     0.0394
     49 H         -40.2851  -67.8545    4.8838 H         1 MOL     0.0273
     50 H         -40.6679  -68.9401    5.8654 H         1 MOL     0.0273
     51 H         -40.7239  -65.8471    6.3607 H         1 MOL     0.0273
     52 H         -41.1848  -66.5880    7.6016 H         1 MOL     0.0273
     53 H         -43.4871  -73.7674   10.2301 H         1 MOL     0.0646
     54 H         -45.5361  -73.9915   11.4801 H         1 MOL     0.0621
     55 H         -50.0055  -69.4989   10.5698 H         1 MOL     0.1921
@<TRIPOS>BOND
     1    1   18 1 
     2    1   21 1 
     3    1   17 am
     4    2   20 1 
     5    2   22 am
     6    2   19 1 
     7    3    4 ar
     8    3   12 ar
     9    4   55 1 
    10    4    5 ar
    11    5    6 ar
    12    5   29 2 
    13    6    7 ar
    14    6   11 ar
    15    7    8 ar
    16    7   33 1 
    17    8    9 ar
    18    8   34 1 
    19    9   10 ar
    20    9   35 1 
    21   10   11 ar
    22   10   36 1 
    23   11   12 ar
    24   12   13 1 
    25   13   14 1 
    26   13   37 1 
    27   13   38 1 
    28   14   15 ar
    29   14   28 ar
    30   15   16 ar
    31   15   39 1 
    32   16   17 1 
    33   16   26 ar
    34   17   31 2 
    35   18   19 1 
    36   18   40 1 
    37   18   41 1 
    38   19   42 1 
    39   19   43 1 
    40   20   21 1 
    41   20   44 1 
    42   20   45 1 
    43   21   46 1 
    44   21   47 1 
    45   22   23 1 
    46   22   30 2 
    47   23   24 1 
    48   23   25 1 
    49   23   48 1 
    50   24   25 1 
    51   24   49 1 
    52   24   50 1 
    53   25   51 1 
    54   25   52 1 
    55   26   27 ar
    56   26   32 1 
    57   27   28 ar
    58   27   53 1 
    59   28   54 1 
@<TRIPOS>SUBSTRUCTURE
1 MOL         1
@<TRIPOS>MOLECULE
query molecule
   55    59     1     0     0
SMALL
NO_CHARGE

@<TRIPOS>ATOM
      1 N         -29.6698  -82.6740  -10.4572 N.am      1 MOL    -0.2945
      2 N         -29.6582  -83.0502  -13.0276 N.am      1 MOL    -0.2983
      3 N         -24.8650  -82.4934   -7.6858 N.ar      1 MOL    -0.1750
      4 N         -23.7804  -83.0332   -8.1866 N.ar      1 MOL    -0.2425
      5 C         -22.5872  -82.4224   -8.1850 C.ar      1 MOL     0.2725
      6 C         -22.4873  -81.1628   -7.6310 C.ar      1 MOL     0.0496
      7 C         -21.2738  -80.4740   -7.6211 C.ar      1 MOL     0.0138
      8 C         -21.2023  -79.2078   -7.0815 C.ar      1 MOL     0.0008
      9 C         -22.3684  -78.6796   -6.5693 C.ar      1 MOL     0.0007
     10 C         -23.5794  -79.3515   -6.5728 C.ar      1 MOL     0.0103
     11 C         -23.6388  -80.6049   -7.1068 C.ar      1 MOL     0.0106
     12 C         -24.8474  -81.2481   -7.1182 C.ar      1 MOL     0.0736
     13 C         -26.1046  -80.7919   -6.5400 C.3       1 MOL     0.0925
     14 C         -27.0176  -80.2882   -7.6031 C.ar      1 MOL    -0.0406
     15 C         -28.0253  -81.1812   -8.0090 C.ar      1 MOL     0.0196
     16 C         -28.9110  -80.8109   -8.9924 C.ar      1 MOL     0.0723
     17 C         -29.9803  -81.7297   -9.4438 C.2       1 MOL     0.2495
     18 C         -30.6733  -83.5798  -10.9150 C.3       1 MOL     0.1268
     19 C         -30.4356  -84.0451  -12.3356 C.3       1 MOL     0.1265
     20 C         -28.3112  -82.7818  -12.5124 C.3       1 MOL     0.1265
     21 C         -28.3274  -82.6959  -11.0079 C.3       1 MOL     0.1268
     22 C         -30.1442  -82.3581  -14.1407 C.2       1 MOL     0.2187
     23 C         -31.4638  -82.5025  -14.7611 C.3       1 MOL     0.0752
     24 C         -31.7615  -81.5764  -15.9186 C.3       1 MOL     0.0134
     25 C         -32.4832  -81.4260  -14.6530 C.3       1 MOL     0.0134
     26 C         -28.8729  -79.5887   -9.6206 C.ar      1 MOL     0.1355
     27 C         -27.8860  -78.7154   -9.2225 C.ar      1 MOL     0.0392
     28 C         -26.9800  -79.0904   -8.2201 C.ar      1 MOL     0.0066
     29 O         -21.5359  -82.9242   -8.6591 O.2       1 MOL    -0.2658
     30 O         -29.3674  -81.4993  -14.6924 O.2       1 MOL    -0.2753
     31 O         -31.1361  -81.6975   -8.9622 O.2       1 MOL    -0.2699
     32 F         -29.7754  -79.2682  -10.5930 F         1 MOL    -0.2047
     33 H         -20.4284  -80.9133   -8.0178 H         1 MOL     0.0625
     34 H         -20.3170  -78.6794   -7.0623 H         1 MOL     0.0618
     35 H         -22.3371  -77.7325   -6.1618 H         1 MOL     0.0618
     36 H         -24.4247  -78.9110   -6.1769 H         1 MOL     0.0624
     37 H         -25.9067  -80.0041   -5.8435 H         1 MOL     0.0377
     38 H         -26.5755  -81.6151   -6.0442 H         1 MOL     0.0377
     39 H         -28.0993  -82.1120   -7.5700 H         1 MOL     0.0629
     40 H         -31.6237  -83.0897  -10.8692 H         1 MOL     0.0480
     41 H         -30.6424  -84.4429  -10.2824 H         1 MOL     0.0480
     42 H         -31.3739  -84.1779  -12.8319 H         1 MOL     0.0480
     43 H         -29.9094  -84.9770  -12.3286 H         1 MOL     0.0480
     44 H         -27.9584  -81.8548  -12.9134 H         1 MOL     0.0480
     45 H         -27.6628  -83.5812  -12.8049 H         1 MOL     0.0480
     46 H         -27.8234  -81.7997  -10.7113 H         1 MOL     0.0480
     47 H         -27.8409  -83.5704  -10.6313 H         1 MOL     0.0480
     48 H         -31.4779  -83.5539  -14.5644 H         1 MOL     0.0394
     49 H         -32.2699  -81.9477  -16.7840 H         1 MOL     0.0273
     50 H         -31.1781  -80.9295  -16.5399 H         1 MOL     0.0273
     51 H         -33.5212  -81.6807  -14.6007 H         1 MOL     0.0273
     52 H         -32.6424  -80.6132  -13.9768 H         1 MOL     0.0273
     53 H         -27.8135  -77.7840   -9.6623 H         1 MOL     0.0646
     54 H         -26.2494  -78.4168   -7.9405 H         1 MOL     0.0621
     55 H         -23.8455  -83.9323   -8.5831 H         1 MOL     0.1921
@<TRIPOS>BOND
     1    1   18 1 
     2    1   21 1 
     3    1   17 am
     4    2   20 1 
     5    2   22 am
     6    2   19 1 
     7    3    4 ar
     8    3   12 ar
     9    4   55 1 
    10    4    5 ar
    11    5    6 ar
    12    5   29 2 
    13    6    7 ar
    14    6   11 ar
    15    7    8 ar
    16    7   33 1 
    17    8    9 ar
    18    8   34 1 
    19    9   10 ar
    20    9   35 1 
    21   10   11 ar
    22   10   36 1 
    23   11   12 ar
    24   12   13 1 
    25   13   14 1 
    26   13   37 1 
    27   13   38 1 
    28   14   15 ar
    29   14   28 ar
    30   15   16 ar
    31   15   39 1 
    32   16   17 1 
    33   16   26 ar
    34   17   31 2 
    35   18   19 1 
    36   18   40 1 
    37   18   41 1 
    38   19   42 1 
    39   19   43 1 
    40   20   21 1 
    41   20   44 1 
    42   20   45 1 
    43   21   46 1 
    44   21   47 1 
    45   22   23 1 
    46   22   30 2 
    47   23   24 1 
    48   23   25 1 
    49   23   48 1 
    50   24   25 1 
    51   24   49 1 
    52   24   50 1 
    53   25   51 1 
    54   25   52 1 
    55   26   27 ar
    56   26   32 1 
    57   27   28 ar
    58   27   53 1 
    59   28   54 1 
@<TRIPOS>SUBSTRUCTURE
1 MOL         1
@<TRIPOS>MOLECULE
query molecule
   55    59     1     0     0
SMALL
NO_CHARGE

@<TRIPOS>ATOM
      1 N         -51.3790  -56.5261   32.7140 N.am      1 MOL    -0.2945
      2 N         -50.2258  -58.5795   33.8106 N.am      1 MOL    -0.2983
      3 N         -45.9778  -53.4783   29.6179 N.ar      1 MOL    -0.1750
      4 N         -45.0820  -52.7170   30.1980 N.ar      1 MOL    -0.2425
      5 C         -44.5966  -52.9569   31.4243 C.ar      1 MOL     0.2725
      6 C         -45.0578  -54.0575   32.1169 C.ar      1 MOL     0.0496
      7 C         -44.6008  -54.3422   33.4042 C.ar      1 MOL     0.0138
      8 C         -45.0915  -55.4352   34.0857 C.ar      1 MOL     0.0008
      9 C         -46.0338  -56.2050   33.4371 C.ar      1 MOL     0.0007
     10 C         -46.4965  -55.9340   32.1603 C.ar      1 MOL     0.0103
     11 C         -46.0026  -54.8516   31.4937 C.ar      1 MOL     0.0106
     12 C         -46.4836  -54.5880   30.2392 C.ar      1 MOL     0.0736
     13 C         -47.4227  -55.3841   29.4598 C.3       1 MOL     0.0925
     14 C         -48.8081  -54.8609   29.6156 C.ar      1 MOL    -0.0406
     15 C         -49.6563  -55.6272   30.4348 C.ar      1 MOL     0.0196
     16 C         -50.9574  -55.2309   30.6314 C.ar      1 MOL     0.0723
     17 C         -51.8756  -56.0180   31.4852 C.2       1 MOL     0.2495
     18 C         -52.2357  -57.2854   33.5664 C.3       1 MOL     0.1268
     19 C         -51.4746  -58.2519   34.4481 C.3       1 MOL     0.1265
     20 C         -49.2810  -57.4785   33.5932 C.3       1 MOL     0.1265
     21 C         -49.9998  -56.2585   33.0774 C.3       1 MOL     0.1268
     22 C         -49.9069  -59.8795   33.4075 C.2       1 MOL     0.2187
     23 C         -50.7448  -61.0741   33.5413 C.3       1 MOL     0.0752
     24 C         -50.2745  -62.3050   32.7998 C.3       1 MOL     0.0134
     25 C         -51.4969  -61.6165   32.3795 C.3       1 MOL     0.0134
     26 C         -51.4960  -54.1013   30.0625 C.ar      1 MOL     0.1355
     27 C         -50.6649  -53.3520   29.2608 C.ar      1 MOL     0.0392
     28 C         -49.3370  -53.7540   29.0572 C.ar      1 MOL     0.0066
     29 O         -43.7366  -52.2395   31.9966 O.2       1 MOL    -0.2658
     30 O         -48.7631  -60.0679   32.8586 O.2       1 MOL    -0.2753
     31 O         -53.0631  -56.2445   31.1575 O.2       1 MOL    -0.2699
     32 F         -52.7955  -53.7503   30.2881 F         1 MOL    -0.2047
     33 H         -43.8940  -53.7342   33.8467 H         1 MOL     0.0625
     34 H         -44.7689  -55.6661   35.0374 H         1 MOL     0.0618
     35 H         -46.4151  -57.0270   33.9300 H         1 MOL     0.0618
     36 H         -47.2043  -56.5420   31.7188 H         1 MOL     0.0624
     37 H         -47.3894  -56.3989   29.7977 H         1 MOL     0.0377
     38 H         -47.1483  -55.3285   28.4269 H         1 MOL     0.0377
     39 H         -49.3028  -56.4847   30.8867 H         1 MOL     0.0629
     40 H         -52.9187  -57.8412   32.9581 H         1 MOL     0.0480
     41 H         -52.7469  -56.5968   34.2071 H         1 MOL     0.0480
     42 H         -52.0516  -59.1417   34.5876 H         1 MOL     0.0480
     43 H         -51.2887  -57.8032   35.4018 H         1 MOL     0.0480
     44 H         -48.5451  -57.7812   32.8781 H         1 MOL     0.0480
     45 H         -48.8130  -57.2348   34.5241 H         1 MOL     0.0480
     46 H         -49.4837  -55.8982   32.2119 H         1 MOL     0.0480
     47 H         -50.0105  -55.5354   33.8650 H         1 MOL     0.0480
     48 H         -51.0214  -60.8088   34.5401 H         1 MOL     0.0394
     49 H         -50.3348  -63.2664   33.2661 H         1 MOL     0.0273
     50 H         -49.3650  -62.5970   32.3176 H         1 MOL     0.0273
     51 H         -52.4478  -62.0826   32.5331 H         1 MOL     0.0273
     52 H         -51.8412  -61.2050   31.4546 H         1 MOL     0.0273
     53 H         -51.0197  -52.4937   28.8096 H         1 MOL     0.0646
     54 H         -48.7351  -53.1743   28.4512 H         1 MOL     0.0621
     55 H         -44.7489  -51.9303   29.7083 H         1 MOL     0.1921
@<TRIPOS>BOND
     1    1   18 1 
     2    1   21 1 
     3    1   17 am
     4    2   20 1 
     5    2   22 am
     6    2   19 1 
     7    3    4 ar
     8    3   12 ar
     9    4   55 1 
    10    4    5 ar
    11    5    6 ar
    12    5   29 2 
    13    6    7 ar
    14    6   11 ar
    15    7    8 ar
    16    7   33 1 
    17    8    9 ar
    18    8   34 1 
    19    9   10 ar
    20    9   35 1 
    21   10   11 ar
    22   10   36 1 
    23   11   12 ar
    24   12   13 1 
    25   13   14 1 
    26   13   37 1 
    27   13   38 1 
    28   14   15 ar
    29   14   28 ar
    30   15   16 ar
    31   15   39 1 
    32   16   17 1 
    33   16   26 ar
    34   17   31 2 
    35   18   19 1 
    36   18   40 1 
    37   18   41 1 
    38   19   42 1 
    39   19   43 1 
    40   20   21 1 
    41   20   44 1 
    42   20   45 1 
    43   21   46 1 
    44   21   47 1 
    45   22   23 1 
    46   22   30 2 
    47   23   24 1 
    48   23   25 1 
    49   23   48 1 
    50   24   25 1 
    51   24   49 1 
    52   24   50 1 
    53   25   51 1 
    54   25   52 1 
    55   26   27 ar
    56   26   32 1 
    57   27   28 ar
    58   27   53 1 
    59   28   54 1 
@<TRIPOS>SUBSTRUCTURE
1 MOL         1
@<TRIPOS>MOLECULE
query molecule
   55    59     1     0     0
SMALL
NO_CHARGE

@<TRIPOS>ATOM
      1 N          -0.7887  -61.0414  -18.3588 N.am      1 MOL    -0.2945
      2 N          -1.1844  -60.5611  -20.8809 N.am      1 MOL    -0.2983
      3 N          -3.3783  -56.4821  -18.4669 N.ar      1 MOL    -0.1750
      4 N          -3.2087  -56.2282  -19.7418 N.ar      1 MOL    -0.2425
      5 C          -2.2210  -55.4535  -20.2120 C.ar      1 MOL     0.2725
      6 C          -1.3350  -54.8913  -19.3162 C.ar      1 MOL     0.0496
      7 C          -0.3009  -54.0609  -19.7503 C.ar      1 MOL     0.0138
      8 C           0.5595  -53.4930  -18.8355 C.ar      1 MOL     0.0008
      9 C           0.3408  -53.7859  -17.5060 C.ar      1 MOL     0.0007
     10 C          -0.6812  -54.6077  -17.0612 C.ar      1 MOL     0.0103
     11 C          -1.5255  -55.1667  -17.9747 C.ar      1 MOL     0.0106
     12 C          -2.5412  -55.9625  -17.5169 C.ar      1 MOL     0.0736
     13 C          -2.7994  -56.3751  -16.1435 C.3       1 MOL     0.0925
     14 C          -1.9180  -57.5137  -15.7642 C.ar      1 MOL    -0.0406
     15 C          -2.0512  -58.6712  -16.5518 C.ar      1 MOL     0.0196
     16 C          -1.2874  -59.7792  -16.2730 C.ar      1 MOL     0.0723
     17 C          -1.4072  -61.0135  -17.0814 C.2       1 MOL     0.2495
     18 C          -0.8782  -62.2155  -19.1654 C.3       1 MOL     0.1268
     19 C          -0.7633  -61.9176  -20.6449 C.3       1 MOL     0.1265
     20 C          -0.3975  -59.4998  -20.2434 C.3       1 MOL     0.1265
     21 C          -0.0736  -59.8650  -18.8176 C.3       1 MOL     0.1268
     22 C          -2.2898  -60.2457  -21.6764 C.2       1 MOL     0.2187
     23 C          -3.1779  -61.1868  -22.3640 C.3       1 MOL     0.0752
     24 C          -4.3113  -61.7566  -21.5413 C.3       1 MOL     0.0134
     25 C          -3.2158  -62.6229  -21.9822 C.3       1 MOL     0.0134
     26 C          -0.3761  -59.8278  -15.2449 C.ar      1 MOL     0.1355
     27 C          -0.2465  -58.6943  -14.4746 C.ar      1 MOL     0.0392
     28 C          -1.0250  -57.5623  -14.7557 C.ar      1 MOL     0.0066
     29 O          -2.0414  -55.1996  -21.4307 O.2       1 MOL    -0.2658
     30 O          -2.5748  -59.0050  -21.8332 O.2       1 MOL    -0.2753
     31 O          -2.0307  -62.0206  -16.6745 O.2       1 MOL    -0.2699
     32 F           0.3588  -60.9532  -15.0079 F         1 MOL    -0.2047
     33 H          -0.1796  -53.8721  -20.7576 H         1 MOL     0.0625
     34 H           1.3311  -52.8766  -19.1320 H         1 MOL     0.0618
     35 H           0.9727  -53.3700  -16.8047 H         1 MOL     0.0618
     36 H          -0.8027  -54.7952  -16.0534 H         1 MOL     0.0624
     37 H          -3.8222  -56.6760  -16.0525 H         1 MOL     0.0377
     38 H          -2.5963  -55.5511  -15.4914 H         1 MOL     0.0377
     39 H          -2.7208  -58.6886  -17.3366 H         1 MOL     0.0629
     40 H          -1.8223  -62.6853  -18.9825 H         1 MOL     0.0480
     41 H          -0.0608  -62.8534  -18.8993 H         1 MOL     0.0480
     42 H          -1.3873  -62.5891  -21.1962 H         1 MOL     0.0480
     43 H           0.2511  -62.0434  -20.9623 H         1 MOL     0.0480
     44 H          -0.9592  -58.5894  -20.2539 H         1 MOL     0.0480
     45 H           0.5178  -59.3752  -20.7836 H         1 MOL     0.0480
     46 H          -0.3336  -59.0411  -18.1863 H         1 MOL     0.0480
     47 H           0.9713  -60.0875  -18.7728 H         1 MOL     0.0480
     48 H          -3.0550  -60.6742  -23.2948 H         1 MOL     0.0394
     49 H          -5.2849  -61.8632  -21.9727 H         1 MOL     0.0273
     50 H          -4.7564  -61.5182  -20.5979 H         1 MOL     0.0273
     51 H          -3.3957  -63.3668  -22.7301 H         1 MOL     0.0273
     52 H          -2.5374  -63.2811  -21.4823 H         1 MOL     0.0273
     53 H           0.4244  -58.6779  -13.6899 H         1 MOL     0.0646
     54 H          -0.9086  -56.7256  -14.1624 H         1 MOL     0.0621
     55 H          -3.8379  -56.6271  -20.3859 H         1 MOL     0.1921
@<TRIPOS>BOND
     1    1   18 1 
     2    1   21 1 
     3    1   17 am
     4    2   20 1 
     5    2   22 am
     6    2   19 1 
     7    3    4 ar
     8    3   12 ar
     9    4   55 1 
    10    4    5 ar
    11    5    6 ar
    12    5   29 2 
    13    6    7 ar
    14    6   11 ar
    15    7    8 ar
    16    7   33 1 
    17    8    9 ar
    18    8   34 1 
    19    9   10 ar
    20    9   35 1 
    21   10   11 ar
    22   10   36 1 
    23   11   12 ar
    24   12   13 1 
    25   13   14 1 
    26   13   37 1 
    27   13   38 1 
    28   14   15 ar
    29   14   28 ar
    30   15   16 ar
    31   15   39 1 
    32   16   17 1 
    33   16   26 ar
    34   17   31 2 
    35   18   19 1 
    36   18   40 1 
    37   18   41 1 
    38   19   42 1 
    39   19   43 1 
    40   20   21 1 
    41   20   44 1 
    42   20   45 1 
    43   21   46 1 
    44   21   47 1 
    45   22   23 1 
    46   22   30 2 
    47   23   24 1 
    48   23   25 1 
    49   23   48 1 
    50   24   25 1 
    51   24   49 1 
    52   24   50 1 
    53   25   51 1 
    54   25   52 1 
    55   26   27 ar
    56   26   32 1 
    57   27   28 ar
    58   27   53 1 
    59   28   54 1 
@<TRIPOS>SUBSTRUCTURE
1 MOL         1
@<TRIPOS>MOLECULE
query molecule
   55    59     1     0     0
SMALL
NO_CHARGE

@<TRIPOS>ATOM
      1 N         -58.8707  -66.7629   16.4176 N.am      1 MOL    -0.2945
      2 N         -60.7904  -65.4209   15.2942 N.am      1 MOL    -0.2983
      3 N         -56.5779  -73.5331   14.2474 N.ar      1 MOL    -0.1750
      4 N         -55.8850  -74.5943   14.5827 N.ar      1 MOL    -0.2425
      5 C         -55.6782  -74.9658   15.8539 C.ar      1 MOL     0.2725
      6 C         -56.2177  -74.1984   16.8657 C.ar      1 MOL     0.0496
      7 C         -56.0162  -74.5286   18.2063 C.ar      1 MOL     0.0138
      8 C         -56.5468  -73.7352   19.2007 C.ar      1 MOL     0.0008
      9 C         -57.2653  -72.6284   18.8008 C.ar      1 MOL     0.0007
     10 C         -57.4728  -72.2886   17.4744 C.ar      1 MOL     0.0103
     11 C         -56.9457  -73.0817   16.4983 C.ar      1 MOL     0.0106
     12 C         -57.1454  -72.7218   15.1925 C.ar      1 MOL     0.0736
     13 C         -57.9445  -71.6136   14.6862 C.3       1 MOL     0.0925
     14 C         -57.1474  -70.3559   14.6740 C.ar      1 MOL    -0.0406
     15 C         -57.6392  -69.3193   15.4871 C.ar      1 MOL     0.0196
     16 C         -56.9778  -68.1155   15.5346 C.ar      1 MOL     0.0723
     17 C         -57.4724  -67.0041   16.3781 C.2       1 MOL     0.2495
     18 C         -59.3859  -65.7034   17.2232 C.3       1 MOL     0.1268
     19 C         -60.7043  -65.1667   16.7088 C.3       1 MOL     0.1265
     20 C         -60.7891  -66.8249   14.8693 C.3       1 MOL     0.1265
     21 C         -59.7506  -67.6074   15.6312 C.3       1 MOL     0.1268
     22 C         -60.8712  -64.3929   14.3502 C.2       1 MOL     0.2187
     23 C         -60.8692  -62.9517   14.6145 C.3       1 MOL     0.0752
     24 C         -61.5279  -62.5087   15.9014 C.3       1 MOL     0.0134
     25 C         -62.1339  -62.1705   14.6116 C.3       1 MOL     0.0134
     26 C         -55.8341  -67.8546   14.8179 C.ar      1 MOL     0.1355
     27 C         -55.3536  -68.8700   14.0222 C.ar      1 MOL     0.0392
     28 C         -56.0265  -70.0992   13.9707 C.ar      1 MOL     0.0066
     29 O         -55.0180  -75.9805   16.1951 O.2       1 MOL    -0.2658
     30 O         -60.9560  -64.7260   13.1145 O.2       1 MOL    -0.2753
     31 O         -56.7012  -66.2806   17.0493 O.2       1 MOL    -0.2699
     32 F         -55.2139  -66.6415   14.8985 F         1 MOL    -0.2047
     33 H         -55.4698  -75.3683   18.4540 H         1 MOL     0.0625
     34 H         -56.4118  -73.9590   20.1982 H         1 MOL     0.0618
     35 H         -57.6699  -72.0204   19.5294 H         1 MOL     0.0618
     36 H         -58.0185  -71.4479   17.2275 H         1 MOL     0.0624
     37 H         -58.8011  -71.4815   15.3136 H         1 MOL     0.0377
     38 H         -58.2496  -71.8370   13.6850 H         1 MOL     0.0377
     39 H         -58.4945  -69.4620   16.0464 H         1 MOL     0.0629
     40 H         -58.6726  -64.9055   17.2365 H         1 MOL     0.0480
     41 H         -59.5573  -66.0970   18.2039 H         1 MOL     0.0480
     42 H         -60.7586  -64.1137   16.8891 H         1 MOL     0.0480
     43 H         -61.5145  -65.6498   17.2145 H         1 MOL     0.0480
     44 H         -60.5705  -66.8767   13.8233 H         1 MOL     0.0480
     45 H         -61.7522  -67.2474   15.0666 H         1 MOL     0.0480
     46 H         -59.1573  -68.1589   14.9320 H         1 MOL     0.0480
     47 H         -60.2680  -68.2511   16.3102 H         1 MOL     0.0480
     48 H         -59.9259  -62.8295   14.1250 H         1 MOL     0.0394
     49 H         -61.0764  -61.7435   16.4979 H         1 MOL     0.0273
     50 H         -61.8623  -63.0027   16.7897 H         1 MOL     0.0273
     51 H         -62.1303  -61.1551   14.2738 H         1 MOL     0.0273
     52 H         -63.1013  -62.3169   14.1804 H         1 MOL     0.0273
     53 H         -54.4972  -68.7261   13.4635 H         1 MOL     0.0646
     54 H         -55.6452  -70.8436   13.3657 H         1 MOL     0.0621
     55 H         -55.4978  -75.1462   13.8648 H         1 MOL     0.1921
@<TRIPOS>BOND
     1    1   18 1 
     2    1   21 1 
     3    1   17 am
     4    2   20 1 
     5    2   22 am
     6    2   19 1 
     7    3    4 ar
     8    3   12 ar
     9    4   55 1 
    10    4    5 ar
    11    5    6 ar
    12    5   29 2 
    13    6    7 ar
    14    6   11 ar
    15    7    8 ar
    16    7   33 1 
    17    8    9 ar
    18    8   34 1 
    19    9   10 ar
    20    9   35 1 
    21   10   11 ar
    22   10   36 1 
    23   11   12 ar
    24   12   13 1 
    25   13   14 1 
    26   13   37 1 
    27   13   38 1 
    28   14   15 ar
    29   14   28 ar
    30   15   16 ar
    31   15   39 1 
    32   16   17 1 
    33   16   26 ar
    34   17   31 2 
    35   18   19 1 
    36   18   40 1 
    37   18   41 1 
    38   19   42 1 
    39   19   43 1 
    40   20   21 1 
    41   20   44 1 
    42   20   45 1 
    43   21   46 1 
    44   21   47 1 
    45   22   23 1 
    46   22   30 2 
    47   23   24 1 
    48   23   25 1 
    49   23   48 1 
    50   24   25 1 
    51   24   49 1 
    52   24   50 1 
    53   25   51 1 
    54   25   52 1 
    55   26   27 ar
    56   26   32 1 
    57   27   28 ar
    58   27   53 1 
    59   28   54 1 
@<TRIPOS>SUBSTRUCTURE
1 MOL         1
@<TRIPOS>MOLECULE
query molecule
   55    59     1     0     0
SMALL
NO_CHARGE

@<TRIPOS>ATOM
      1 N         -69.3084  -36.6205   30.1815 N.am      1 MOL    -0.2945
      2 N         -71.5467  -37.6948   30.9457 N.am      1 MOL    -0.2983
      3 N         -63.7940  -39.5724   25.7508 N.ar      1 MOL    -0.1750
      4 N         -63.1541  -39.9050   24.6561 N.ar      1 MOL    -0.2425
      5 C         -62.5206  -39.0174   23.8765 C.ar      1 MOL     0.2725
      6 C         -62.5385  -37.6857   24.2371 C.ar      1 MOL     0.0496
      7 C         -61.9122  -36.7178   23.4510 C.ar      1 MOL     0.0138
      8 C         -61.9613  -35.3906   23.8196 C.ar      1 MOL     0.0008
      9 C         -62.6477  -35.0879   24.9765 C.ar      1 MOL     0.0007
     10 C         -63.2740  -36.0379   25.7658 C.ar      1 MOL     0.0103
     11 C         -63.2173  -37.3487   25.3936 C.ar      1 MOL     0.0106
     12 C         -63.8566  -38.2729   26.1757 C.ar      1 MOL     0.0736
     13 C         -64.5417  -38.0471   27.4417 C.3       1 MOL     0.0925
     14 C         -65.9914  -37.7936   27.2147 C.ar      1 MOL    -0.0406
     15 C         -66.6331  -37.0230   28.2006 C.ar      1 MOL     0.0196
     16 C         -67.9738  -36.7439   28.0848 C.ar      1 MOL     0.0723
     17 C         -68.6782  -35.9385   29.1078 C.2       1 MOL     0.2495
     18 C         -69.9933  -35.8779   31.1897 C.3       1 MOL     0.1268
     19 C         -71.0938  -36.6754   31.8561 C.3       1 MOL     0.1265
     20 C         -70.5673  -38.7099   30.5430 C.3       1 MOL     0.1265
     21 C         -69.2399  -38.0692   30.2287 C.3       1 MOL     0.1268
     22 C         -72.8547  -37.7349   30.4540 C.2       1 MOL     0.2187
     23 C         -73.9365  -36.7916   30.7492 C.3       1 MOL     0.0752
     24 C         -73.6723  -35.3440   30.4017 C.3       1 MOL     0.0134
     25 C         -73.7825  -35.7548   31.8032 C.3       1 MOL     0.0134
     26 C         -68.7476  -37.1823   27.0365 C.ar      1 MOL     0.1355
     27 C         -68.1184  -37.9366   26.0720 C.ar      1 MOL     0.0392
     28 C         -66.7508  -38.2240   26.1876 C.ar      1 MOL     0.0066
     29 O         -61.9007  -39.3171   22.8240 O.2       1 MOL    -0.2658
     30 O         -73.1610  -38.6918   29.6567 O.2       1 MOL    -0.2753
     31 O         -68.7326  -34.6884   29.0528 O.2       1 MOL    -0.2699
     32 F         -70.0764  -36.8789   26.9671 F         1 MOL    -0.2047
     33 H         -61.4110  -36.9958   22.5929 H         1 MOL     0.0625
     34 H         -61.5059  -34.6575   23.2553 H         1 MOL     0.0618
     35 H         -62.6976  -34.1001   25.2696 H         1 MOL     0.0618
     36 H         -63.7761  -35.7590   26.6234 H         1 MOL     0.0624
     37 H         -64.1084  -37.1996   27.9305 H         1 MOL     0.0377
     38 H         -64.4369  -38.9203   28.0516 H         1 MOL     0.0377
     39 H         -66.0989  -36.6684   29.0090 H         1 MOL     0.0629
     40 H         -70.4245  -35.0075   30.7404 H         1 MOL     0.0480
     41 H         -69.2781  -35.6207   31.9437 H         1 MOL     0.0480
     42 H         -71.9076  -36.0270   32.1041 H         1 MOL     0.0480
     43 H         -70.7221  -37.1276   32.7520 H         1 MOL     0.0480
     44 H         -70.9255  -39.2204   29.6738 H         1 MOL     0.0480
     45 H         -70.4339  -39.4014   31.3487 H         1 MOL     0.0480
     46 H         -68.9056  -38.4252   29.2765 H         1 MOL     0.0480
     47 H         -68.5627  -38.3325   31.0131 H         1 MOL     0.0480
     48 H         -74.6819  -37.5314   30.5459 H         1 MOL     0.0394
     49 H         -74.4436  -34.7515   29.9553 H         1 MOL     0.0273
     50 H         -72.9389  -34.8271   29.8188 H         1 MOL     0.0273
     51 H         -74.6322  -35.4527   32.3793 H         1 MOL     0.0273
     52 H         -73.1551  -35.6509   32.6628 H         1 MOL     0.0273
     53 H         -68.6541  -38.2903   25.2633 H         1 MOL     0.0646
     54 H         -66.3036  -38.7919   25.4507 H         1 MOL     0.0621
     55 H         -63.1377  -40.8541   24.3938 H         1 MOL     0.1921
@<TRIPOS>BOND
     1    1   18 1 
     2    1   21 1 
     3    1   17 am
     4    2   20 1 
     5    2   22 am
     6    2   19 1 
     7    3    4 ar
     8    3   12 ar
     9    4   55 1 
    10    4    5 ar
    11    5    6 ar
    12    5   29 2 
    13    6    7 ar
    14    6   11 ar
    15    7    8 ar
    16    7   33 1 
    17    8    9 ar
    18    8   34 1 
    19    9   10 ar
    20    9   35 1 
    21   10   11 ar
    22   10   36 1 
    23   11   12 ar
    24   12   13 1 
    25   13   14 1 
    26   13   37 1 
    27   13   38 1 
    28   14   15 ar
    29   14   28 ar
    30   15   16 ar
    31   15   39 1 
    32   16   17 1 
    33   16   26 ar
    34   17   31 2 
    35   18   19 1 
    36   18   40 1 
    37   18   41 1 
    38   19   42 1 
    39   19   43 1 
    40   20   21 1 
    41   20   44 1 
    42   20   45 1 
    43   21   46 1 
    44   21   47 1 
    45   22   23 1 
    46   22   30 2 
    47   23   24 1 
    48   23   25 1 
    49   23   48 1 
    50   24   25 1 
    51   24   49 1 
    52   24   50 1 
    53   25   51 1 
    54   25   52 1 
    55   26   27 ar
    56   26   32 1 
    57   27   28 ar
    58   27   53 1 
    59   28   54 1 
@<TRIPOS>SUBSTRUCTURE
1 MOL         1
@<TRIPOS>MOLECULE
query molecule
   55    59     1     0     0
SMALL
NO_CHARGE

@<TRIPOS>ATOM
      1 N         -12.5059  -26.5110   27.6311 N.am      1 MOL    -0.2945
      2 N         -14.6958  -25.8431   26.4036 N.am      1 MOL    -0.2983
      3 N          -6.7762  -27.3350   23.8531 N.ar      1 MOL    -0.1750
      4 N          -6.9618  -27.6982   22.6072 N.ar      1 MOL    -0.2425
      5 C          -7.7647  -28.7098   22.2482 C.ar      1 MOL     0.2725
      6 C          -8.4322  -29.4087   23.2329 C.ar      1 MOL     0.0496
      7 C          -9.2645  -30.4830   22.9161 C.ar      1 MOL     0.0138
      8 C          -9.9045  -31.1802   23.9180 C.ar      1 MOL     0.0008
      9 C          -9.6772  -30.7643   25.2128 C.ar      1 MOL     0.0007
     10 C          -8.8538  -29.7005   25.5417 C.ar      1 MOL     0.0103
     11 C          -8.2272  -29.0156   24.5426 C.ar      1 MOL     0.0106
     12 C          -7.4029  -27.9777   24.8862 C.ar      1 MOL     0.0736
     13 C          -7.1629  -27.4337   26.2164 C.3       1 MOL     0.0925
     14 C          -8.0951  -26.3072   26.4975 C.ar      1 MOL    -0.0406
     15 C          -9.2400  -26.6402   27.2431 C.ar      1 MOL     0.0196
     16 C         -10.1655  -25.6699   27.5445 C.ar      1 MOL     0.0723
     17 C         -11.3823  -25.9898   28.3246 C.2       1 MOL     0.2495
     18 C         -13.6955  -26.8360   28.3497 C.3       1 MOL     0.1268
     19 C         -14.9376  -26.7587   27.4882 C.3       1 MOL     0.1265
     20 C         -13.6307  -26.1971   25.4591 C.3       1 MOL     0.1265
     21 C         -12.4169  -26.7029   26.1955 C.3       1 MOL     0.1268
     22 C         -15.4288  -24.6642   26.2387 C.2       1 MOL     0.2187
     23 C         -16.5061  -24.1687   27.0994 C.3       1 MOL     0.0752
     24 C         -17.8951  -24.1793   26.5023 C.3       1 MOL     0.0134
     25 C         -17.2241  -22.9071   26.7788 C.3       1 MOL     0.0134
     26 C         -10.0381  -24.3584   27.1526 C.ar      1 MOL     0.1355
     27 C          -8.9170  -24.0335   26.4228 C.ar      1 MOL     0.0392
     28 C          -7.9713  -25.0213   26.1126 C.ar      1 MOL     0.0066
     29 O          -7.9564  -29.0721   21.0592 O.2       1 MOL    -0.2658
     30 O         -15.1426  -23.9221   25.2324 O.2       1 MOL    -0.2753
     31 O         -11.4466  -25.8158   29.5633 O.2       1 MOL    -0.2699
     32 F         -10.9859  -23.4314   27.4766 F         1 MOL    -0.2047
     33 H          -9.4016  -30.7556   21.9302 H         1 MOL     0.0625
     34 H         -10.5246  -31.9771   23.7086 H         1 MOL     0.0618
     35 H         -10.1456  -31.2735   25.9779 H         1 MOL     0.0618
     36 H          -8.7161  -29.4291   26.5280 H         1 MOL     0.0624
     37 H          -6.1548  -27.0797   26.2756 H         1 MOL     0.0377
     38 H          -7.3277  -28.2050   26.9398 H         1 MOL     0.0377
     39 H          -9.3851  -27.6104   27.5628 H         1 MOL     0.0629
     40 H         -13.8007  -26.1511   29.1654 H         1 MOL     0.0480
     41 H         -13.6009  -27.8462   28.6912 H         1 MOL     0.0480
     42 H         -15.7612  -26.4111   28.0757 H         1 MOL     0.0480
     43 H         -15.1703  -27.7284   27.0998 H         1 MOL     0.0480
     44 H         -13.3613  -25.3318   24.8906 H         1 MOL     0.0480
     45 H         -13.9863  -26.9696   24.8096 H         1 MOL     0.0480
     46 H         -11.5559  -26.1796   25.8351 H         1 MOL     0.0480
     47 H         -12.3482  -27.7548   26.0166 H         1 MOL     0.0480
     48 H         -16.0190  -24.5372   27.9777 H         1 MOL     0.0394
     49 H         -18.7311  -24.4840   27.0970 H         1 MOL     0.0273
     50 H         -18.3456  -24.6271   25.6412 H         1 MOL     0.0273
     51 H         -17.5786  -22.2817   27.5713 H         1 MOL     0.0273
     52 H         -16.9914  -22.0434   26.1931 H         1 MOL     0.0273
     53 H          -8.7728  -23.0620   26.1040 H         1 MOL     0.0646
     54 H          -7.1398  -24.7511   25.5638 H         1 MOL     0.0621
     55 H          -6.4882  -27.2028   21.9000 H         1 MOL     0.1921
@<TRIPOS>BOND
     1    1   18 1 
     2    1   21 1 
     3    1   17 am
     4    2   20 1 
     5    2   22 am
     6    2   19 1 
     7    3    4 ar
     8    3   12 ar
     9    4   55 1 
    10    4    5 ar
    11    5    6 ar
    12    5   29 2 
    13    6    7 ar
    14    6   11 ar
    15    7    8 ar
    16    7   33 1 
    17    8    9 ar
    18    8   34 1 
    19    9   10 ar
    20    9   35 1 
    21   10   11 ar
    22   10   36 1 
    23   11   12 ar
    24   12   13 1 
    25   13   14 1 
    26   13   37 1 
    27   13   38 1 
    28   14   15 ar
    29   14   28 ar
    30   15   16 ar
    31   15   39 1 
    32   16   17 1 
    33   16   26 ar
    34   17   31 2 
    35   18   19 1 
    36   18   40 1 
    37   18   41 1 
    38   19   42 1 
    39   19   43 1 
    40   20   21 1 
    41   20   44 1 
    42   20   45 1 
    43   21   46 1 
    44   21   47 1 
    45   22   23 1 
    46   22   30 2 
    47   23   24 1 
    48   23   25 1 
    49   23   48 1 
    50   24   25 1 
    51   24   49 1 
    52   24   50 1 
    53   25   51 1 
    54   25   52 1 
    55   26   27 ar
    56   26   32 1 
    57   27   28 ar
    58   27   53 1 
    59   28   54 1 
@<TRIPOS>SUBSTRUCTURE
1 MOL         1
@<TRIPOS>MOLECULE
query molecule
   55    59     1     0     0
SMALL
NO_CHARGE

@<TRIPOS>ATOM
      1 N          -9.0119  -58.2533  -25.3577 N.am      1 MOL    -0.2945
      2 N         -11.3478  -59.1090  -26.1060 N.am      1 MOL    -0.2983
      3 N          -3.6474  -55.3286  -25.5316 N.ar      1 MOL    -0.1750
      4 N          -2.6822  -55.3757  -24.6456 N.ar      1 MOL    -0.2425
      5 C          -2.1948  -54.2886  -24.0312 C.ar      1 MOL     0.2725
      6 C          -2.7298  -53.0552  -24.3413 C.ar      1 MOL     0.0496
      7 C          -2.2460  -51.8895  -23.7461 C.ar      1 MOL     0.0138
      8 C          -2.7812  -50.6661  -24.0871 C.ar      1 MOL     0.0008
      9 C          -3.7920  -50.6653  -25.0250 C.ar      1 MOL     0.0007
     10 C          -4.2815  -51.8140  -25.6239 C.ar      1 MOL     0.0103
     11 C          -3.7467  -53.0198  -25.2775 C.ar      1 MOL     0.0106
     12 C          -4.2301  -54.1438  -25.8919 C.ar      1 MOL     0.0736
     13 C          -5.3353  -54.2370  -26.8368 C.3       1 MOL     0.0925
     14 C          -6.6261  -54.4173  -26.1166 C.ar      1 MOL    -0.0406
     15 C          -6.8831  -55.7191  -25.6509 C.ar      1 MOL     0.0196
     16 C          -8.0538  -55.9875  -24.9831 C.ar      1 MOL     0.0723
     17 C          -8.3547  -57.3482  -24.4838 C.2       1 MOL     0.2495
     18 C          -9.3144  -59.5757  -24.9138 C.3       1 MOL     0.1268
     19 C         -10.5037  -60.1752  -25.6329 C.3       1 MOL     0.1265
     20 C         -10.7673  -58.1871  -27.0885 C.3       1 MOL     0.1265
     21 C          -9.3631  -57.8084  -26.6936 C.3       1 MOL     0.1268
     22 C         -12.6628  -58.9395  -25.6629 C.2       1 MOL     0.2187
     23 C         -13.3750  -59.7623  -24.6817 C.3       1 MOL     0.0752
     24 C         -12.5250  -60.7020  -23.8568 C.3       1 MOL     0.0134
     25 C         -13.4677  -61.2372  -24.8417 C.3       1 MOL     0.0134
     26 C          -9.0152  -55.0368  -24.7344 C.ar      1 MOL     0.1355
     27 C          -8.7627  -53.7628  -25.1908 C.ar      1 MOL     0.0392
     28 C          -7.5696  -53.4858  -25.8735 C.ar      1 MOL     0.0066
     29 O          -1.2709  -54.3137  -23.1782 O.2       1 MOL    -0.2658
     30 O         -13.3349  -57.9643  -26.1553 O.2       1 MOL    -0.2753
     31 O          -8.0490  -57.7180  -23.3268 O.2       1 MOL    -0.2699
     32 F         -10.1627  -55.3536  -24.0669 F         1 MOL    -0.2047
     33 H          -1.4869  -51.9434  -23.0490 H         1 MOL     0.0625
     34 H          -2.4407  -49.7912  -23.6605 H         1 MOL     0.0618
     35 H          -4.2056  -49.7598  -25.2954 H         1 MOL     0.0618
     36 H          -5.0399  -51.7593  -26.3218 H         1 MOL     0.0624
     37 H          -5.1745  -55.0723  -27.4858 H         1 MOL     0.0377
     38 H          -5.3819  -53.3307  -27.4041 H         1 MOL     0.0377
     39 H          -6.1946  -56.4709  -25.8105 H         1 MOL     0.0629
     40 H          -9.5275  -59.5445  -23.8655 H         1 MOL     0.0480
     41 H          -8.4641  -60.1904  -25.1266 H         1 MOL     0.0480
     42 H         -11.0541  -60.7980  -24.9595 H         1 MOL     0.0480
     43 H         -10.1675  -60.7662  -26.4594 H         1 MOL     0.0480
     44 H         -11.3680  -57.3033  -27.1408 H         1 MOL     0.0480
     45 H         -10.7384  -58.6709  -28.0425 H         1 MOL     0.0480
     46 H          -9.2730  -56.7428  -26.7318 H         1 MOL     0.0480
     47 H          -8.6966  -58.2898  -27.3771 H         1 MOL     0.0480
     48 H         -14.0977  -58.9922  -24.5111 H         1 MOL     0.0394
     49 H         -12.7187  -60.8203  -22.8110 H         1 MOL     0.0273
     50 H         -11.4764  -60.8111  -23.6740 H         1 MOL     0.0273
     51 H         -14.3447  -61.7534  -24.5107 H         1 MOL     0.0273
     52 H         -13.3804  -61.9055  -25.6718 H         1 MOL     0.0273
     53 H          -9.4523  -53.0113  -25.0299 H         1 MOL     0.0646
     54 H          -7.4052  -52.5223  -26.2054 H         1 MOL     0.0621
     55 H          -2.2967  -56.2533  -24.4200 H         1 MOL     0.1921
@<TRIPOS>BOND
     1    1   18 1 
     2    1   21 1 
     3    1   17 am
     4    2   20 1 
     5    2   22 am
     6    2   19 1 
     7    3    4 ar
     8    3   12 ar
     9    4   55 1 
    10    4    5 ar
    11    5    6 ar
    12    5   29 2 
    13    6    7 ar
    14    6   11 ar
    15    7    8 ar
    16    7   33 1 
    17    8    9 ar
    18    8   34 1 
    19    9   10 ar
    20    9   35 1 
    21   10   11 ar
    22   10   36 1 
    23   11   12 ar
    24   12   13 1 
    25   13   14 1 
    26   13   37 1 
    27   13   38 1 
    28   14   15 ar
    29   14   28 ar
    30   15   16 ar
    31   15   39 1 
    32   16   17 1 
    33   16   26 ar
    34   17   31 2 
    35   18   19 1 
    36   18   40 1 
    37   18   41 1 
    38   19   42 1 
    39   19   43 1 
    40   20   21 1 
    41   20   44 1 
    42   20   45 1 
    43   21   46 1 
    44   21   47 1 
    45   22   23 1 
    46   22   30 2 
    47   23   24 1 
    48   23   25 1 
    49   23   48 1 
    50   24   25 1 
    51   24   49 1 
    52   24   50 1 
    53   25   51 1 
    54   25   52 1 
    55   26   27 ar
    56   26   32 1 
    57   27   28 ar
    58   27   53 1 
    59   28   54 1 
@<TRIPOS>SUBSTRUCTURE
1 MOL         1
@<TRIPOS>MOLECULE
query molecule
   55    59     1     0     0
SMALL
NO_CHARGE

@<TRIPOS>ATOM
      1 N         -67.1136  -39.1097  -16.6217 N.am      1 MOL    -0.2945
      2 N         -67.2271  -40.4284  -18.8569 N.am      1 MOL    -0.2983
      3 N         -62.7010  -40.3121  -11.1185 N.ar      1 MOL    -0.1750
      4 N         -62.4443  -41.5251  -10.6926 N.ar      1 MOL    -0.2425
      5 C         -63.3849  -42.3488  -10.2092 C.ar      1 MOL     0.2725
      6 C         -64.6903  -41.9054  -10.1534 C.ar      1 MOL     0.0496
      7 C         -65.7049  -42.7146   -9.6408 C.ar      1 MOL     0.0138
      8 C         -66.9982  -42.2427   -9.5750 C.ar      1 MOL     0.0008
      9 C         -67.2201  -40.9607  -10.0316 C.ar      1 MOL     0.0007
     10 C         -66.2229  -40.1467  -10.5423 C.ar      1 MOL     0.0103
     11 C         -64.9470  -40.6241  -10.6054 C.ar      1 MOL     0.0106
     12 C         -63.9701  -39.8002  -11.0966 C.ar      1 MOL     0.0736
     13 C         -64.1302  -38.4657  -11.6593 C.3       1 MOL     0.0925
     14 C         -64.0308  -38.5082  -13.1444 C.ar      1 MOL    -0.0406
     15 C         -65.2265  -38.2521  -13.8390 C.ar      1 MOL     0.0196
     16 C         -65.2380  -38.2790  -15.2130 C.ar      1 MOL     0.0723
     17 C         -66.4813  -38.0171  -15.9726 C.2       1 MOL     0.2495
     18 C         -68.3167  -38.8973  -17.3596 C.3       1 MOL     0.1268
     19 C         -68.5133  -39.9160  -18.4617 C.3       1 MOL     0.1265
     20 C         -66.4577  -41.1517  -17.8387 C.3       1 MOL     0.1265
     21 C         -66.5163  -40.4281  -16.5180 C.3       1 MOL     0.1268
     22 C         -66.7140  -40.2559  -20.1458 C.2       1 MOL     0.2187
     23 C         -67.3511  -39.5500  -21.2607 C.3       1 MOL     0.0752
     24 C         -67.4199  -38.0441  -21.1444 C.3       1 MOL     0.0134
     25 C         -68.6460  -38.8427  -21.0800 C.3       1 MOL     0.0134
     26 C         -64.1232  -38.5473  -15.9714 C.ar      1 MOL     0.1355
     27 C         -62.9534  -38.7979  -15.2905 C.ar      1 MOL     0.0392
     28 C         -62.9384  -38.7722  -13.8886 C.ar      1 MOL     0.0066
     29 O         -63.1586  -43.5154   -9.7973 O.2       1 MOL    -0.2658
     30 O         -65.5629  -40.7614  -20.4000 O.2       1 MOL    -0.2753
     31 O         -66.9841  -36.8730  -16.0568 O.2       1 MOL    -0.2699
     32 F         -64.1861  -38.5631  -17.3347 F         1 MOL    -0.2047
     33 H         -65.4871  -43.6679   -9.3110 H         1 MOL     0.0625
     34 H         -67.7648  -42.8220   -9.2008 H         1 MOL     0.0618
     35 H         -68.1809  -40.5877   -9.9900 H         1 MOL     0.0618
     36 H         -66.4413  -39.1929  -10.8709 H         1 MOL     0.0624
     37 H         -63.3640  -37.8263  -11.2733 H         1 MOL     0.0377
     38 H         -65.0959  -38.0910  -11.3900 H         1 MOL     0.0377
     39 H         -66.0929  -38.0448  -13.3185 H         1 MOL     0.0629
     40 H         -68.2823  -37.9212  -17.7971 H         1 MOL     0.0480
     41 H         -69.1359  -38.9964  -16.6775 H         1 MOL     0.0480
     42 H         -68.9886  -39.4514  -19.2998 H         1 MOL     0.0480
     43 H         -69.1306  -40.7164  -18.1096 H         1 MOL     0.0480
     44 H         -65.4379  -41.2257  -18.1537 H         1 MOL     0.0480
     45 H         -66.8779  -42.1281  -17.7156 H         1 MOL     0.0480
     46 H         -65.5201  -40.3216  -16.1422 H         1 MOL     0.0480
     47 H         -67.1304  -41.0073  -15.8618 H         1 MOL     0.0480
     48 H         -66.9985  -40.2745  -21.9644 H         1 MOL     0.0394
     49 H         -67.2242  -37.4317  -22.0000 H         1 MOL     0.0273
     50 H         -66.9586  -37.3114  -20.5156 H         1 MOL     0.0273
     51 H         -69.3473  -38.8041  -21.8873 H         1 MOL     0.0273
     52 H         -69.4488  -38.9221  -20.3783 H         1 MOL     0.0273
     53 H         -62.0868  -39.0046  -15.8127 H         1 MOL     0.0646
     54 H         -62.0480  -38.9640  -13.4026 H         1 MOL     0.0621
     55 H         -61.5144  -41.8472  -10.7302 H         1 MOL     0.1921
@<TRIPOS>BOND
     1    1   18 1 
     2    1   21 1 
     3    1   17 am
     4    2   20 1 
     5    2   22 am
     6    2   19 1 
     7    3    4 ar
     8    3   12 ar
     9    4   55 1 
    10    4    5 ar
    11    5    6 ar
    12    5   29 2 
    13    6    7 ar
    14    6   11 ar
    15    7    8 ar
    16    7   33 1 
    17    8    9 ar
    18    8   34 1 
    19    9   10 ar
    20    9   35 1 
    21   10   11 ar
    22   10   36 1 
    23   11   12 ar
    24   12   13 1 
    25   13   14 1 
    26   13   37 1 
    27   13   38 1 
    28   14   15 ar
    29   14   28 ar
    30   15   16 ar
    31   15   39 1 
    32   16   17 1 
    33   16   26 ar
    34   17   31 2 
    35   18   19 1 
    36   18   40 1 
    37   18   41 1 
    38   19   42 1 
    39   19   43 1 
    40   20   21 1 
    41   20   44 1 
    42   20   45 1 
    43   21   46 1 
    44   21   47 1 
    45   22   23 1 
    46   22   30 2 
    47   23   24 1 
    48   23   25 1 
    49   23   48 1 
    50   24   25 1 
    51   24   49 1 
    52   24   50 1 
    53   25   51 1 
    54   25   52 1 
    55   26   27 ar
    56   26   32 1 
    57   27   28 ar
    58   27   53 1 
    59   28   54 1 
@<TRIPOS>SUBSTRUCTURE
1 MOL         1
@<TRIPOS>MOLECULE
query molecule
   55    59     1     0     0
SMALL
NO_CHARGE

@<TRIPOS>ATOM
      1 N         -30.1601  -77.4627   14.1006 N.am      1 MOL    -0.2945
      2 N         -30.5903  -79.0871   16.0817 N.am      1 MOL    -0.2983
      3 N         -23.1670  -78.9322   13.4237 N.ar      1 MOL    -0.1750
      4 N         -22.4796  -79.2655   14.4890 N.ar      1 MOL    -0.2425
      5 C         -22.9633  -80.0541   15.4591 C.ar      1 MOL     0.2725
      6 C         -24.2478  -80.5430   15.3380 C.ar      1 MOL     0.0496
      7 C         -24.8074  -81.3516   16.3280 C.ar      1 MOL     0.0138
      8 C         -26.1001  -81.8111   16.1959 C.ar      1 MOL     0.0008
      9 C         -26.7853  -81.4327   15.0608 C.ar      1 MOL     0.0007
     10 C         -26.2427  -80.6307   14.0707 C.ar      1 MOL     0.0103
     11 C         -24.9619  -80.1834   14.2099 C.ar      1 MOL     0.0106
     12 C         -24.4468  -79.3772   13.2305 C.ar      1 MOL     0.0736
     13 C         -25.0755  -78.9883   11.9749 C.3       1 MOL     0.0925
     14 C         -25.9713  -77.8163   12.1787 C.ar      1 MOL    -0.0406
     15 C         -27.3302  -78.1198   12.3756 C.ar      1 MOL     0.0196
     16 C         -28.2372  -77.1043   12.5623 C.ar      1 MOL     0.0723
     17 C         -29.6747  -77.3913   12.7685 C.2       1 MOL     0.2495
     18 C         -31.5411  -77.7327   14.3394 C.3       1 MOL     0.1268
     19 C         -31.7842  -78.3886   15.6817 C.3       1 MOL     0.1265
     20 C         -29.3860  -78.2773   16.2957 C.3       1 MOL     0.1265
     21 C         -29.2322  -77.2571   15.1971 C.3       1 MOL     0.1268
     22 C         -30.5563  -80.4728   16.2628 C.2       1 MOL     0.2187
     23 C         -31.6640  -81.4135   16.0755 C.3       1 MOL     0.0752
     24 C         -33.0549  -80.8526   16.2675 C.3       1 MOL     0.0134
     25 C         -32.5185  -81.8283   17.2190 C.3       1 MOL     0.0134
     26 C         -27.8894  -75.7743   12.5694 C.ar      1 MOL     0.1355
     27 C         -26.5589  -75.4784   12.3765 C.ar      1 MOL     0.0392
     28 C         -25.6310  -76.5121   12.1848 C.ar      1 MOL     0.0066
     29 O         -22.3191  -80.3858   16.4871 O.2       1 MOL    -0.2658
     30 O         -29.4452  -80.9970   16.6316 O.2       1 MOL    -0.2753
     31 O         -30.4641  -77.5703   11.8127 O.2       1 MOL    -0.2699
     32 F         -28.8283  -74.8019   12.7582 F         1 MOL    -0.2047
     33 H         -24.2527  -81.6066   17.1600 H         1 MOL     0.0625
     34 H         -26.5350  -82.4101   16.9138 H         1 MOL     0.0618
     35 H         -27.7549  -81.7647   14.9430 H         1 MOL     0.0618
     36 H         -26.7986  -80.3751   13.2395 H         1 MOL     0.0624
     37 H         -25.6498  -79.8093   11.5993 H         1 MOL     0.0377
     38 H         -24.3118  -78.7195   11.2750 H         1 MOL     0.0377
     39 H         -27.6456  -79.1022   12.3796 H         1 MOL     0.0629
     40 H         -31.9009  -78.3834   13.5696 H         1 MOL     0.0480
     41 H         -32.0584  -76.7954   14.3389 H         1 MOL     0.0480
     42 H         -32.5961  -79.0804   15.6017 H         1 MOL     0.0480
     43 H         -32.0304  -77.6438   16.4098 H         1 MOL     0.0480
     44 H         -28.5281  -78.9164   16.3042 H         1 MOL     0.0480
     45 H         -29.4745  -77.7655   17.2312 H         1 MOL     0.0480
     46 H         -28.2347  -77.3153   14.8140 H         1 MOL     0.0480
     47 H         -29.4421  -76.2973   15.6188 H         1 MOL     0.0480
     48 H         -31.1239  -81.9517   15.3252 H         1 MOL     0.0394
     49 H         -33.8422  -81.1334   15.5993 H         1 MOL     0.0273
     50 H         -33.4711  -79.8697   16.3433 H         1 MOL     0.0273
     51 H         -32.9229  -82.8186   17.2480 H         1 MOL     0.0273
     52 H         -32.3904  -81.8430   18.2804 H         1 MOL     0.0273
     53 H         -26.2446  -74.4948   12.3733 H         1 MOL     0.0646
     54 H         -24.6395  -76.2627   12.0420 H         1 MOL     0.0621
     55 H         -21.5620  -78.9197   14.5807 H         1 MOL     0.1921
@<TRIPOS>BOND
     1    1   18 1 
     2    1   21 1 
     3    1   17 am
     4    2   20 1 
     5    2   22 am
     6    2   19 1 
     7    3    4 ar
     8    3   12 ar
     9    4   55 1 
    10    4    5 ar
    11    5    6 ar
    12    5   29 2 
    13    6    7 ar
    14    6   11 ar
    15    7    8 ar
    16    7   33 1 
    17    8    9 ar
    18    8   34 1 
    19    9   10 ar
    20    9   35 1 
    21   10   11 ar
    22   10   36 1 
    23   11   12 ar
    24   12   13 1 
    25   13   14 1 
    26   13   37 1 
    27   13   38 1 
    28   14   15 ar
    29   14   28 ar
    30   15   16 ar
    31   15   39 1 
    32   16   17 1 
    33   16   26 ar
    34   17   31 2 
    35   18   19 1 
    36   18   40 1 
    37   18   41 1 
    38   19   42 1 
    39   19   43 1 
    40   20   21 1 
    41   20   44 1 
    42   20   45 1 
    43   21   46 1 
    44   21   47 1 
    45   22   23 1 
    46   22   30 2 
    47   23   24 1 
    48   23   25 1 
    49   23   48 1 
    50   24   25 1 
    51   24   49 1 
    52   24   50 1 
    53   25   51 1 
    54   25   52 1 
    55   26   27 ar
    56   26   32 1 
    57   27   28 ar
    58   27   53 1 
    59   28   54 1 
@<TRIPOS>SUBSTRUCTURE
1 MOL         1
@<TRIPOS>MOLECULE
query molecule
   55    59     1     0     0
SMALL
NO_CHARGE

@<TRIPOS>ATOM
      1 N         -46.7958  -66.3982    7.2546 N.am      1 MOL    -0.2945
      2 N         -48.2050  -68.4956    6.6518 N.am      1 MOL    -0.2983
      3 N         -40.9421  -68.7698    5.8362 N.ar      1 MOL    -0.1750
      4 N         -40.2259  -68.5427    4.7619 N.ar      1 MOL    -0.2425
      5 C         -39.2693  -67.6057    4.7008 C.ar      1 MOL     0.2725
      6 C         -39.0201  -66.8378    5.8196 C.ar      1 MOL     0.0496
      7 C         -38.0494  -65.8354    5.8042 C.ar      1 MOL     0.0138
      8 C         -37.8324  -65.0663    6.9271 C.ar      1 MOL     0.0008
      9 C         -38.6109  -65.3392    8.0319 C.ar      1 MOL     0.0007
     10 C         -39.5778  -66.3303    8.0612 C.ar      1 MOL     0.0103
     11 C         -39.7828  -67.0874    6.9456 C.ar      1 MOL     0.0106
     12 C         -40.7545  -68.0511    6.9858 C.ar      1 MOL     0.0736
     13 C         -41.5694  -68.4473    8.1269 C.3       1 MOL     0.0925
     14 C         -42.4770  -67.3386    8.5322 C.ar      1 MOL    -0.0406
     15 C         -43.5397  -67.0727    7.6504 C.ar      1 MOL     0.0196
     16 C         -44.4256  -66.0607    7.9331 C.ar      1 MOL     0.0723
     17 C         -45.5521  -65.7543    7.0230 C.2       1 MOL     0.2495
     18 C         -47.9066  -66.1246    6.4012 C.3       1 MOL     0.1268
     19 C         -48.8945  -67.2699    6.3434 C.3       1 MOL     0.1265
     20 C         -47.6113  -68.6067    7.9887 C.3       1 MOL     0.1265
     21 C         -46.9088  -67.3272    8.3636 C.3       1 MOL     0.1268
     22 C         -48.0926  -69.5450    5.7351 C.2       1 MOL     0.2187
     23 C         -48.6153  -69.5794    4.3666 C.3       1 MOL     0.0752
     24 C         -48.3387  -70.8398    3.5786 C.3       1 MOL     0.0134
     25 C         -47.6989  -69.5790    3.1962 C.3       1 MOL     0.0134
     26 C         -44.3356  -65.2711    9.0549 C.ar      1 MOL     0.1355
     27 C         -43.2950  -65.5322    9.9173 C.ar      1 MOL     0.0392
     28 C         -42.3888  -66.5634    9.6314 C.ar      1 MOL     0.0066
     29 O         -38.5714  -67.3740    3.6805 O.2       1 MOL    -0.2658
     30 O         -47.4677  -70.5997    6.1124 O.2       1 MOL    -0.2753
     31 O         -45.4397  -64.9528    6.0671 O.2       1 MOL    -0.2699
     32 F         -45.2407  -64.2771    9.2907 F         1 MOL    -0.2047
     33 H         -37.4927  -65.6700    4.9512 H         1 MOL     0.0625
     34 H         -37.1206  -64.3203    6.9400 H         1 MOL     0.0618
     35 H         -38.4655  -64.7742    8.8826 H         1 MOL     0.0618
     36 H         -40.1350  -66.4944    8.9144 H         1 MOL     0.0624
     37 H         -40.9293  -68.6962    8.9474 H         1 MOL     0.0377
     38 H         -42.1630  -69.2936    7.8500 H         1 MOL     0.0377
     39 H         -43.6539  -67.6357    6.7933 H         1 MOL     0.0629
     40 H         -47.5412  -65.9368    5.4130 H         1 MOL     0.0480
     41 H         -48.4199  -65.2745    6.8013 H         1 MOL     0.0480
     42 H         -49.3163  -67.3313    5.3623 H         1 MOL     0.0480
     43 H         -49.6802  -67.1070    7.0517 H         1 MOL     0.0480
     44 H         -46.9050  -69.4102    7.9953 H         1 MOL     0.0480
     45 H         -48.3896  -68.7933    8.6989 H         1 MOL     0.0480
     46 H         -45.9245  -67.5663    8.7087 H         1 MOL     0.0480
     47 H         -47.4926  -66.8509    9.1222 H         1 MOL     0.0480
     48 H         -49.4627  -68.9865    4.6399 H         1 MOL     0.0394
     49 H         -49.1023  -71.2621    2.9591 H         1 MOL     0.0273
     50 H         -47.9921  -71.8229    3.8201 H         1 MOL     0.0273
     51 H         -47.9926  -69.0880    2.2919 H         1 MOL     0.0273
     52 H         -46.6863  -69.2732    3.0405 H         1 MOL     0.0273
     53 H         -43.1822  -64.9684   10.7750 H         1 MOL     0.0646
     54 H         -41.6172  -66.7380   10.2946 H         1 MOL     0.0621
     55 H         -40.3991  -69.0879    3.9604 H         1 MOL     0.1921
@<TRIPOS>BOND
     1    1   18 1 
     2    1   21 1 
     3    1   17 am
     4    2   20 1 
     5    2   22 am
     6    2   19 1 
     7    3    4 ar
     8    3   12 ar
     9    4   55 1 
    10    4    5 ar
    11    5    6 ar
    12    5   29 2 
    13    6    7 ar
    14    6   11 ar
    15    7    8 ar
    16    7   33 1 
    17    8    9 ar
    18    8   34 1 
    19    9   10 ar
    20    9   35 1 
    21   10   11 ar
    22   10   36 1 
    23   11   12 ar
    24   12   13 1 
    25   13   14 1 
    26   13   37 1 
    27   13   38 1 
    28   14   15 ar
    29   14   28 ar
    30   15   16 ar
    31   15   39 1 
    32   16   17 1 
    33   16   26 ar
    34   17   31 2 
    35   18   19 1 
    36   18   40 1 
    37   18   41 1 
    38   19   42 1 
    39   19   43 1 
    40   20   21 1 
    41   20   44 1 
    42   20   45 1 
    43   21   46 1 
    44   21   47 1 
    45   22   23 1 
    46   22   30 2 
    47   23   24 1 
    48   23   25 1 
    49   23   48 1 
    50   24   25 1 
    51   24   49 1 
    52   24   50 1 
    53   25   51 1 
    54   25   52 1 
    55   26   27 ar
    56   26   32 1 
    57   27   28 ar
    58   27   53 1 
    59   28   54 1 
@<TRIPOS>SUBSTRUCTURE
1 MOL         1
@<TRIPOS>MOLECULE
query molecule
   55    59     1     0     0
SMALL
NO_CHARGE

@<TRIPOS>ATOM
      1 N          -8.3757  -61.8508  -12.2434 N.am      1 MOL    -0.2945
      2 N         -10.5125  -62.2035  -13.6781 N.am      1 MOL    -0.2983
      3 N          -2.0419  -60.9559  -12.0766 N.ar      1 MOL    -0.1750
      4 N          -1.0642  -60.6359  -11.2639 N.ar      1 MOL    -0.2425
      5 C          -0.0075  -61.4289  -11.0371 C.ar      1 MOL     0.2725
      6 C           0.0619  -62.6440  -11.6870 C.ar      1 MOL     0.0496
      7 C           1.1295  -63.5164  -11.4719 C.ar      1 MOL     0.0138
      8 C           1.1671  -64.7344  -12.1158 C.ar      1 MOL     0.0008
      9 C           0.1161  -65.0290  -12.9583 C.ar      1 MOL     0.0007
     10 C          -0.9497  -64.1732  -13.1809 C.ar      1 MOL     0.0103
     11 C          -0.9760  -62.9693  -12.5408 C.ar      1 MOL     0.0106
     12 C          -2.0455  -62.1427  -12.7584 C.ar      1 MOL     0.0736
     13 C          -3.1563  -62.3469  -13.6789 C.3       1 MOL     0.0925
     14 C          -4.1512  -61.2463  -13.5516 C.ar      1 MOL    -0.0406
     15 C          -5.2805  -61.5387  -12.7663 C.ar      1 MOL     0.0196
     16 C          -6.2601  -60.5896  -12.5977 C.ar      1 MOL     0.0723
     17 C          -7.4621  -60.8683  -11.7799 C.2       1 MOL     0.2495
     18 C          -9.5437  -62.1506  -11.4798 C.3       1 MOL     0.1268
     19 C         -10.6767  -62.6832  -12.3305 C.3       1 MOL     0.1265
     20 C          -9.3033  -62.6273  -14.3924 C.3       1 MOL     0.1265
     21 C          -8.0973  -62.5333  -13.4934 C.3       1 MOL     0.1268
     22 C         -11.4484  -61.3703  -14.2977 C.2       1 MOL     0.2187
     23 C         -12.6894  -60.8527  -13.7153 C.3       1 MOL     0.0752
     24 C         -13.8589  -60.7035  -14.6620 C.3       1 MOL     0.0134
     25 C         -13.2153  -59.5156  -14.0964 C.3       1 MOL     0.0134
     26 C          -6.2030  -59.3380  -13.1638 C.ar      1 MOL     0.1355
     27 C          -5.0971  -59.0530  -13.9324 C.ar      1 MOL     0.0392
     28 C          -4.0962  -60.0194  -14.1072 C.ar      1 MOL     0.0066
     29 O           0.9402  -61.1390  -10.2628 O.2       1 MOL    -0.2658
     30 O         -11.2140  -61.0078  -15.5056 O.2       1 MOL    -0.2753
     31 O          -7.6919  -60.2690  -10.7044 O.2       1 MOL    -0.2699
     32 F          -7.2026  -58.4299  -12.9669 F         1 MOL    -0.2047
     33 H           1.8924  -63.2492  -10.8304 H         1 MOL     0.0625
     34 H           1.9456  -65.3955  -11.9733 H         1 MOL     0.0618
     35 H           0.1241  -65.9363  -13.4492 H         1 MOL     0.0618
     36 H          -1.7129  -64.4416  -13.8218 H         1 MOL     0.0624
     37 H          -3.6319  -63.2791  -13.4558 H         1 MOL     0.0377
     38 H          -2.7782  -62.3544  -14.6801 H         1 MOL     0.0377
     39 H          -5.3736  -62.4633  -12.3180 H         1 MOL     0.0629
     40 H          -9.8724  -61.2566  -10.9917 H         1 MOL     0.0480
     41 H          -9.2823  -62.9129  -10.7751 H         1 MOL     0.0480
     42 H         -11.6115  -62.3418  -11.9384 H         1 MOL     0.0480
     43 H         -10.6643  -63.7534  -12.3219 H         1 MOL     0.0480
     44 H          -9.1569  -61.9960  -15.2436 H         1 MOL     0.0480
     45 H          -9.4230  -63.6442  -14.7030 H         1 MOL     0.0480
     46 H          -7.3276  -61.9979  -14.0092 H         1 MOL     0.0480
     47 H          -7.7972  -63.5311  -13.2537 H         1 MOL     0.0480
     48 H         -12.4853  -61.3249  -12.7774 H         1 MOL     0.0394
     49 H         -14.8427  -60.9813  -14.3454 H         1 MOL     0.0273
     50 H         -14.0811  -61.0468  -15.6508 H         1 MOL     0.0273
     51 H         -13.7362  -58.9238  -13.3729 H         1 MOL     0.0273
     52 H         -12.7796  -58.6328  -14.5138 H         1 MOL     0.0273
     53 H          -5.0049  -58.1270  -14.3799 H         1 MOL     0.0646
     54 H          -3.2776  -59.7801  -14.6887 H         1 MOL     0.0621
     55 H          -1.1081  -59.7697  -10.7975 H         1 MOL     0.1921
@<TRIPOS>BOND
     1    1   18 1 
     2    1   21 1 
     3    1   17 am
     4    2   20 1 
     5    2   22 am
     6    2   19 1 
     7    3    4 ar
     8    3   12 ar
     9    4   55 1 
    10    4    5 ar
    11    5    6 ar
    12    5   29 2 
    13    6    7 ar
    14    6   11 ar
    15    7    8 ar
    16    7   33 1 
    17    8    9 ar
    18    8   34 1 
    19    9   10 ar
    20    9   35 1 
    21   10   11 ar
    22   10   36 1 
    23   11   12 ar
    24   12   13 1 
    25   13   14 1 
    26   13   37 1 
    27   13   38 1 
    28   14   15 ar
    29   14   28 ar
    30   15   16 ar
    31   15   39 1 
    32   16   17 1 
    33   16   26 ar
    34   17   31 2 
    35   18   19 1 
    36   18   40 1 
    37   18   41 1 
    38   19   42 1 
    39   19   43 1 
    40   20   21 1 
    41   20   44 1 
    42   20   45 1 
    43   21   46 1 
    44   21   47 1 
    45   22   23 1 
    46   22   30 2 
    47   23   24 1 
    48   23   25 1 
    49   23   48 1 
    50   24   25 1 
    51   24   49 1 
    52   24   50 1 
    53   25   51 1 
    54   25   52 1 
    55   26   27 ar
    56   26   32 1 
    57   27   28 ar
    58   27   53 1 
    59   28   54 1 
@<TRIPOS>SUBSTRUCTURE
1 MOL         1
@<TRIPOS>MOLECULE
query molecule
   55    59     1     0     0
SMALL
NO_CHARGE

@<TRIPOS>ATOM
      1 N         -10.6261  -57.6050  -26.3044 N.am      1 MOL    -0.2945
      2 N         -11.1516  -57.4356  -28.8428 N.am      1 MOL    -0.2983
      3 N          -6.2562  -52.9924  -23.4345 N.ar      1 MOL    -0.1750
      4 N          -5.3416  -52.4773  -24.2198 N.ar      1 MOL    -0.2425
      5 C          -4.5704  -53.2138  -25.0319 C.ar      1 MOL     0.2725
      6 C          -4.7412  -54.5829  -25.0477 C.ar      1 MOL     0.0496
      7 C          -3.9516  -55.3983  -25.8593 C.ar      1 MOL     0.0138
      8 C          -4.1254  -56.7655  -25.8428 C.ar      1 MOL     0.0008
      9 C          -5.0967  -57.2622  -24.9995 C.ar      1 MOL     0.0007
     10 C          -5.8871  -56.4649  -24.1886 C.ar      1 MOL     0.0103
     11 C          -5.7088  -55.1131  -24.2144 C.ar      1 MOL     0.0106
     12 C          -6.4864  -54.3410  -23.3936 C.ar      1 MOL     0.0736
     13 C          -7.5747  -54.7772  -22.5285 C.3       1 MOL     0.0925
     14 C          -8.8773  -54.6991  -23.2457 C.ar      1 MOL    -0.0406
     15 C          -9.3555  -55.9147  -23.7667 C.ar      1 MOL     0.0196
     16 C         -10.5451  -55.9426  -24.4544 C.ar      1 MOL     0.0723
     17 C         -11.0732  -57.2056  -25.0176 C.2       1 MOL     0.2495
     18 C         -11.1090  -58.8191  -26.8786 C.3       1 MOL     0.1268
     19 C         -11.0804  -58.8011  -28.3918 C.3       1 MOL     0.1265
     20 C         -10.0483  -56.5493  -28.4568 C.3       1 MOL     0.1265
     21 C          -9.6798  -56.7617  -27.0110 C.3       1 MOL     0.1268
     22 C         -12.2140  -56.9537  -29.6130 C.2       1 MOL     0.2187
     23 C         -13.3880  -57.7059  -30.0637 C.3       1 MOL     0.0752
     24 C         -14.1314  -58.4819  -29.0001 C.3       1 MOL     0.0134
     25 C         -13.3973  -59.1923  -30.0497 C.3       1 MOL     0.0134
     26 C         -11.3181  -54.8263  -24.6700 C.ar      1 MOL     0.1355
     27 C         -10.8489  -53.6371  -24.1596 C.ar      1 MOL     0.0392
     28 C          -9.6350  -53.6048  -23.4583 C.ar      1 MOL     0.0066
     29 O          -3.6893  -52.7382  -25.7929 O.2       1 MOL    -0.2658
     30 O         -12.1767  -55.7233  -29.9736 O.2       1 MOL    -0.2753
     31 O         -11.8925  -57.9223  -24.3981 O.2       1 MOL    -0.2699
     32 F         -12.4927  -54.9058  -25.3604 F         1 MOL    -0.2047
     33 H          -3.2369  -54.9774  -26.4733 H         1 MOL     0.0625
     34 H          -3.5545  -57.3884  -26.4338 H         1 MOL     0.0618
     35 H          -5.2422  -58.2830  -24.9710 H         1 MOL     0.0618
     36 H          -6.6009  -56.8868  -23.5739 H         1 MOL     0.0624
     37 H          -7.6108  -54.1483  -21.6635 H         1 MOL     0.0377
     38 H          -7.4010  -55.7932  -22.2408 H         1 MOL     0.0377
     39 H          -8.8146  -56.7831  -23.6334 H         1 MOL     0.0629
     40 H         -12.1181  -58.9725  -26.5565 H         1 MOL     0.0480
     41 H         -10.4651  -59.6095  -26.5521 H         1 MOL     0.0480
     42 H         -11.9154  -59.3501  -28.7734 H         1 MOL     0.0480
     43 H         -10.1758  -59.2528  -28.7426 H         1 MOL     0.0480
     44 H         -10.3476  -55.5318  -28.5972 H         1 MOL     0.0480
     45 H          -9.1966  -56.7710  -29.0655 H         1 MOL     0.0480
     46 H          -9.6433  -55.8094  -26.5242 H         1 MOL     0.0480
     47 H          -8.7323  -57.2566  -26.9906 H         1 MOL     0.0480
     48 H         -13.6112  -56.9740  -30.8113 H         1 MOL     0.0394
     49 H         -15.2015  -58.4920  -28.9946 H         1 MOL     0.0273
     50 H         -14.1267  -58.4951  -27.9302 H         1 MOL     0.0273
     51 H         -13.9354  -59.7272  -30.8042 H         1 MOL     0.0273
     52 H         -12.6370  -59.9440  -30.0504 H         1 MOL     0.0273
     53 H         -11.3915  -52.7688  -24.2932 H         1 MOL     0.0646
     54 H          -9.3059  -52.6999  -23.0863 H         1 MOL     0.0621
     55 H          -5.2154  -51.5006  -24.2131 H         1 MOL     0.1921
@<TRIPOS>BOND
     1    1   18 1 
     2    1   21 1 
     3    1   17 am
     4    2   20 1 
     5    2   22 am
     6    2   19 1 
     7    3    4 ar
     8    3   12 ar
     9    4   55 1 
    10    4    5 ar
    11    5    6 ar
    12    5   29 2 
    13    6    7 ar
    14    6   11 ar
    15    7    8 ar
    16    7   33 1 
    17    8    9 ar
    18    8   34 1 
    19    9   10 ar
    20    9   35 1 
    21   10   11 ar
    22   10   36 1 
    23   11   12 ar
    24   12   13 1 
    25   13   14 1 
    26   13   37 1 
    27   13   38 1 
    28   14   15 ar
    29   14   28 ar
    30   15   16 ar
    31   15   39 1 
    32   16   17 1 
    33   16   26 ar
    34   17   31 2 
    35   18   19 1 
    36   18   40 1 
    37   18   41 1 
    38   19   42 1 
    39   19   43 1 
    40   20   21 1 
    41   20   44 1 
    42   20   45 1 
    43   21   46 1 
    44   21   47 1 
    45   22   23 1 
    46   22   30 2 
    47   23   24 1 
    48   23   25 1 
    49   23   48 1 
    50   24   25 1 
    51   24   49 1 
    52   24   50 1 
    53   25   51 1 
    54   25   52 1 
    55   26   27 ar
    56   26   32 1 
    57   27   28 ar
    58   27   53 1 
    59   28   54 1 
@<TRIPOS>SUBSTRUCTURE
1 MOL         1
