@<TRIPOS>MOLECULE
query molecule
   55    59     1     0     0
SMALL
NO_CHARGE

@<TRIPOS>ATOM
      1 N         -14.8760  -65.3796   -1.2448 N.am      1 MOL    -0.2945
      2 N         -13.6195  -62.8109   -1.0341 N.am      1 MOL    -0.2983
      3 N         -11.5175  -65.7558   -4.6333 N.ar      1 MOL    -0.1750
      4 N         -11.7040  -64.7916   -5.5251 N.ar      1 MOL    -0.2425
      5 C         -11.4712  -65.0288   -6.8928 C.ar      1 MOL     0.2725
      6 C         -10.9554  -66.2838   -7.2816 C.ar      1 MOL     0.0496
      7 C         -10.5903  -66.5366   -8.6073 C.ar      1 MOL     0.0138
      8 C         -10.0600  -67.7756   -8.9692 C.ar      1 MOL     0.0008
      9 C          -9.9005  -68.7765   -8.0089 C.ar      1 MOL     0.0007
     10 C         -10.2684  -68.5393   -6.6824 C.ar      1 MOL     0.0103
     11 C         -10.7907  -67.2974   -6.2905 C.ar      1 MOL     0.0106
     12 C         -11.1539  -67.0260   -4.9627 C.ar      1 MOL     0.0736
     13 C         -11.1581  -68.0680   -3.8903 C.3       1 MOL     0.0925
     14 C         -12.5629  -68.3013   -3.4530 C.ar      1 MOL    -0.0406
     15 C         -13.1983  -67.4273   -2.5608 C.ar      1 MOL     0.0196
     16 C         -14.5342  -67.6296   -2.1809 C.ar      1 MOL     0.0723
     17 C         -15.2210  -66.6917   -1.2574 C.2       1 MOL     0.2495
     18 C         -14.9578  -64.6367    0.0073 C.3       1 MOL     0.1268
     19 C         -13.8105  -63.6053    0.1725 C.3       1 MOL     0.1265
     20 C         -13.4848  -63.5660   -2.2818 C.3       1 MOL     0.1265
     21 C         -14.6218  -64.6161   -2.4582 C.3       1 MOL     0.1268
     22 C         -13.3221  -61.4781   -1.0271 C.2       1 MOL     0.2187
     23 C         -13.3086  -60.7566    0.2772 C.3       1 MOL     0.0752
     24 C         -12.2705  -59.6870    0.3355 C.3       1 MOL     0.0134
     25 C         -12.0341  -61.0013    1.0188 C.3       1 MOL     0.0134
     26 C         -15.2068  -68.7501   -2.6816 C.ar      1 MOL     0.1355
     27 C         -14.5837  -69.6283   -3.5697 C.ar      1 MOL     0.0392
     28 C         -13.2622  -69.4036   -3.9573 C.ar      1 MOL     0.0066
     29 O         -11.7478  -64.1132   -7.6923 O.2       1 MOL    -0.2658
     30 O         -13.0834  -60.8401   -2.0678 O.2       1 MOL    -0.2753
     31 O         -16.0231  -67.1852   -0.4519 O.2       1 MOL    -0.2699
     32 F         -16.4845  -69.0080   -2.3173 F         1 MOL    -0.2047
     33 H         -10.7123  -65.7676   -9.3565 H         1 MOL     0.0625
     34 H          -9.7730  -67.9626   -9.9940 H         1 MOL     0.0618
     35 H          -9.4933  -69.7359   -8.2949 H         1 MOL     0.0618
     36 H         -10.1430  -69.3253   -5.9502 H         1 MOL     0.0624
     37 H         -10.5636  -67.7139   -3.0341 H         1 MOL     0.0377
     38 H         -10.7493  -69.0078   -4.2992 H         1 MOL     0.0377
     39 H         -12.6507  -66.5817   -2.1678 H         1 MOL     0.0629
     40 H         -14.9612  -65.3577    0.8577 H         1 MOL     0.0480
     41 H         -15.9338  -64.0945    0.0194 H         1 MOL     0.0480
     42 H         -12.8568  -64.1485    0.3811 H         1 MOL     0.0480
     43 H         -14.0115  -62.9255    1.0322 H         1 MOL     0.0480
     44 H         -12.5025  -64.0960   -2.2580 H         1 MOL     0.0480
     45 H         -13.4717  -62.8555   -3.1396 H         1 MOL     0.0480
     46 H         -14.4016  -65.3174   -3.2947 H         1 MOL     0.0480
     47 H         -15.5674  -64.0735   -2.7121 H         1 MOL     0.0480
     48 H         -14.2358  -60.6694    0.7794 H         1 MOL     0.0394
     49 H         -12.4598  -58.8389    0.9815 H         1 MOL     0.0273
     50 H         -11.7093  -59.5037   -0.5737 H         1 MOL     0.0273
     51 H         -12.0757  -60.9992    2.1002 H         1 MOL     0.0273
     52 H         -11.3195  -61.6682    0.5492 H         1 MOL     0.0273
     53 H         -15.1233  -70.4792   -3.9588 H         1 MOL     0.0646
     54 H         -12.7813  -70.0794   -4.6498 H         1 MOL     0.0621
     55 H         -11.9986  -63.8684   -5.2588 H         1 MOL     0.1921
@<TRIPOS>BOND
     1    1   18 1 
     2    1   21 1 
     3    1   17 am
     4    2   20 1 
     5    2   22 am
     6    2   19 1 
     7    3    4 ar
     8    3   12 ar
     9    4   55 1 
    10    4    5 ar
    11    5    6 ar
    12    5   29 2 
    13    6    7 ar
    14    6   11 ar
    15    7    8 ar
    16    7   33 1 
    17    8    9 ar
    18    8   34 1 
    19    9   10 ar
    20    9   35 1 
    21   10   11 ar
    22   10   36 1 
    23   11   12 ar
    24   12   13 1 
    25   13   14 1 
    26   13   37 1 
    27   13   38 1 
    28   14   15 ar
    29   14   28 ar
    30   15   16 ar
    31   15   39 1 
    32   16   17 1 
    33   16   26 ar
    34   17   31 2 
    35   18   19 1 
    36   18   40 1 
    37   18   41 1 
    38   19   42 1 
    39   19   43 1 
    40   20   21 1 
    41   20   44 1 
    42   20   45 1 
    43   21   46 1 
    44   21   47 1 
    45   22   23 1 
    46   22   30 2 
    47   23   24 1 
    48   23   25 1 
    49   23   48 1 
    50   24   25 1 
    51   24   49 1 
    52   24   50 1 
    53   25   51 1 
    54   25   52 1 
    55   26   27 ar
    56   26   32 1 
    57   27   28 ar
    58   27   53 1 
    59   28   54 1 
@<TRIPOS>SUBSTRUCTURE
1 MOL         1
@<TRIPOS>MOLECULE
query molecule
   55    59     1     0     0
SMALL
NO_CHARGE

@<TRIPOS>ATOM
      1 N         -12.9769  -64.5541   -6.4062 N.am      1 MOL    -0.2945
      2 N         -13.7796  -63.0679   -4.1190 N.am      1 MOL    -0.2983
      3 N         -15.3016  -61.3388   -9.7538 N.ar      1 MOL    -0.1750
      4 N         -15.7069  -60.3431   -8.9758 N.ar      1 MOL    -0.2425
      5 C         -15.1117  -59.0697   -9.0661 C.ar      1 MOL     0.2725
      6 C         -14.0580  -58.8838   -9.9851 C.ar      1 MOL     0.0496
      7 C         -13.4140  -57.6505  -10.1198 C.ar      1 MOL     0.0138
      8 C         -12.3732  -57.4951  -11.0351 C.ar      1 MOL     0.0008
      9 C         -11.9664  -58.5693  -11.8269 C.ar      1 MOL     0.0007
     10 C         -12.6045  -59.8034  -11.7082 C.ar      1 MOL     0.0103
     11 C         -13.6517  -59.9861  -10.7938 C.ar      1 MOL     0.0106
     12 C         -14.2997  -61.2211  -10.6667 C.ar      1 MOL     0.0736
     13 C         -13.9367  -62.4080  -11.4966 C.3       1 MOL     0.0925
     14 C         -13.0760  -63.3635  -10.7551 C.ar      1 MOL    -0.0406
     15 C         -13.4545  -63.8433   -9.4986 C.ar      1 MOL     0.0196
     16 C         -12.6765  -64.7789   -8.8202 C.ar      1 MOL     0.0723
     17 C         -13.1241  -65.3074   -7.5165 C.2       1 MOL     0.2495
     18 C         -12.9463  -65.2057   -5.1000 C.3       1 MOL     0.1268
     19 C         -13.9276  -64.5187   -4.1039 C.3       1 MOL     0.1265
     20 C         -13.8046  -62.4240   -5.4335 C.3       1 MOL     0.1265
     21 C         -12.8086  -63.1126   -6.4162 C.3       1 MOL     0.1268
     22 C         -13.8286  -62.2891   -2.9993 C.2       1 MOL     0.2187
     23 C         -14.1026  -62.9604   -1.7009 C.3       1 MOL     0.0752
     24 C         -13.5925  -62.2275   -0.5124 C.3       1 MOL     0.0134
     25 C         -12.8387  -63.4061   -1.0529 C.3       1 MOL     0.0134
     26 C         -11.4869  -65.2216   -9.3944 C.ar      1 MOL     0.1355
     27 C         -11.0803  -64.7391  -10.6410 C.ar      1 MOL     0.0392
     28 C         -11.8771  -63.8116  -11.3243 C.ar      1 MOL     0.0066
     29 O         -15.5681  -58.1666   -8.3401 O.2       1 MOL    -0.2658
     30 O         -13.6841  -61.0555   -3.0363 O.2       1 MOL    -0.2753
     31 O         -13.5397  -66.4703   -7.5079 O.2       1 MOL    -0.2699
     32 F         -10.7125  -66.1225   -8.7431 F         1 MOL    -0.2047
     33 H         -13.7220  -56.8128   -9.5108 H         1 MOL     0.0625
     34 H         -11.8772  -56.5402  -11.1323 H         1 MOL     0.0618
     35 H         -11.1589  -58.4469  -12.5339 H         1 MOL     0.0618
     36 H         -12.2895  -60.6309  -12.3294 H         1 MOL     0.0624
     37 H         -13.3980  -62.0628  -12.3963 H         1 MOL     0.0377
     38 H         -14.8697  -62.9296  -11.7827 H         1 MOL     0.0377
     39 H         -14.3686  -63.4841   -9.0479 H         1 MOL     0.0629
     40 H         -11.9038  -65.1266   -4.7031 H         1 MOL     0.0480
     41 H         -13.1795  -66.2878   -5.2213 H         1 MOL     0.0480
     42 H         -13.7614  -64.8954   -3.0685 H         1 MOL     0.0480
     43 H         -14.9758  -64.7662   -4.3965 H         1 MOL     0.0480
     44 H         -13.5553  -61.3449   -5.3141 H         1 MOL     0.0480
     45 H         -14.8391  -62.5007   -5.8428 H         1 MOL     0.0480
     46 H         -11.7624  -62.8936   -6.0842 H         1 MOL     0.0480
     47 H         -12.9212  -62.7321   -7.4547 H         1 MOL     0.0480
     48 H         -14.9753  -63.5616   -1.6653 H         1 MOL     0.0394
     49 H         -14.1206  -62.3795    0.4217 H         1 MOL     0.0273
     50 H         -13.1805  -61.2434   -0.6973 H         1 MOL     0.0273
     51 H         -12.8742  -64.3110   -0.4588 H         1 MOL     0.0273
     52 H         -11.9179  -63.1892   -1.5806 H         1 MOL     0.0273
     53 H         -10.1550  -65.0827  -11.0790 H         1 MOL     0.0646
     54 H         -11.5700  -63.4441  -12.2930 H         1 MOL     0.0621
     55 H         -16.4397  -60.4520   -8.3014 H         1 MOL     0.1921
@<TRIPOS>BOND
     1    1   18 1 
     2    1   21 1 
     3    1   17 am
     4    2   20 1 
     5    2   22 am
     6    2   19 1 
     7    3    4 ar
     8    3   12 ar
     9    4   55 1 
    10    4    5 ar
    11    5    6 ar
    12    5   29 2 
    13    6    7 ar
    14    6   11 ar
    15    7    8 ar
    16    7   33 1 
    17    8    9 ar
    18    8   34 1 
    19    9   10 ar
    20    9   35 1 
    21   10   11 ar
    22   10   36 1 
    23   11   12 ar
    24   12   13 1 
    25   13   14 1 
    26   13   37 1 
    27   13   38 1 
    28   14   15 ar
    29   14   28 ar
    30   15   16 ar
    31   15   39 1 
    32   16   17 1 
    33   16   26 ar
    34   17   31 2 
    35   18   19 1 
    36   18   40 1 
    37   18   41 1 
    38   19   42 1 
    39   19   43 1 
    40   20   21 1 
    41   20   44 1 
    42   20   45 1 
    43   21   46 1 
    44   21   47 1 
    45   22   23 1 
    46   22   30 2 
    47   23   24 1 
    48   23   25 1 
    49   23   48 1 
    50   24   25 1 
    51   24   49 1 
    52   24   50 1 
    53   25   51 1 
    54   25   52 1 
    55   26   27 ar
    56   26   32 1 
    57   27   28 ar
    58   27   53 1 
    59   28   54 1 
@<TRIPOS>SUBSTRUCTURE
1 MOL         1
@<TRIPOS>MOLECULE
query molecule
   55    59     1     0     0
SMALL
NO_CHARGE

@<TRIPOS>ATOM
      1 N         -37.2816  -51.5227  -19.0509 N.am      1 MOL    -0.2945
      2 N         -35.1809  -49.5630  -19.0530 N.am      1 MOL    -0.2983
      3 N         -39.7058  -52.8901  -12.2484 N.ar      1 MOL    -0.1750
      4 N         -39.3719  -52.1789  -11.1762 N.ar      1 MOL    -0.2425
      5 C         -38.0702  -51.6546  -11.0281 C.ar      1 MOL     0.2725
      6 C         -37.1288  -51.9282  -12.0408 C.ar      1 MOL     0.0496
      7 C         -35.8311  -51.4271  -11.9533 C.ar      1 MOL     0.0138
      8 C         -34.9191  -51.6841  -12.9724 C.ar      1 MOL     0.0008
      9 C         -35.2846  -52.4507  -14.0756 C.ar      1 MOL     0.0007
     10 C         -36.5757  -52.9600  -14.1655 C.ar      1 MOL     0.0103
     11 C         -37.5243  -52.7027  -13.1648 C.ar      1 MOL     0.0106
     12 C         -38.8430  -53.1749  -13.2641 C.ar      1 MOL     0.0736
     13 C         -39.3157  -53.9617  -14.4485 C.3       1 MOL     0.0925
     14 C         -39.7368  -53.0598  -15.5609 C.ar      1 MOL    -0.0406
     15 C         -38.9272  -52.8984  -16.7007 C.ar      1 MOL     0.0196
     16 C         -39.3237  -52.0672  -17.7561 C.ar      1 MOL     0.0723
     17 C         -38.5635  -51.9256  -19.0150 C.2       1 MOL     0.2495
     18 C         -36.7406  -51.0385  -20.3266 C.3       1 MOL     0.1268
     19 C         -36.1150  -49.6180  -20.1634 C.3       1 MOL     0.1265
     20 C         -35.5802  -50.2226  -17.8094 C.3       1 MOL     0.1265
     21 C         -36.3224  -51.5723  -17.9763 C.3       1 MOL     0.1268
     22 C         -34.1304  -48.6888  -18.9655 C.2       1 MOL     0.2187
     23 C         -33.7801  -47.8407  -20.1247 C.3       1 MOL     0.0752
     24 C         -33.3440  -46.4890  -19.6473 C.3       1 MOL     0.0134
     25 C         -34.6465  -46.6611  -20.3674 C.3       1 MOL     0.0134
     26 C         -40.5386  -51.3690  -17.6318 C.ar      1 MOL     0.1355
     27 C         -41.3529  -51.5243  -16.5098 C.ar      1 MOL     0.0392
     28 C         -40.9558  -52.3747  -15.4766 C.ar      1 MOL     0.0066
     29 O         -37.8323  -50.9448  -10.0377 O.2       1 MOL    -0.2658
     30 O         -33.4001  -48.6556  -17.9607 O.2       1 MOL    -0.2753
     31 O         -39.2274  -52.1173  -20.0456 O.2       1 MOL    -0.2699
     32 F         -40.9451  -50.5300  -18.6173 F         1 MOL    -0.2047
     33 H         -35.5400  -50.8364  -11.0985 H         1 MOL     0.0625
     34 H         -33.9158  -51.2882  -12.9068 H         1 MOL     0.0618
     35 H         -34.5722  -52.6491  -14.8623 H         1 MOL     0.0618
     36 H         -36.8568  -53.5547  -15.0245 H         1 MOL     0.0624
     37 H         -40.1777  -54.5838  -14.1471 H         1 MOL     0.0377
     38 H         -38.4868  -54.6002  -14.8044 H         1 MOL     0.0377
     39 H         -37.9893  -53.4342  -16.7636 H         1 MOL     0.0629
     40 H         -37.5556  -51.0338  -21.0860 H         1 MOL     0.0480
     41 H         -35.9583  -51.7592  -20.6673 H         1 MOL     0.0480
     42 H         -36.9450  -48.9003  -19.9483 H         1 MOL     0.0480
     43 H         -35.6077  -49.2766  -21.0925 H         1 MOL     0.0480
     44 H         -36.2852  -49.5245  -17.2858 H         1 MOL     0.0480
     45 H         -34.6830  -50.3301  -17.1558 H         1 MOL     0.0480
     46 H         -36.8317  -51.8565  -17.0286 H         1 MOL     0.0480
     47 H         -35.5748  -52.3669  -18.2172 H         1 MOL     0.0480
     48 H         -33.2412  -48.3296  -20.8991 H         1 MOL     0.0394
     49 H         -32.5333  -46.0259  -20.1964 H         1 MOL     0.0273
     50 H         -33.4257  -46.2771  -18.5883 H         1 MOL     0.0273
     51 H         -34.6533  -46.2602  -21.3775 H         1 MOL     0.0273
     52 H         -35.5475  -46.5481  -19.7836 H         1 MOL     0.0273
     53 H         -42.2915  -50.9945  -16.4429 H         1 MOL     0.0646
     54 H         -41.5902  -52.5059  -14.6120 H         1 MOL     0.0621
     55 H         -40.0273  -51.9861  -10.4418 H         1 MOL     0.1921
@<TRIPOS>BOND
     1    1   18 1 
     2    1   21 1 
     3    1   17 am
     4    2   20 1 
     5    2   22 am
     6    2   19 1 
     7    3    4 ar
     8    3   12 ar
     9    4   55 1 
    10    4    5 ar
    11    5    6 ar
    12    5   29 2 
    13    6    7 ar
    14    6   11 ar
    15    7    8 ar
    16    7   33 1 
    17    8    9 ar
    18    8   34 1 
    19    9   10 ar
    20    9   35 1 
    21   10   11 ar
    22   10   36 1 
    23   11   12 ar
    24   12   13 1 
    25   13   14 1 
    26   13   37 1 
    27   13   38 1 
    28   14   15 ar
    29   14   28 ar
    30   15   16 ar
    31   15   39 1 
    32   16   17 1 
    33   16   26 ar
    34   17   31 2 
    35   18   19 1 
    36   18   40 1 
    37   18   41 1 
    38   19   42 1 
    39   19   43 1 
    40   20   21 1 
    41   20   44 1 
    42   20   45 1 
    43   21   46 1 
    44   21   47 1 
    45   22   23 1 
    46   22   30 2 
    47   23   24 1 
    48   23   25 1 
    49   23   48 1 
    50   24   25 1 
    51   24   49 1 
    52   24   50 1 
    53   25   51 1 
    54   25   52 1 
    55   26   27 ar
    56   26   32 1 
    57   27   28 ar
    58   27   53 1 
    59   28   54 1 
@<TRIPOS>SUBSTRUCTURE
1 MOL         1
@<TRIPOS>MOLECULE
query molecule
   55    59     1     0     0
SMALL
NO_CHARGE

@<TRIPOS>ATOM
      1 N         -43.4454  -52.8148  -18.4032 N.am      1 MOL    -0.2945
      2 N         -45.3342  -54.9620  -17.9638 N.am      1 MOL    -0.2983
      3 N         -39.7660  -52.1540  -11.9416 N.ar      1 MOL    -0.1750
      4 N         -39.1733  -51.6982  -10.8456 N.ar      1 MOL    -0.2425
      5 C         -37.7992  -51.3924  -10.8046 C.ar      1 MOL     0.2725
      6 C         -37.0352  -51.6421  -11.9556 C.ar      1 MOL     0.0496
      7 C         -35.6646  -51.3915  -11.9890 C.ar      1 MOL     0.0138
      8 C         -34.9397  -51.6308  -13.1538 C.ar      1 MOL     0.0008
      9 C         -35.5686  -52.1360  -14.2892 C.ar      1 MOL     0.0007
     10 C         -36.9340  -52.4085  -14.2689 C.ar      1 MOL     0.0103
     11 C         -37.6947  -52.1549  -13.1164 C.ar      1 MOL     0.0106
     12 C         -39.0805  -52.3818  -13.0922 C.ar      1 MOL     0.0736
     13 C         -39.8291  -52.8854  -14.2653 C.3       1 MOL     0.0925
     14 C         -40.5686  -51.8915  -15.0643 C.ar      1 MOL    -0.0406
     15 C         -41.0536  -52.3759  -16.2920 C.ar      1 MOL     0.0196
     16 C         -41.7656  -51.5474  -17.1618 C.ar      1 MOL     0.0723
     17 C         -42.2767  -52.1338  -18.4144 C.2       1 MOL     0.2495
     18 C         -43.6541  -53.8293  -19.4340 C.3       1 MOL     0.1268
     19 C         -44.1610  -55.1569  -18.7954 C.3       1 MOL     0.1265
     20 C         -45.2083  -53.8755  -16.9740 C.3       1 MOL     0.1265
     21 C         -44.5631  -52.5587  -17.5117 C.3       1 MOL     0.1268
     22 C         -46.3838  -55.8146  -17.8428 C.2       1 MOL     0.2187
     23 C         -46.4351  -57.1607  -18.3780 C.3       1 MOL     0.0752
     24 C         -45.3408  -57.8825  -19.0407 C.3       1 MOL     0.0134
     25 C         -45.5316  -58.0393  -17.5641 C.3       1 MOL     0.0134
     26 C         -41.9526  -50.2116  -16.8345 C.ar      1 MOL     0.1355
     27 C         -41.4987  -49.7155  -15.6100 C.ar      1 MOL     0.0392
     28 C         -40.8179  -50.5626  -14.7208 C.ar      1 MOL     0.0066
     29 O         -37.3589  -50.8786   -9.7572 O.2       1 MOL    -0.2658
     30 O         -47.4315  -55.4628  -17.2525 O.2       1 MOL    -0.2753
     31 O         -41.5171  -52.0831  -19.3881 O.2       1 MOL    -0.2699
     32 F         -42.5729  -49.3830  -17.7060 F         1 MOL    -0.2047
     33 H         -35.1649  -51.0056  -11.1134 H         1 MOL     0.0625
     34 H         -33.8790  -51.4208  -13.1796 H         1 MOL     0.0618
     35 H         -34.9964  -52.3118  -15.1885 H         1 MOL     0.0618
     36 H         -37.4127  -52.8010  -15.1554 H         1 MOL     0.0624
     37 H         -40.5613  -53.6349  -13.9002 H         1 MOL     0.0377
     38 H         -39.1000  -53.3860  -14.9377 H         1 MOL     0.0377
     39 H         -40.8665  -53.4050  -16.5673 H         1 MOL     0.0629
     40 H         -42.6881  -53.9929  -19.9679 H         1 MOL     0.0480
     41 H         -44.3830  -53.4249  -20.1759 H         1 MOL     0.0480
     42 H         -43.3482  -55.5657  -18.1437 H         1 MOL     0.0480
     43 H         -44.4027  -55.9298  -19.5629 H         1 MOL     0.0480
     44 H         -44.5229  -54.2504  -16.1713 H         1 MOL     0.0480
     45 H         -46.1945  -53.6782  -16.4957 H         1 MOL     0.0480
     46 H         -44.2194  -51.9178  -16.6651 H         1 MOL     0.0480
     47 H         -45.3303  -51.9841  -18.0873 H         1 MOL     0.0480
     48 H         -47.4482  -57.5187  -18.4778 H         1 MOL     0.0394
     49 H         -44.5313  -57.2657  -19.4080 H         1 MOL     0.0273
     50 H         -45.6190  -58.7445  -19.6241 H         1 MOL     0.0273
     51 H         -44.7989  -57.5654  -16.9243 H         1 MOL     0.0273
     52 H         -45.8983  -59.0167  -17.2709 H         1 MOL     0.0273
     53 H         -41.6692  -48.6794  -15.3580 H         1 MOL     0.0646
     54 H         -40.4733  -50.1708  -13.7746 H         1 MOL     0.0621
     55 H         -39.6905  -51.5552   -9.9984 H         1 MOL     0.1921
@<TRIPOS>BOND
     1    1   18 1 
     2    1   21 1 
     3    1   17 am
     4    2   20 1 
     5    2   22 am
     6    2   19 1 
     7    3    4 ar
     8    3   12 ar
     9    4   55 1 
    10    4    5 ar
    11    5    6 ar
    12    5   29 2 
    13    6    7 ar
    14    6   11 ar
    15    7    8 ar
    16    7   33 1 
    17    8    9 ar
    18    8   34 1 
    19    9   10 ar
    20    9   35 1 
    21   10   11 ar
    22   10   36 1 
    23   11   12 ar
    24   12   13 1 
    25   13   14 1 
    26   13   37 1 
    27   13   38 1 
    28   14   15 ar
    29   14   28 ar
    30   15   16 ar
    31   15   39 1 
    32   16   17 1 
    33   16   26 ar
    34   17   31 2 
    35   18   19 1 
    36   18   40 1 
    37   18   41 1 
    38   19   42 1 
    39   19   43 1 
    40   20   21 1 
    41   20   44 1 
    42   20   45 1 
    43   21   46 1 
    44   21   47 1 
    45   22   23 1 
    46   22   30 2 
    47   23   24 1 
    48   23   25 1 
    49   23   48 1 
    50   24   25 1 
    51   24   49 1 
    52   24   50 1 
    53   25   51 1 
    54   25   52 1 
    55   26   27 ar
    56   26   32 1 
    57   27   28 ar
    58   27   53 1 
    59   28   54 1 
@<TRIPOS>SUBSTRUCTURE
1 MOL         1
@<TRIPOS>MOLECULE
query molecule
   55    59     1     0     0
SMALL
NO_CHARGE

@<TRIPOS>ATOM
      1 N         -58.1056  -70.2446   -5.0604 N.am      1 MOL    -0.2945
      2 N         -56.9906  -70.8603   -2.4978 N.am      1 MOL    -0.2983
      3 N         -53.1998  -69.2959   -9.0155 N.ar      1 MOL    -0.1750
      4 N         -52.4574  -68.2408   -9.3154 N.ar      1 MOL    -0.2425
      5 C         -52.6084  -67.6159  -10.5671 C.ar      1 MOL     0.2725
      6 C         -53.5784  -68.1169  -11.4606 C.ar      1 MOL     0.0496
      7 C         -53.8229  -67.4807  -12.6820 C.ar      1 MOL     0.0138
      8 C         -54.7750  -67.9941  -13.5610 C.ar      1 MOL     0.0008
      9 C         -55.4842  -69.1476  -13.2267 C.ar      1 MOL     0.0007
     10 C         -55.2521  -69.7825  -12.0088 C.ar      1 MOL     0.0103
     11 C         -54.3147  -69.2823  -11.0956 C.ar      1 MOL     0.0106
     12 C         -54.0848  -69.9004   -9.8585 C.ar      1 MOL     0.0736
     13 C         -54.7164  -71.1766   -9.4224 C.3       1 MOL     0.0925
     14 C         -56.1381  -71.0829   -9.0299 C.ar      1 MOL    -0.0406
     15 C         -56.5302  -70.4401   -7.8550 C.ar      1 MOL     0.0196
     16 C         -57.8800  -70.3672   -7.4966 C.ar      1 MOL     0.0723
     17 C         -58.2880  -69.6591   -6.2648 C.2       1 MOL     0.2495
     18 C         -58.7044  -69.6572   -3.8644 C.3       1 MOL     0.1268
     19 C         -57.7086  -69.6056   -2.6668 C.3       1 MOL     0.1265
     20 C         -56.3797  -71.4145   -3.7084 C.3       1 MOL     0.1265
     21 C         -57.4011  -71.5034   -4.8775 C.3       1 MOL     0.1268
     22 C         -56.6119  -71.3847   -1.2998 C.2       1 MOL     0.2187
     23 C         -57.0256  -70.7214   -0.0418 C.3       1 MOL     0.0752
     24 C         -57.5011  -71.7211    0.9609 C.3       1 MOL     0.0134
     25 C         -58.4770  -70.8311    0.2590 C.3       1 MOL     0.0134
     26 C         -58.8436  -70.9512   -8.3181 C.ar      1 MOL     0.1355
     27 C         -58.4669  -71.6098   -9.4881 C.ar      1 MOL     0.0392
     28 C         -57.1155  -71.6748   -9.8413 C.ar      1 MOL     0.0066
     29 O         -51.8638  -66.6587  -10.8196 O.2       1 MOL    -0.2658
     30 O         -55.8696  -72.3784   -1.2165 O.2       1 MOL    -0.2753
     31 O         -58.8271  -68.5592   -6.4208 O.2       1 MOL    -0.2699
     32 F         -60.1551  -70.8802   -7.9878 F         1 MOL    -0.2047
     33 H         -53.2756  -66.5876  -12.9460 H         1 MOL     0.0625
     34 H         -54.9649  -67.5004  -14.5028 H         1 MOL     0.0618
     35 H         -56.2143  -69.5526  -13.9120 H         1 MOL     0.0618
     36 H         -55.8062  -70.6772  -11.7587 H         1 MOL     0.0624
     37 H         -54.1502  -71.5515   -8.5443 H         1 MOL     0.0377
     38 H         -54.6337  -71.9043  -10.2538 H         1 MOL     0.0377
     39 H         -55.7830  -69.9944   -7.2139 H         1 MOL     0.0629
     40 H         -59.5820  -70.2892   -3.5765 H         1 MOL     0.0480
     41 H         -59.0862  -68.6394   -4.1006 H         1 MOL     0.0480
     42 H         -58.2493  -69.3735   -1.7193 H         1 MOL     0.0480
     43 H         -56.9571  -68.7975   -2.8360 H         1 MOL     0.0480
     44 H         -55.9486  -72.4152   -3.4813 H         1 MOL     0.0480
     45 H         -55.5418  -70.7388   -4.0091 H         1 MOL     0.0480
     46 H         -58.1583  -72.2927   -4.6543 H         1 MOL     0.0480
     47 H         -56.8920  -71.7730   -5.8309 H         1 MOL     0.0480
     48 H         -56.4417  -69.8856    0.2468 H         1 MOL     0.0394
     49 H         -57.3160  -71.4981    2.0042 H         1 MOL     0.0273
     50 H         -57.5064  -72.7617    0.6599 H         1 MOL     0.0273
     51 H         -58.9133  -70.0244    0.8346 H         1 MOL     0.0273
     52 H         -59.0944  -71.2854   -0.5071 H         1 MOL     0.0273
     53 H         -59.2169  -72.0675  -10.1160 H         1 MOL     0.0646
     54 H         -56.8260  -72.1887  -10.7470 H         1 MOL     0.0621
     55 H         -51.7763  -67.8525   -8.6905 H         1 MOL     0.1921
@<TRIPOS>BOND
     1    1   18 1 
     2    1   21 1 
     3    1   17 am
     4    2   20 1 
     5    2   22 am
     6    2   19 1 
     7    3    4 ar
     8    3   12 ar
     9    4   55 1 
    10    4    5 ar
    11    5    6 ar
    12    5   29 2 
    13    6    7 ar
    14    6   11 ar
    15    7    8 ar
    16    7   33 1 
    17    8    9 ar
    18    8   34 1 
    19    9   10 ar
    20    9   35 1 
    21   10   11 ar
    22   10   36 1 
    23   11   12 ar
    24   12   13 1 
    25   13   14 1 
    26   13   37 1 
    27   13   38 1 
    28   14   15 ar
    29   14   28 ar
    30   15   16 ar
    31   15   39 1 
    32   16   17 1 
    33   16   26 ar
    34   17   31 2 
    35   18   19 1 
    36   18   40 1 
    37   18   41 1 
    38   19   42 1 
    39   19   43 1 
    40   20   21 1 
    41   20   44 1 
    42   20   45 1 
    43   21   46 1 
    44   21   47 1 
    45   22   23 1 
    46   22   30 2 
    47   23   24 1 
    48   23   25 1 
    49   23   48 1 
    50   24   25 1 
    51   24   49 1 
    52   24   50 1 
    53   25   51 1 
    54   25   52 1 
    55   26   27 ar
    56   26   32 1 
    57   27   28 ar
    58   27   53 1 
    59   28   54 1 
@<TRIPOS>SUBSTRUCTURE
1 MOL         1
@<TRIPOS>MOLECULE
query molecule
   55    59     1     0     0
SMALL
NO_CHARGE

@<TRIPOS>ATOM
      1 N         -15.9308  -54.1134  -11.6842 N.am      1 MOL    -0.2945
      2 N         -18.7459  -54.4819  -12.0557 N.am      1 MOL    -0.2983
      3 N         -15.7461  -53.2456   -5.8948 N.ar      1 MOL    -0.1750
      4 N         -16.8525  -53.8419   -5.4664 N.ar      1 MOL    -0.2425
      5 C         -18.1152  -53.2566   -5.7049 C.ar      1 MOL     0.2725
      6 C         -18.1592  -52.0265   -6.4000 C.ar      1 MOL     0.0496
      7 C         -19.3799  -51.3902   -6.6431 C.ar      1 MOL     0.0138
      8 C         -19.4151  -50.1688   -7.3155 C.ar      1 MOL     0.0008
      9 C         -18.2297  -49.5821   -7.7610 C.ar      1 MOL     0.0007
     10 C         -17.0053  -50.2146   -7.5349 C.ar      1 MOL     0.0103
     11 C         -16.9409  -51.4367   -6.8481 C.ar      1 MOL     0.0106
     12 C         -15.7157  -52.0789   -6.5977 C.ar      1 MOL     0.0736
     13 C         -14.4046  -51.5321   -7.0795 C.3       1 MOL     0.0925
     14 C         -13.8309  -52.4071   -8.1375 C.ar      1 MOL    -0.0406
     15 C         -14.4812  -52.5221   -9.3703 C.ar      1 MOL     0.0196
     16 C         -13.9893  -53.3682  -10.3684 C.ar      1 MOL     0.0723
     17 C         -14.7124  -53.5170  -11.6550 C.2       1 MOL     0.2495
     18 C         -16.4191  -54.7137  -12.9294 C.3       1 MOL     0.1268
     19 C         -17.9069  -54.3392  -13.2344 C.3       1 MOL     0.1265
     20 C         -18.2527  -53.8091  -10.8514 C.3       1 MOL     0.1265
     21 C         -16.8009  -54.2727  -10.5259 C.3       1 MOL     0.1268
     22 C         -20.0065  -54.9849  -12.0390 C.2       1 MOL     0.2187
     23 C         -20.5838  -55.5609  -13.2700 C.3       1 MOL     0.0752
     24 C         -21.3170  -56.8341  -12.9751 C.3       1 MOL     0.0134
     25 C         -19.9994  -56.8591  -13.6835 C.3       1 MOL     0.0134
     26 C         -12.8042  -54.0726  -10.1337 C.ar      1 MOL     0.1355
     27 C         -12.1255  -53.9466   -8.9202 C.ar      1 MOL     0.0392
     28 C         -12.6430  -53.1158   -7.9220 C.ar      1 MOL     0.0066
     29 O         -19.1247  -53.8479   -5.2868 O.2       1 MOL    -0.2658
     30 O         -20.7223  -54.9247  -11.0267 O.2       1 MOL    -0.2753
     31 O         -14.1030  -53.1556  -12.6704 O.2       1 MOL    -0.2699
     32 F         -12.3027  -54.8977  -11.0843 F         1 MOL    -0.2047
     33 H         -20.2997  -51.8479   -6.3093 H         1 MOL     0.0625
     34 H         -20.3599  -49.6781   -7.4954 H         1 MOL     0.0618
     35 H         -18.2575  -48.6372   -8.2836 H         1 MOL     0.0618
     36 H         -16.0934  -49.7560   -7.8931 H         1 MOL     0.0624
     37 H         -13.6982  -51.4788   -6.2348 H         1 MOL     0.0377
     38 H         -14.5762  -50.5285   -7.5108 H         1 MOL     0.0377
     39 H         -15.3875  -51.9589   -9.5487 H         1 MOL     0.0629
     40 H         -16.3648  -55.8253  -12.8083 H         1 MOL     0.0480
     41 H         -15.7452  -54.4343  -13.7690 H         1 MOL     0.0480
     42 H         -18.3204  -54.9637  -14.0586 H         1 MOL     0.0480
     43 H         -17.9513  -53.2714  -13.5612 H         1 MOL     0.0480
     44 H         -18.9473  -54.0067  -10.0060 H         1 MOL     0.0480
     45 H         -18.2505  -52.7088  -11.0472 H         1 MOL     0.0480
     46 H         -16.8145  -55.3538  -10.2471 H         1 MOL     0.0480
     47 H         -16.3785  -53.6997   -9.6695 H         1 MOL     0.0480
     48 H         -20.9764  -54.8594  -13.9629 H         1 MOL     0.0394
     49 H         -22.1993  -57.0390  -13.5710 H         1 MOL     0.0273
     50 H         -21.3247  -57.1736  -11.9466 H         1 MOL     0.0273
     51 H         -20.0402  -57.0936  -14.7416 H         1 MOL     0.0273
     52 H         -19.1479  -57.2163  -13.1207 H         1 MOL     0.0273
     53 H         -11.2071  -54.4888   -8.7527 H         1 MOL     0.0646
     54 H         -12.1163  -53.0130   -6.9844 H         1 MOL     0.0621
     55 H         -16.8364  -54.7138   -4.9678 H         1 MOL     0.1921
@<TRIPOS>BOND
     1    1   18 1 
     2    1   21 1 
     3    1   17 am
     4    2   20 1 
     5    2   22 am
     6    2   19 1 
     7    3    4 ar
     8    3   12 ar
     9    4   55 1 
    10    4    5 ar
    11    5    6 ar
    12    5   29 2 
    13    6    7 ar
    14    6   11 ar
    15    7    8 ar
    16    7   33 1 
    17    8    9 ar
    18    8   34 1 
    19    9   10 ar
    20    9   35 1 
    21   10   11 ar
    22   10   36 1 
    23   11   12 ar
    24   12   13 1 
    25   13   14 1 
    26   13   37 1 
    27   13   38 1 
    28   14   15 ar
    29   14   28 ar
    30   15   16 ar
    31   15   39 1 
    32   16   17 1 
    33   16   26 ar
    34   17   31 2 
    35   18   19 1 
    36   18   40 1 
    37   18   41 1 
    38   19   42 1 
    39   19   43 1 
    40   20   21 1 
    41   20   44 1 
    42   20   45 1 
    43   21   46 1 
    44   21   47 1 
    45   22   23 1 
    46   22   30 2 
    47   23   24 1 
    48   23   25 1 
    49   23   48 1 
    50   24   25 1 
    51   24   49 1 
    52   24   50 1 
    53   25   51 1 
    54   25   52 1 
    55   26   27 ar
    56   26   32 1 
    57   27   28 ar
    58   27   53 1 
    59   28   54 1 
@<TRIPOS>SUBSTRUCTURE
1 MOL         1
@<TRIPOS>MOLECULE
query molecule
   55    59     1     0     0
SMALL
NO_CHARGE

@<TRIPOS>ATOM
      1 N         -17.4122  -55.3471   -4.2581 N.am      1 MOL    -0.2945
      2 N         -15.5470  -56.6291   -2.5094 N.am      1 MOL    -0.2983
      3 N         -13.7238  -54.0173  -10.7329 N.ar      1 MOL    -0.1750
      4 N         -13.3430  -53.5695  -11.9238 N.ar      1 MOL    -0.2425
      5 C         -14.1959  -53.6675  -13.0479 C.ar      1 MOL     0.2725
      6 C         -15.4519  -54.2991  -12.8887 C.ar      1 MOL     0.0496
      7 C         -16.3281  -54.4948  -13.9644 C.ar      1 MOL     0.0138
      8 C         -17.5819  -55.0820  -13.7628 C.ar      1 MOL     0.0008
      9 C         -17.9729  -55.4783  -12.4839 C.ar      1 MOL     0.0007
     10 C         -17.0990  -55.3215  -11.4088 C.ar      1 MOL     0.0103
     11 C         -15.8285  -54.7497  -11.5865 C.ar      1 MOL     0.0106
     12 C         -14.9288  -54.6174  -10.5147 C.ar      1 MOL     0.0736
     13 C         -15.2404  -55.1411   -9.1610 C.3       1 MOL     0.0925
     14 C         -16.0428  -54.2641   -8.2850 C.ar      1 MOL    -0.0406
     15 C         -16.7647  -54.9006   -7.2604 C.ar      1 MOL     0.0196
     16 C         -17.5288  -54.1533   -6.3626 C.ar      1 MOL     0.0723
     17 C         -18.2010  -54.8475   -5.2455 C.2       1 MOL     0.2495
     18 C         -17.8061  -56.5256   -3.5134 C.3       1 MOL     0.1268
     19 C         -16.6010  -57.4253   -3.0939 C.3       1 MOL     0.1265
     20 C         -15.0930  -55.5313   -3.3407 C.3       1 MOL     0.1265
     21 C         -16.2599  -54.6122   -3.7657 C.3       1 MOL     0.1268
     22 C         -14.8375  -56.9473   -1.3981 C.2       1 MOL     0.2187
     23 C         -14.8700  -58.3501   -0.9374 C.3       1 MOL     0.0752
     24 C         -13.6558  -59.0257   -1.5021 C.3       1 MOL     0.0134
     25 C         -13.7707  -58.7592   -0.0304 C.3       1 MOL     0.0134
     26 C         -17.6165  -52.7716   -6.5056 C.ar      1 MOL     0.1355
     27 C         -16.8935  -52.1254   -7.5115 C.ar      1 MOL     0.0392
     28 C         -16.1028  -52.8733   -8.3970 C.ar      1 MOL     0.0066
     29 O         -13.7995  -53.1519  -14.1099 O.2       1 MOL    -0.2658
     30 O         -14.1673  -56.1102   -0.7759 O.2       1 MOL    -0.2753
     31 O         -19.4303  -54.9742   -5.2630 O.2       1 MOL    -0.2699
     32 F         -18.3930  -52.0535   -5.6598 F         1 MOL    -0.2047
     33 H         -16.0393  -54.1906  -14.9604 H         1 MOL     0.0625
     34 H         -18.2538  -55.2307  -14.5960 H         1 MOL     0.0618
     35 H         -18.9480  -55.9153  -12.3253 H         1 MOL     0.0618
     36 H         -17.4036  -55.6473  -10.4232 H         1 MOL     0.0624
     37 H         -14.2768  -55.3427   -8.6486 H         1 MOL     0.0377
     38 H         -15.7960  -56.0936   -9.2867 H         1 MOL     0.0377
     39 H         -16.7189  -55.9756   -7.1605 H         1 MOL     0.0629
     40 H         -18.5481  -57.1021   -4.1114 H         1 MOL     0.0480
     41 H         -18.3222  -56.1784   -2.5826 H         1 MOL     0.0480
     42 H         -16.1903  -57.9441   -3.9929 H         1 MOL     0.0480
     43 H         -16.9235  -58.2044   -2.3663 H         1 MOL     0.0480
     44 H         -14.6207  -55.9662   -4.2555 H         1 MOL     0.0480
     45 H         -14.3133  -54.9556   -2.7933 H         1 MOL     0.0480
     46 H         -15.9389  -53.8731   -4.5356 H         1 MOL     0.0480
     47 H         -16.5915  -54.0351   -2.8639 H         1 MOL     0.0480
     48 H         -15.8072  -58.8413   -0.9871 H         1 MOL     0.0394
     49 H         -12.9466  -58.4035   -2.0375 H         1 MOL     0.0273
     50 H         -13.7556  -60.0532   -1.8266 H         1 MOL     0.0273
     51 H         -13.1591  -57.9695    0.3846 H         1 MOL     0.0273
     52 H         -13.9376  -59.6362    0.5860 H         1 MOL     0.0273
     53 H         -16.9404  -51.0509   -7.6074 H         1 MOL     0.0646
     54 H         -15.5384  -52.3720   -9.1701 H         1 MOL     0.0621
     55 H         -12.4406  -53.1542  -12.0764 H         1 MOL     0.1921
@<TRIPOS>BOND
     1    1   18 1 
     2    1   21 1 
     3    1   17 am
     4    2   20 1 
     5    2   22 am
     6    2   19 1 
     7    3    4 ar
     8    3   12 ar
     9    4   55 1 
    10    4    5 ar
    11    5    6 ar
    12    5   29 2 
    13    6    7 ar
    14    6   11 ar
    15    7    8 ar
    16    7   33 1 
    17    8    9 ar
    18    8   34 1 
    19    9   10 ar
    20    9   35 1 
    21   10   11 ar
    22   10   36 1 
    23   11   12 ar
    24   12   13 1 
    25   13   14 1 
    26   13   37 1 
    27   13   38 1 
    28   14   15 ar
    29   14   28 ar
    30   15   16 ar
    31   15   39 1 
    32   16   17 1 
    33   16   26 ar
    34   17   31 2 
    35   18   19 1 
    36   18   40 1 
    37   18   41 1 
    38   19   42 1 
    39   19   43 1 
    40   20   21 1 
    41   20   44 1 
    42   20   45 1 
    43   21   46 1 
    44   21   47 1 
    45   22   23 1 
    46   22   30 2 
    47   23   24 1 
    48   23   25 1 
    49   23   48 1 
    50   24   25 1 
    51   24   49 1 
    52   24   50 1 
    53   25   51 1 
    54   25   52 1 
    55   26   27 ar
    56   26   32 1 
    57   27   28 ar
    58   27   53 1 
    59   28   54 1 
@<TRIPOS>SUBSTRUCTURE
1 MOL         1
@<TRIPOS>MOLECULE
query molecule
   55    59     1     0     0
SMALL
NO_CHARGE

@<TRIPOS>ATOM
      1 N         -55.9132  -70.7279  -10.6327 N.am      1 MOL    -0.2945
      2 N         -53.6991  -68.9293  -10.5208 N.am      1 MOL    -0.2983
      3 N         -57.2343  -69.4389   -3.9850 N.ar      1 MOL    -0.1750
      4 N         -56.9576  -69.6254   -2.6994 N.ar      1 MOL    -0.2425
      5 C         -57.9167  -70.1658   -1.8162 C.ar      1 MOL     0.2725
      6 C         -59.1926  -70.4759   -2.3319 C.ar      1 MOL     0.0496
      7 C         -60.1842  -71.0244   -1.5146 C.ar      1 MOL     0.0138
      8 C         -61.4582  -71.2747   -2.0279 C.ar      1 MOL     0.0008
      9 C         -61.7500  -70.9763   -3.3593 C.ar      1 MOL     0.0007
     10 C         -60.7585  -70.4584   -4.1908 C.ar      1 MOL     0.0103
     11 C         -59.4623  -70.2201   -3.7062 C.ar      1 MOL     0.0106
     12 C         -58.4405  -69.7397   -4.5463 C.ar      1 MOL     0.0736
     13 C         -58.6661  -69.5367   -6.0052 C.3       1 MOL     0.0925
     14 C         -58.3603  -70.7026   -6.8676 C.ar      1 MOL    -0.0406
     15 C         -57.8857  -70.4339   -8.1625 C.ar      1 MOL     0.0196
     16 C         -57.6409  -71.4749   -9.0714 C.ar      1 MOL     0.0723
     17 C         -57.1838  -71.1486  -10.4430 C.2       1 MOL     0.2495
     18 C         -55.4952  -70.0728  -11.8694 C.3       1 MOL     0.1268
     19 C         -54.6755  -68.7703  -11.5958 C.3       1 MOL     0.1265
     20 C         -54.1241  -69.6647   -9.3389 C.3       1 MOL     0.1265
     21 C         -54.8580  -70.9762   -9.6655 C.3       1 MOL     0.1268
     22 C         -52.6955  -68.0264  -10.3113 C.2       1 MOL     0.2187
     23 C         -52.0887  -67.3772  -11.4948 C.3       1 MOL     0.0752
     24 C         -51.3831  -68.3494  -12.3818 C.3       1 MOL     0.0134
     25 C         -50.6028  -67.4602  -11.4596 C.3       1 MOL     0.0134
     26 C         -57.8471  -72.7900   -8.6705 C.ar      1 MOL     0.1355
     27 C         -58.2999  -73.0743   -7.3811 C.ar      1 MOL     0.0392
     28 C         -58.5573  -72.0308   -6.4840 C.ar      1 MOL     0.0066
     29 O         -57.5877  -70.3368   -0.6325 O.2       1 MOL    -0.2658
     30 O         -52.3074  -67.7156   -9.1688 O.2       1 MOL    -0.2753
     31 O         -58.0332  -71.1978  -11.3383 O.2       1 MOL    -0.2699
     32 F         -57.6102  -73.8093   -9.5291 F         1 MOL    -0.2047
     33 H         -59.9653  -71.2484   -0.4803 H         1 MOL     0.0625
     34 H         -62.2210  -71.6968   -1.3904 H         1 MOL     0.0618
     35 H         -62.7414  -71.1523   -3.7486 H         1 MOL     0.0618
     36 H         -60.9872  -70.2387   -5.2249 H         1 MOL     0.0624
     37 H         -58.0369  -68.6890   -6.3391 H         1 MOL     0.0377
     38 H         -59.7383  -69.2877   -6.1488 H         1 MOL     0.0377
     39 H         -57.7218  -69.4160   -8.4642 H         1 MOL     0.0629
     40 H         -56.3904  -69.8544  -12.4930 H         1 MOL     0.0480
     41 H         -54.8467  -70.7894  -12.4304 H         1 MOL     0.0480
     42 H         -55.3921  -67.9720  -11.2732 H         1 MOL     0.0480
     43 H         -54.1591  -68.4053  -12.5123 H         1 MOL     0.0480
     44 H         -54.8158  -69.0038   -8.7593 H         1 MOL     0.0480
     45 H         -53.2336  -69.8564   -8.6958 H         1 MOL     0.0480
     46 H         -55.2975  -71.4223   -8.7440 H         1 MOL     0.0480
     47 H         -54.1420  -71.7114  -10.1015 H         1 MOL     0.0480
     48 H         -52.6025  -66.5433  -11.8932 H         1 MOL     0.0394
     49 H         -51.3237  -68.1135  -13.4389 H         1 MOL     0.0273
     50 H         -51.4156  -69.3984  -12.1158 H         1 MOL     0.0273
     51 H         -50.0578  -66.6479  -11.9296 H         1 MOL     0.0273
     52 H         -50.1482  -67.9312  -10.5988 H         1 MOL     0.0273
     53 H         -58.4557  -74.1000   -7.0805 H         1 MOL     0.0646
     54 H         -58.9180  -72.2630   -5.4923 H         1 MOL     0.0621
     55 H         -56.0657  -69.4000   -2.2879 H         1 MOL     0.1921
@<TRIPOS>BOND
     1    1   18 1 
     2    1   21 1 
     3    1   17 am
     4    2   20 1 
     5    2   22 am
     6    2   19 1 
     7    3    4 ar
     8    3   12 ar
     9    4   55 1 
    10    4    5 ar
    11    5    6 ar
    12    5   29 2 
    13    6    7 ar
    14    6   11 ar
    15    7    8 ar
    16    7   33 1 
    17    8    9 ar
    18    8   34 1 
    19    9   10 ar
    20    9   35 1 
    21   10   11 ar
    22   10   36 1 
    23   11   12 ar
    24   12   13 1 
    25   13   14 1 
    26   13   37 1 
    27   13   38 1 
    28   14   15 ar
    29   14   28 ar
    30   15   16 ar
    31   15   39 1 
    32   16   17 1 
    33   16   26 ar
    34   17   31 2 
    35   18   19 1 
    36   18   40 1 
    37   18   41 1 
    38   19   42 1 
    39   19   43 1 
    40   20   21 1 
    41   20   44 1 
    42   20   45 1 
    43   21   46 1 
    44   21   47 1 
    45   22   23 1 
    46   22   30 2 
    47   23   24 1 
    48   23   25 1 
    49   23   48 1 
    50   24   25 1 
    51   24   49 1 
    52   24   50 1 
    53   25   51 1 
    54   25   52 1 
    55   26   27 ar
    56   26   32 1 
    57   27   28 ar
    58   27   53 1 
    59   28   54 1 
@<TRIPOS>SUBSTRUCTURE
1 MOL         1
@<TRIPOS>MOLECULE
query molecule
   55    59     1     0     0
SMALL
NO_CHARGE

@<TRIPOS>ATOM
      1 N         -11.8465  -60.1108  -10.1636 N.am      1 MOL    -0.2945
      2 N         -13.4613  -57.7819  -10.5645 N.am      1 MOL    -0.2983
      3 N         -14.5396  -62.2601   -7.0150 N.ar      1 MOL    -0.1750
      4 N         -14.9520  -61.1943   -6.3434 N.ar      1 MOL    -0.2425
      5 C         -14.7674  -61.1065   -4.9470 C.ar      1 MOL     0.2725
      6 C         -14.1842  -62.2023   -4.2806 C.ar      1 MOL     0.0496
      7 C         -14.0062  -62.1980   -2.8951 C.ar      1 MOL     0.0138
      8 C         -13.4429  -63.2987   -2.2483 C.ar      1 MOL     0.0008
      9 C         -13.0433  -64.4131   -2.9865 C.ar      1 MOL     0.0007
     10 C         -13.2033  -64.4245   -4.3725 C.ar      1 MOL     0.0103
     11 C         -13.7666  -63.3274   -5.0451 C.ar      1 MOL     0.0106
     12 C         -13.9092  -63.3248   -6.4434 C.ar      1 MOL     0.0736
     13 C         -13.4348  -64.4745   -7.2671 C.3       1 MOL     0.0925
     14 C         -12.8916  -64.1177   -8.5980 C.ar      1 MOL    -0.0406
     15 C         -12.2641  -62.8996   -8.8608 C.ar      1 MOL     0.0196
     16 C         -11.8187  -62.5729  -10.1430 C.ar      1 MOL     0.0723
     17 C         -11.1984  -61.2652  -10.4323 C.2       1 MOL     0.2495
     18 C         -11.2167  -58.8634  -10.5982 C.3       1 MOL     0.1268
     19 C         -12.2306  -57.9318  -11.3281 C.3       1 MOL     0.1265
     20 C         -14.0960  -59.0185  -10.1066 C.3       1 MOL     0.1265
     21 C         -13.0871  -59.9792   -9.4228 C.3       1 MOL     0.1268
     22 C         -14.1799  -56.6236  -10.5101 C.2       1 MOL     0.2187
     23 C         -13.6522  -55.4184  -11.2046 C.3       1 MOL     0.0752
     24 C         -12.5887  -54.7315  -10.4169 C.3       1 MOL     0.0134
     25 C         -13.9734  -54.1588  -10.4704 C.3       1 MOL     0.0134
     26 C         -11.9569  -63.5186  -11.1643 C.ar      1 MOL     0.1355
     27 C         -12.5543  -64.7554  -10.9169 C.ar      1 MOL     0.0392
     28 C         -13.0252  -65.0532   -9.6358 C.ar      1 MOL     0.0066
     29 O         -15.1144  -60.0573   -4.3840 O.2       1 MOL    -0.2658
     30 O         -15.2811  -56.5542   -9.9394 O.2       1 MOL    -0.2753
     31 O         -10.0825  -61.3110  -10.9676 O.2       1 MOL    -0.2699
     32 F         -11.5156  -63.2450  -12.4162 F         1 MOL    -0.2047
     33 H         -14.3166  -61.3391   -2.3157 H         1 MOL     0.0625
     34 H         -13.3144  -63.2905   -1.1759 H         1 MOL     0.0618
     35 H         -12.6069  -65.2664   -2.4890 H         1 MOL     0.0618
     36 H         -12.8814  -65.2871   -4.9409 H         1 MOL     0.0624
     37 H         -14.2915  -65.1565   -7.4248 H         1 MOL     0.0377
     38 H         -12.6379  -65.0008   -6.6997 H         1 MOL     0.0377
     39 H         -12.1380  -62.1856   -8.0571 H         1 MOL     0.0629
     40 H         -10.3567  -59.1022  -11.2658 H         1 MOL     0.0480
     41 H         -10.8131  -58.3426   -9.6965 H         1 MOL     0.0480
     42 H         -12.4871  -58.3738  -12.3212 H         1 MOL     0.0480
     43 H         -11.7872  -56.9252  -11.5061 H         1 MOL     0.0480
     44 H         -14.5319  -59.5324  -10.9966 H         1 MOL     0.0480
     45 H         -14.9315  -58.7641   -9.4148 H         1 MOL     0.0480
     46 H         -13.5320  -60.9875   -9.2651 H         1 MOL     0.0480
     47 H         -12.8307  -59.5612   -8.4155 H         1 MOL     0.0480
     48 H         -13.6304  -55.4584  -12.2632 H         1 MOL     0.0394
     49 H         -11.8289  -54.1951  -10.9723 H         1 MOL     0.0273
     50 H         -12.2944  -55.2038   -9.4879 H         1 MOL     0.0273
     51 H         -14.1090  -53.2609  -11.0606 H         1 MOL     0.0273
     52 H         -14.5795  -54.2670   -9.5793 H         1 MOL     0.0273
     53 H         -12.6526  -65.4764  -11.7143 H         1 MOL     0.0646
     54 H         -13.4977  -66.0067   -9.4470 H         1 MOL     0.0621
     55 H         -15.4099  -60.4248   -6.7957 H         1 MOL     0.1921
@<TRIPOS>BOND
     1    1   18 1 
     2    1   21 1 
     3    1   17 am
     4    2   20 1 
     5    2   22 am
     6    2   19 1 
     7    3    4 ar
     8    3   12 ar
     9    4   55 1 
    10    4    5 ar
    11    5    6 ar
    12    5   29 2 
    13    6    7 ar
    14    6   11 ar
    15    7    8 ar
    16    7   33 1 
    17    8    9 ar
    18    8   34 1 
    19    9   10 ar
    20    9   35 1 
    21   10   11 ar
    22   10   36 1 
    23   11   12 ar
    24   12   13 1 
    25   13   14 1 
    26   13   37 1 
    27   13   38 1 
    28   14   15 ar
    29   14   28 ar
    30   15   16 ar
    31   15   39 1 
    32   16   17 1 
    33   16   26 ar
    34   17   31 2 
    35   18   19 1 
    36   18   40 1 
    37   18   41 1 
    38   19   42 1 
    39   19   43 1 
    40   20   21 1 
    41   20   44 1 
    42   20   45 1 
    43   21   46 1 
    44   21   47 1 
    45   22   23 1 
    46   22   30 2 
    47   23   24 1 
    48   23   25 1 
    49   23   48 1 
    50   24   25 1 
    51   24   49 1 
    52   24   50 1 
    53   25   51 1 
    54   25   52 1 
    55   26   27 ar
    56   26   32 1 
    57   27   28 ar
    58   27   53 1 
    59   28   54 1 
@<TRIPOS>SUBSTRUCTURE
1 MOL         1
@<TRIPOS>MOLECULE
query molecule
   55    59     1     0     0
SMALL
NO_CHARGE

@<TRIPOS>ATOM
      1 N         -54.5465  -43.8961   19.6679 N.am      1 MOL    -0.2945
      2 N         -56.6464  -44.5197   17.8257 N.am      1 MOL    -0.2983
      3 N         -52.6331  -50.2802   23.0320 N.ar      1 MOL    -0.1750
      4 N         -52.0234  -51.2421   23.7134 N.ar      1 MOL    -0.2425
      5 C         -50.6531  -51.5141   23.5350 C.ar      1 MOL     0.2725
      6 C         -49.9403  -50.7254   22.6115 C.ar      1 MOL     0.0496
      7 C         -48.5931  -50.9591   22.3582 C.ar      1 MOL     0.0138
      8 C         -47.9157  -50.1526   21.4570 C.ar      1 MOL     0.0008
      9 C         -48.5389  -49.0825   20.8270 C.ar      1 MOL     0.0007
     10 C         -49.8848  -48.8456   21.0716 C.ar      1 MOL     0.0103
     11 C         -50.6173  -49.6761   21.9314 C.ar      1 MOL     0.0106
     12 C         -51.9922  -49.4980   22.1248 C.ar      1 MOL     0.0736
     13 C         -52.7700  -48.4992   21.3607 C.3       1 MOL     0.0925
     14 C         -52.9961  -47.2188   22.0452 C.ar      1 MOL    -0.0406
     15 C         -53.2512  -46.1265   21.2134 C.ar      1 MOL     0.0196
     16 C         -53.5484  -44.8591   21.7156 C.ar      1 MOL     0.0723
     17 C         -53.8708  -43.7130   20.8283 C.2       1 MOL     0.2495
     18 C         -55.4548  -42.8297   19.2413 C.3       1 MOL     0.1268
     19 C         -56.8100  -43.4021   18.7466 C.3       1 MOL     0.1265
     20 C         -55.6515  -45.5441   18.1490 C.3       1 MOL     0.1265
     21 C         -54.3385  -44.9607   18.7083 C.3       1 MOL     0.1268
     22 C         -57.6740  -44.9232   17.0209 C.2       1 MOL     0.2187
     23 C         -58.8286  -44.0242   16.8158 C.3       1 MOL     0.0752
     24 C         -59.4676  -44.1973   15.4821 C.3       1 MOL     0.0134
     25 C         -58.5405  -43.0467   15.7416 C.3       1 MOL     0.0134
     26 C         -53.5469  -44.7029   23.1121 C.ar      1 MOL     0.1355
     27 C         -53.2713  -45.7792   23.9624 C.ar      1 MOL     0.0392
     28 C         -52.9992  -47.0388   23.4236 C.ar      1 MOL     0.0066
     29 O         -50.1483  -52.4220   24.2087 O.2       1 MOL    -0.2658
     30 O         -57.7023  -46.0415   16.4888 O.2       1 MOL    -0.2753
     31 O         -53.6239  -42.5785   21.2661 O.2       1 MOL    -0.2699
     32 F         -53.8303  -43.5043   23.6789 F         1 MOL    -0.2047
     33 H         -48.0764  -51.7644   22.8579 H         1 MOL     0.0625
     34 H         -46.8706  -50.3478   21.2526 H         1 MOL     0.0618
     35 H         -47.9863  -48.4456   20.1546 H         1 MOL     0.0618
     36 H         -50.3800  -48.0205   20.5785 H         1 MOL     0.0624
     37 H         -53.7571  -48.9398   21.1200 H         1 MOL     0.0377
     38 H         -52.2149  -48.2855   20.4250 H         1 MOL     0.0377
     39 H         -53.2324  -46.2727   20.1402 H         1 MOL     0.0629
     40 H         -54.9626  -42.2688   18.4092 H         1 MOL     0.0480
     41 H         -55.6084  -42.1198   20.0856 H         1 MOL     0.0480
     42 H         -57.4319  -42.6133   18.2679 H         1 MOL     0.0480
     43 H         -57.3695  -43.7840   19.6395 H         1 MOL     0.0480
     44 H         -55.4627  -46.1742   17.2507 H         1 MOL     0.0480
     45 H         -56.0990  -46.2025   18.9362 H         1 MOL     0.0480
     46 H         -53.7713  -44.5269   17.8455 H         1 MOL     0.0480
     47 H         -53.7103  -45.7581   19.1649 H         1 MOL     0.0480
     48 H         -59.3827  -43.7644   17.6767 H         1 MOL     0.0394
     49 H         -60.5220  -43.9632   15.4104 H         1 MOL     0.0273
     50 H         -59.0832  -44.9826   14.8423 H         1 MOL     0.0273
     51 H         -59.0152  -42.0754   15.8074 H         1 MOL     0.0273
     52 H         -57.5719  -43.0884   15.2561 H         1 MOL     0.0273
     53 H         -53.2768  -45.6366   25.0330 H         1 MOL     0.0646
     54 H         -52.7965  -47.8715   24.0814 H         1 MOL     0.0621
     55 H         -52.5142  -51.8238   24.3735 H         1 MOL     0.1921
@<TRIPOS>BOND
     1    1   18 1 
     2    1   21 1 
     3    1   17 am
     4    2   20 1 
     5    2   22 am
     6    2   19 1 
     7    3    4 ar
     8    3   12 ar
     9    4   55 1 
    10    4    5 ar
    11    5    6 ar
    12    5   29 2 
    13    6    7 ar
    14    6   11 ar
    15    7    8 ar
    16    7   33 1 
    17    8    9 ar
    18    8   34 1 
    19    9   10 ar
    20    9   35 1 
    21   10   11 ar
    22   10   36 1 
    23   11   12 ar
    24   12   13 1 
    25   13   14 1 
    26   13   37 1 
    27   13   38 1 
    28   14   15 ar
    29   14   28 ar
    30   15   16 ar
    31   15   39 1 
    32   16   17 1 
    33   16   26 ar
    34   17   31 2 
    35   18   19 1 
    36   18   40 1 
    37   18   41 1 
    38   19   42 1 
    39   19   43 1 
    40   20   21 1 
    41   20   44 1 
    42   20   45 1 
    43   21   46 1 
    44   21   47 1 
    45   22   23 1 
    46   22   30 2 
    47   23   24 1 
    48   23   25 1 
    49   23   48 1 
    50   24   25 1 
    51   24   49 1 
    52   24   50 1 
    53   25   51 1 
    54   25   52 1 
    55   26   27 ar
    56   26   32 1 
    57   27   28 ar
    58   27   53 1 
    59   28   54 1 
@<TRIPOS>SUBSTRUCTURE
1 MOL         1
@<TRIPOS>MOLECULE
query molecule
   55    59     1     0     0
SMALL
NO_CHARGE

@<TRIPOS>ATOM
      1 N         -21.1885  -72.7953   12.1700 N.am      1 MOL    -0.2945
      2 N         -19.2806  -73.5675   10.2054 N.am      1 MOL    -0.2983
      3 N         -29.3301  -72.4789   13.1245 N.ar      1 MOL    -0.1750
      4 N         -30.3301  -72.6492   13.9781 N.ar      1 MOL    -0.2425
      5 C         -30.0958  -72.6489   15.3707 C.ar      1 MOL     0.2725
      6 C         -28.7542  -72.5584   15.8134 C.ar      1 MOL     0.0496
      7 C         -28.4354  -72.6785   17.1716 C.ar      1 MOL     0.0138
      8 C         -27.1094  -72.5857   17.6018 C.ar      1 MOL     0.0008
      9 C         -26.0909  -72.3432   16.6838 C.ar      1 MOL     0.0007
     10 C         -26.4014  -72.2306   15.3355 C.ar      1 MOL     0.0103
     11 C         -27.7135  -72.3580   14.8504 C.ar      1 MOL     0.0106
     12 C         -28.0218  -72.3018   13.4791 C.ar      1 MOL     0.0736
     13 C         -27.0530  -72.0779   12.3563 C.3       1 MOL     0.0925
     14 C         -25.8558  -72.9557   12.4090 C.ar      1 MOL    -0.0406
     15 C         -24.5949  -72.3826   12.6509 C.ar      1 MOL     0.0196
     16 C         -23.4818  -73.2049   12.8348 C.ar      1 MOL     0.0723
     17 C         -22.1476  -72.6262   13.1140 C.2       1 MOL     0.2495
     18 C         -19.8007  -72.9706   12.5726 C.3       1 MOL     0.1268
     19 C         -18.9658  -73.8584   11.5943 C.3       1 MOL     0.1265
     20 C         -20.7018  -73.6462    9.8712 C.3       1 MOL     0.1265
     21 C         -21.5074  -72.6507   10.7523 C.3       1 MOL     0.1268
     22 C         -18.3863  -73.2818    9.2155 C.2       1 MOL     0.2187
     23 C         -16.9420  -73.2535    9.5676 C.3       1 MOL     0.0752
     24 C         -16.1138  -72.5416    8.5520 C.3       1 MOL     0.0134
     25 C         -16.1182  -74.0422    8.6082 C.3       1 MOL     0.0134
     26 C         -23.6212  -74.5928   12.7497 C.ar      1 MOL     0.1355
     27 C         -24.8564  -75.1641   12.4508 C.ar      1 MOL     0.0392
     28 C         -25.9749  -74.3440   12.2724 C.ar      1 MOL     0.0066
     29 O         -31.0853  -72.6992   16.1211 O.2       1 MOL    -0.2658
     30 O         -18.7434  -73.0301    8.0562 O.2       1 MOL    -0.2753
     31 O         -21.9450  -72.1484   14.2356 O.2       1 MOL    -0.2699
     32 F         -22.5513  -75.3965   12.9615 F         1 MOL    -0.2047
     33 H         -29.2196  -72.8560   17.8932 H         1 MOL     0.0625
     34 H         -26.8677  -72.6973   18.6482 H         1 MOL     0.0618
     35 H         -25.0671  -72.2462   17.0114 H         1 MOL     0.0618
     36 H         -25.5987  -72.0530   14.6282 H         1 MOL     0.0624
     37 H         -26.7179  -71.0248   12.3830 H         1 MOL     0.0377
     38 H         -27.5817  -72.2797   11.4013 H         1 MOL     0.0377
     39 H         -24.4946  -71.3099   12.7087 H         1 MOL     0.0629
     40 H         -19.7626  -73.3471   13.6191 H         1 MOL     0.0480
     41 H         -19.3331  -71.9508   12.5685 H         1 MOL     0.0480
     42 H         -19.2052  -74.9315   11.7893 H         1 MOL     0.0480
     43 H         -17.8751  -73.7140   11.7669 H         1 MOL     0.0480
     44 H         -21.0531  -74.6879   10.0660 H         1 MOL     0.0480
     45 H         -20.8397  -73.4321    8.7888 H         1 MOL     0.0480
     46 H         -22.6043  -72.7723   10.6069 H         1 MOL     0.0480
     47 H         -21.2353  -71.6105   10.4442 H         1 MOL     0.0480
     48 H         -16.7158  -73.2246   10.6024 H         1 MOL     0.0394
     49 H         -15.2182  -72.0468    8.9056 H         1 MOL     0.0273
     50 H         -16.6400  -72.0878    7.7198 H         1 MOL     0.0273
     51 H         -15.2225  -74.5107    8.9983 H         1 MOL     0.0273
     52 H         -16.6424  -74.5544    7.8110 H         1 MOL     0.0273
     53 H         -24.9473  -76.2350   12.3622 H         1 MOL     0.0646
     54 H         -26.9338  -74.7873   12.0428 H         1 MOL     0.0621
     55 H         -31.2765  -72.7941   13.6752 H         1 MOL     0.1921
@<TRIPOS>BOND
     1    1   18 1 
     2    1   21 1 
     3    1   17 am
     4    2   20 1 
     5    2   22 am
     6    2   19 1 
     7    3    4 ar
     8    3   12 ar
     9    4   55 1 
    10    4    5 ar
    11    5    6 ar
    12    5   29 2 
    13    6    7 ar
    14    6   11 ar
    15    7    8 ar
    16    7   33 1 
    17    8    9 ar
    18    8   34 1 
    19    9   10 ar
    20    9   35 1 
    21   10   11 ar
    22   10   36 1 
    23   11   12 ar
    24   12   13 1 
    25   13   14 1 
    26   13   37 1 
    27   13   38 1 
    28   14   15 ar
    29   14   28 ar
    30   15   16 ar
    31   15   39 1 
    32   16   17 1 
    33   16   26 ar
    34   17   31 2 
    35   18   19 1 
    36   18   40 1 
    37   18   41 1 
    38   19   42 1 
    39   19   43 1 
    40   20   21 1 
    41   20   44 1 
    42   20   45 1 
    43   21   46 1 
    44   21   47 1 
    45   22   23 1 
    46   22   30 2 
    47   23   24 1 
    48   23   25 1 
    49   23   48 1 
    50   24   25 1 
    51   24   49 1 
    52   24   50 1 
    53   25   51 1 
    54   25   52 1 
    55   26   27 ar
    56   26   32 1 
    57   27   28 ar
    58   27   53 1 
    59   28   54 1 
@<TRIPOS>SUBSTRUCTURE
1 MOL         1
@<TRIPOS>MOLECULE
query molecule
   55    59     1     0     0
SMALL
NO_CHARGE

@<TRIPOS>ATOM
      1 N         -16.4319  -40.9990    1.1935 N.am      1 MOL    -0.2945
      2 N         -14.4532  -41.2429   -0.8353 N.am      1 MOL    -0.2983
      3 N         -15.8582  -36.2902    0.9177 N.ar      1 MOL    -0.1750
      4 N         -14.6057  -35.8721    0.8125 N.ar      1 MOL    -0.2425
      5 C         -14.3000  -34.4965    0.7863 C.ar      1 MOL     0.2725
      6 C         -15.3465  -33.5796    1.0073 C.ar      1 MOL     0.0496
      7 C         -15.0945  -32.2074    1.0917 C.ar      1 MOL     0.0138
      8 C         -16.1387  -31.3139    1.3305 C.ar      1 MOL     0.0008
      9 C         -17.4428  -31.7882    1.4778 C.ar      1 MOL     0.0007
     10 C         -17.7049  -33.1561    1.3886 C.ar      1 MOL     0.0103
     11 C         -16.6704  -34.0808    1.1557 C.ar      1 MOL     0.0106
     12 C         -16.9266  -35.4563    1.0639 C.ar      1 MOL     0.0736
     13 C         -18.3243  -35.9991    1.1124 C.3       1 MOL     0.0925
     14 C         -18.4133  -37.1749    2.0084 C.ar      1 MOL    -0.0406
     15 C         -18.0523  -38.4329    1.5226 C.ar      1 MOL     0.0196
     16 C         -18.0425  -39.5489    2.3652 C.ar      1 MOL     0.0723
     17 C         -17.6022  -40.8684    1.8619 C.2       1 MOL     0.2495
     18 C         -16.0294  -42.3375    0.7510 C.3       1 MOL     0.1268
     19 C         -15.4082  -42.3314   -0.6758 C.3       1 MOL     0.1265
     20 C         -14.9242  -39.9127   -0.4709 C.3       1 MOL     0.1265
     21 C         -15.4643  -39.9289    0.9857 C.3       1 MOL     0.1268
     22 C         -13.2447  -41.3738   -1.4340 C.2       1 MOL     0.2187
     23 C         -12.7000  -42.7392   -1.6036 C.3       1 MOL     0.0752
     24 C         -12.2984  -43.2899   -0.2702 C.3       1 MOL     0.0134
     25 C         -11.2638  -42.8132   -1.2459 C.3       1 MOL     0.0134
     26 C         -18.4617  -39.3949    3.6907 C.ar      1 MOL     0.1355
     27 C         -18.8676  -38.1515    4.1750 C.ar      1 MOL     0.0392
     28 C         -18.8400  -37.0377    3.3312 C.ar      1 MOL     0.0066
     29 O         -13.1291  -34.1634    0.5470 O.2       1 MOL    -0.2658
     30 O         -12.5872  -40.4100   -1.8431 O.2       1 MOL    -0.2753
     31 O         -18.3531  -41.8219    2.1107 O.2       1 MOL    -0.2699
     32 F         -18.4744  -40.4517    4.5343 F         1 MOL    -0.2047
     33 H         -14.0870  -31.8361    0.9762 H         1 MOL     0.0625
     34 H         -15.9387  -30.2545    1.4004 H         1 MOL     0.0618
     35 H         -18.2500  -31.0933    1.6586 H         1 MOL     0.0618
     36 H         -18.7217  -33.5078    1.4992 H         1 MOL     0.0624
     37 H         -18.6176  -36.3085    0.0926 H         1 MOL     0.0377
     38 H         -19.0012  -35.2112    1.4874 H         1 MOL     0.0377
     39 H         -17.7564  -38.5394    0.4861 H         1 MOL     0.0629
     40 H         -16.9056  -43.0234    0.8020 H         1 MOL     0.0480
     41 H         -15.2604  -42.7164    1.4694 H         1 MOL     0.0480
     42 H         -16.2197  -42.1913   -1.4303 H         1 MOL     0.0480
     43 H         -14.9056  -43.3014   -0.8972 H         1 MOL     0.0480
     44 H         -15.7339  -39.6228   -1.1806 H         1 MOL     0.0480
     45 H         -14.0853  -39.1899   -0.5835 H         1 MOL     0.0480
     46 H         -15.9324  -38.9529    1.2499 H         1 MOL     0.0480
     47 H         -14.6109  -40.1024    1.6844 H         1 MOL     0.0480
     48 H         -13.1451  -43.3483   -2.3407 H         1 MOL     0.0394
     49 H         -12.3572  -44.3606   -0.1211 H         1 MOL     0.0273
     50 H         -12.4496  -42.6594    0.5986 H         1 MOL     0.0273
     51 H         -10.6759  -43.5830   -1.7318 H         1 MOL     0.0273
     52 H         -10.7755  -41.8765   -1.0163 H         1 MOL     0.0273
     53 H         -19.1970  -38.0505    5.1978 H         1 MOL     0.0646
     54 H         -19.1425  -36.0707    3.7047 H         1 MOL     0.0621
     55 H         -13.8291  -36.5117    0.7616 H         1 MOL     0.1921
@<TRIPOS>BOND
     1    1   18 1 
     2    1   21 1 
     3    1   17 am
     4    2   20 1 
     5    2   22 am
     6    2   19 1 
     7    3    4 ar
     8    3   12 ar
     9    4   55 1 
    10    4    5 ar
    11    5    6 ar
    12    5   29 2 
    13    6    7 ar
    14    6   11 ar
    15    7    8 ar
    16    7   33 1 
    17    8    9 ar
    18    8   34 1 
    19    9   10 ar
    20    9   35 1 
    21   10   11 ar
    22   10   36 1 
    23   11   12 ar
    24   12   13 1 
    25   13   14 1 
    26   13   37 1 
    27   13   38 1 
    28   14   15 ar
    29   14   28 ar
    30   15   16 ar
    31   15   39 1 
    32   16   17 1 
    33   16   26 ar
    34   17   31 2 
    35   18   19 1 
    36   18   40 1 
    37   18   41 1 
    38   19   42 1 
    39   19   43 1 
    40   20   21 1 
    41   20   44 1 
    42   20   45 1 
    43   21   46 1 
    44   21   47 1 
    45   22   23 1 
    46   22   30 2 
    47   23   24 1 
    48   23   25 1 
    49   23   48 1 
    50   24   25 1 
    51   24   49 1 
    52   24   50 1 
    53   25   51 1 
    54   25   52 1 
    55   26   27 ar
    56   26   32 1 
    57   27   28 ar
    58   27   53 1 
    59   28   54 1 
@<TRIPOS>SUBSTRUCTURE
1 MOL         1
@<TRIPOS>MOLECULE
query molecule
   55    59     1     0     0
SMALL
NO_CHARGE

@<TRIPOS>ATOM
      1 N         -43.1861  -33.4973    7.7363 N.am      1 MOL    -0.2945
      2 N         -43.8653  -36.2290    7.3343 N.am      1 MOL    -0.2983
      3 N         -39.3762  -35.9856   10.0883 N.ar      1 MOL    -0.1750
      4 N         -39.7973  -37.1358   10.5906 N.ar      1 MOL    -0.2425
      5 C         -39.6876  -37.4114   11.9706 C.ar      1 MOL     0.2725
      6 C         -39.1556  -36.4232   12.8176 C.ar      1 MOL     0.0496
      7 C         -39.0435  -36.6270   14.1952 C.ar      1 MOL     0.0138
      8 C         -38.5009  -35.6325   15.0100 C.ar      1 MOL     0.0008
      9 C         -38.0754  -34.4238   14.4551 C.ar      1 MOL     0.0007
     10 C         -38.1915  -34.2078   13.0833 C.ar      1 MOL     0.0103
     11 C         -38.7249  -35.1945   12.2412 C.ar      1 MOL     0.0106
     12 C         -38.8307  -34.9952   10.8535 C.ar      1 MOL     0.0736
     13 C         -38.3445  -33.7410   10.2015 C.3       1 MOL     0.0925
     14 C         -39.4526  -32.7886    9.9784 C.ar      1 MOL    -0.0406
     15 C         -40.3773  -33.0201    8.9546 C.ar      1 MOL     0.0196
     16 C         -41.4333  -32.1279    8.7493 C.ar      1 MOL     0.0723
     17 C         -42.4264  -32.3821    7.6868 C.2       1 MOL     0.2495
     18 C         -43.9789  -33.8623    6.5658 C.3       1 MOL     0.1268
     19 C         -43.7170  -35.3473    6.1799 C.3       1 MOL     0.1265
     20 C         -43.1310  -35.8486    8.5451 C.3       1 MOL     0.1265
     21 C         -43.3581  -34.3464    8.9059 C.3       1 MOL     0.1268
     22 C         -44.4436  -37.4602    7.2740 C.2       1 MOL     0.2187
     23 C         -45.1035  -37.8947    6.0182 C.3       1 MOL     0.0752
     24 C         -46.3596  -37.1418    5.7280 C.3       1 MOL     0.0134
     25 C         -46.4301  -38.5306    6.2717 C.3       1 MOL     0.0134
     26 C         -41.5447  -30.9929    9.5538 C.ar      1 MOL     0.1355
     27 C         -40.6215  -30.7549   10.5761 C.ar      1 MOL     0.0392
     28 C         -39.5706  -31.6553   10.7947 C.ar      1 MOL     0.0066
     29 O         -40.0682  -38.5318   12.3590 O.2       1 MOL    -0.2658
     30 O         -44.4047  -38.2570    8.2277 O.2       1 MOL    -0.2753
     31 O         -42.4798  -31.5554    6.7696 O.2       1 MOL    -0.2699
     32 F         -42.5595  -30.1168    9.3554 F         1 MOL    -0.2047
     33 H         -39.3741  -37.5565   14.6334 H         1 MOL     0.0625
     34 H         -38.4044  -35.7969   16.0735 H         1 MOL     0.0618
     35 H         -37.6541  -33.6555   15.0876 H         1 MOL     0.0618
     36 H         -37.8655  -33.2669   12.6615 H         1 MOL     0.0624
     37 H         -37.8932  -33.9950    9.2272 H         1 MOL     0.0377
     38 H         -37.6011  -33.2641   10.8652 H         1 MOL     0.0377
     39 H         -40.2766  -33.8934    8.3267 H         1 MOL     0.0629
     40 H         -43.7433  -33.1688    5.7285 H         1 MOL     0.0480
     41 H         -45.0580  -33.7287    6.8265 H         1 MOL     0.0480
     42 H         -42.6814  -35.4537    5.7818 H         1 MOL     0.0480
     43 H         -44.4300  -35.6661    5.3848 H         1 MOL     0.0480
     44 H         -42.0421  -36.0062    8.3529 H         1 MOL     0.0480
     45 H         -43.4332  -36.5122    9.3858 H         1 MOL     0.0480
     46 H         -42.6711  -34.0078    9.7130 H         1 MOL     0.0480
     47 H         -44.4060  -34.2115    9.2733 H         1 MOL     0.0480
     48 H         -44.4598  -38.2350    5.2478 H         1 MOL     0.0394
     49 H         -46.6134  -37.0100    4.6831 H         1 MOL     0.0273
     50 H         -46.6023  -36.3311    6.4032 H         1 MOL     0.0273
     51 H         -46.7540  -39.2943    5.5748 H         1 MOL     0.0273
     52 H         -46.7416  -38.6285    7.3040 H         1 MOL     0.0273
     53 H         -40.7274  -29.8769   11.1966 H         1 MOL     0.0646
     54 H         -38.8628  -31.4731   11.5876 H         1 MOL     0.0621
     55 H         -40.2235  -37.8620   10.0321 H         1 MOL     0.1921
@<TRIPOS>BOND
     1    1   18 1 
     2    1   21 1 
     3    1   17 am
     4    2   20 1 
     5    2   22 am
     6    2   19 1 
     7    3    4 ar
     8    3   12 ar
     9    4   55 1 
    10    4    5 ar
    11    5    6 ar
    12    5   29 2 
    13    6    7 ar
    14    6   11 ar
    15    7    8 ar
    16    7   33 1 
    17    8    9 ar
    18    8   34 1 
    19    9   10 ar
    20    9   35 1 
    21   10   11 ar
    22   10   36 1 
    23   11   12 ar
    24   12   13 1 
    25   13   14 1 
    26   13   37 1 
    27   13   38 1 
    28   14   15 ar
    29   14   28 ar
    30   15   16 ar
    31   15   39 1 
    32   16   17 1 
    33   16   26 ar
    34   17   31 2 
    35   18   19 1 
    36   18   40 1 
    37   18   41 1 
    38   19   42 1 
    39   19   43 1 
    40   20   21 1 
    41   20   44 1 
    42   20   45 1 
    43   21   46 1 
    44   21   47 1 
    45   22   23 1 
    46   22   30 2 
    47   23   24 1 
    48   23   25 1 
    49   23   48 1 
    50   24   25 1 
    51   24   49 1 
    52   24   50 1 
    53   25   51 1 
    54   25   52 1 
    55   26   27 ar
    56   26   32 1 
    57   27   28 ar
    58   27   53 1 
    59   28   54 1 
@<TRIPOS>SUBSTRUCTURE
1 MOL         1
@<TRIPOS>MOLECULE
query molecule
   55    59     1     0     0
SMALL
NO_CHARGE

@<TRIPOS>ATOM
      1 N         -13.3842  -66.6806   -2.8490 N.am      1 MOL    -0.2945
      2 N         -13.3600  -65.0537   -5.1766 N.am      1 MOL    -0.2983
      3 N         -16.9513  -70.9191   -3.0922 N.ar      1 MOL    -0.1750
      4 N         -17.9946  -70.5660   -3.8342 N.ar      1 MOL    -0.2425
      5 C         -19.2221  -70.2102   -3.2316 C.ar      1 MOL     0.2725
      6 C         -19.2997  -70.2121   -1.8198 C.ar      1 MOL     0.0496
      7 C         -20.4872  -69.8655   -1.1675 C.ar      1 MOL     0.0138
      8 C         -20.5486  -69.8662    0.2260 C.ar      1 MOL     0.0008
      9 C         -19.4226  -70.2048    0.9733 C.ar      1 MOL     0.0007
     10 C         -18.2342  -70.5519    0.3345 C.ar      1 MOL     0.0103
     11 C         -18.1459  -70.5717   -1.0650 C.ar      1 MOL     0.0106
     12 C         -16.9622  -70.9455   -1.7287 C.ar      1 MOL     0.0736
     13 C         -15.7554  -71.3893   -0.9701 C.3       1 MOL     0.0925
     14 C         -14.4869  -70.8108   -1.4659 C.ar      1 MOL    -0.0406
     15 C         -14.2734  -69.4295   -1.5028 C.ar      1 MOL     0.0196
     16 C         -13.0410  -68.9158   -1.9203 C.ar      1 MOL     0.0723
     17 C         -12.8153  -67.4572   -1.9045 C.2       1 MOL     0.2495
     18 C         -13.3468  -65.2284   -2.6918 C.3       1 MOL     0.1268
     19 C         -12.7327  -64.5638   -3.9575 C.3       1 MOL     0.1265
     20 C         -13.4262  -66.5100   -5.3225 C.3       1 MOL     0.1265
     21 C         -14.0414  -67.1761   -4.0497 C.3       1 MOL     0.1268
     22 C         -13.6664  -64.2688   -6.2460 C.2       1 MOL     0.2187
     23 C         -13.4548  -62.8055   -6.1482 C.3       1 MOL     0.0752
     24 C         -14.4565  -62.1393   -5.2679 C.3       1 MOL     0.0134
     25 C         -14.5611  -62.0185   -6.7603 C.3       1 MOL     0.0134
     26 C         -12.0306  -69.7885   -2.3257 C.ar      1 MOL     0.1355
     27 C         -12.2433  -71.1683   -2.3203 C.ar      1 MOL     0.0392
     28 C         -13.4692  -71.6797   -1.8840 C.ar      1 MOL     0.0066
     29 O         -20.1688  -69.9046   -3.9751 O.2       1 MOL    -0.2658
     30 O         -14.0768  -64.7422   -7.3174 O.2       1 MOL    -0.2753
     31 O         -12.1158  -67.0175   -0.9858 O.2       1 MOL    -0.2699
     32 F         -10.8313  -69.3057   -2.7290 F         1 MOL    -0.2047
     33 H         -21.3597  -69.5988   -1.7462 H         1 MOL     0.0625
     34 H         -21.4686  -69.6017    0.7255 H         1 MOL     0.0618
     35 H         -19.4712  -70.2022    2.0520 H         1 MOL     0.0618
     36 H         -17.3680  -70.8172    0.9265 H         1 MOL     0.0624
     37 H         -15.6846  -72.4917   -1.0423 H         1 MOL     0.0377
     38 H         -15.8808  -71.0886    0.0890 H         1 MOL     0.0377
     39 H         -15.0559  -68.7561   -1.1833 H         1 MOL     0.0629
     40 H         -12.7721  -64.9683   -1.7757 H         1 MOL     0.0480
     41 H         -14.3949  -64.8669   -2.5578 H         1 MOL     0.0480
     42 H         -11.6448  -64.8123   -4.0055 H         1 MOL     0.0480
     43 H         -12.8294  -63.4568   -3.9170 H         1 MOL     0.0480
     44 H         -12.3818  -66.8889   -5.4523 H         1 MOL     0.0480
     45 H         -13.9966  -66.7644   -6.2427 H         1 MOL     0.0480
     46 H         -13.9595  -68.2844   -4.0924 H         1 MOL     0.0480
     47 H         -15.1244  -66.9105   -3.9895 H         1 MOL     0.0480
     48 H         -12.4459  -62.4776   -6.1933 H         1 MOL     0.0394
     49 H         -14.1336  -61.2543   -4.7334 H         1 MOL     0.0273
     50 H         -15.1816  -62.7799   -4.7816 H         1 MOL     0.0273
     51 H         -14.3012  -61.0576   -7.1877 H         1 MOL     0.0273
     52 H         -15.3500  -62.5814   -7.2432 H         1 MOL     0.0273
     53 H         -11.4660  -71.8405   -2.6511 H         1 MOL     0.0646
     54 H         -13.6336  -72.7476   -1.8670 H         1 MOL     0.0621
     55 H         -17.9601  -70.5333   -4.8382 H         1 MOL     0.1921
@<TRIPOS>BOND
     1    1   18 1 
     2    1   21 1 
     3    1   17 am
     4    2   20 1 
     5    2   22 am
     6    2   19 1 
     7    3    4 ar
     8    3   12 ar
     9    4   55 1 
    10    4    5 ar
    11    5    6 ar
    12    5   29 2 
    13    6    7 ar
    14    6   11 ar
    15    7    8 ar
    16    7   33 1 
    17    8    9 ar
    18    8   34 1 
    19    9   10 ar
    20    9   35 1 
    21   10   11 ar
    22   10   36 1 
    23   11   12 ar
    24   12   13 1 
    25   13   14 1 
    26   13   37 1 
    27   13   38 1 
    28   14   15 ar
    29   14   28 ar
    30   15   16 ar
    31   15   39 1 
    32   16   17 1 
    33   16   26 ar
    34   17   31 2 
    35   18   19 1 
    36   18   40 1 
    37   18   41 1 
    38   19   42 1 
    39   19   43 1 
    40   20   21 1 
    41   20   44 1 
    42   20   45 1 
    43   21   46 1 
    44   21   47 1 
    45   22   23 1 
    46   22   30 2 
    47   23   24 1 
    48   23   25 1 
    49   23   48 1 
    50   24   25 1 
    51   24   49 1 
    52   24   50 1 
    53   25   51 1 
    54   25   52 1 
    55   26   27 ar
    56   26   32 1 
    57   27   28 ar
    58   27   53 1 
    59   28   54 1 
@<TRIPOS>SUBSTRUCTURE
1 MOL         1
@<TRIPOS>MOLECULE
query molecule
   55    59     1     0     0
SMALL
NO_CHARGE

@<TRIPOS>ATOM
      1 N         -28.2760  -38.1592  -19.5111 N.am      1 MOL    -0.2945
      2 N         -27.5976  -40.2507  -17.6906 N.am      1 MOL    -0.2983
      3 N         -28.5456  -32.8539  -16.3926 N.ar      1 MOL    -0.1750
      4 N         -28.4561  -32.8175  -15.0658 N.ar      1 MOL    -0.2425
      5 C         -29.4687  -32.2210  -14.2873 C.ar      1 MOL     0.2725
      6 C         -30.5896  -31.6873  -14.9640 C.ar      1 MOL     0.0496
      7 C         -31.6245  -31.0630  -14.2564 C.ar      1 MOL     0.0138
      8 C         -32.7467  -30.5834  -14.9315 C.ar      1 MOL     0.0008
      9 C         -32.8370  -30.7076  -16.3181 C.ar      1 MOL     0.0007
     10 C         -31.8017  -31.3025  -17.0374 C.ar      1 MOL     0.0103
     11 C         -30.6606  -31.7952  -16.3866 C.ar      1 MOL     0.0106
     12 C         -29.6010  -32.3732  -17.1095 C.ar      1 MOL     0.0736
     13 C         -29.5801  -32.4362  -18.6032 C.3       1 MOL     0.0925
     14 C         -29.9674  -33.7452  -19.1800 C.ar      1 MOL    -0.0406
     15 C         -29.0046  -34.7363  -19.4062 C.ar      1 MOL     0.0196
     16 C         -29.3626  -35.9857  -19.9428 C.ar      1 MOL     0.0723
     17 C         -28.2985  -36.9794  -20.1631 C.2       1 MOL     0.2495
     18 C         -27.1558  -39.0586  -19.8041 C.3       1 MOL     0.1268
     19 C         -26.5482  -39.6608  -18.5086 C.3       1 MOL     0.1265
     20 C         -28.6730  -39.3401  -17.3146 C.3       1 MOL     0.1265
     21 C         -29.2867  -38.6598  -18.5915 C.3       1 MOL     0.1268
     22 C         -27.5526  -41.5251  -17.2289 C.2       1 MOL     0.2187
     23 C         -26.7710  -42.5196  -18.0135 C.3       1 MOL     0.0752
     24 C         -27.6360  -43.1092  -19.0848 C.3       1 MOL     0.0134
     25 C         -27.2651  -43.9142  -17.8774 C.3       1 MOL     0.0134
     26 C         -30.6909  -36.2223  -20.2827 C.ar      1 MOL     0.1355
     27 C         -31.6605  -35.2372  -20.0863 C.ar      1 MOL     0.0392
     28 C         -31.2990  -34.0016  -19.5322 C.ar      1 MOL     0.0066
     29 O         -29.3227  -32.2088  -13.0494 O.2       1 MOL    -0.2658
     30 O         -28.1358  -41.8811  -16.1918 O.2       1 MOL    -0.2753
     31 O         -27.4218  -36.6232  -20.9625 O.2       1 MOL    -0.2699
     32 F         -31.0477  -37.4098  -20.8234 F         1 MOL    -0.2047
     33 H         -31.5616  -30.9652  -13.1824 H         1 MOL     0.0625
     34 H         -33.5496  -30.1155  -14.3805 H         1 MOL     0.0618
     35 H         -33.7084  -30.3373  -16.8383 H         1 MOL     0.0618
     36 H         -31.8747  -31.3816  -18.1133 H         1 MOL     0.0624
     37 H         -28.5499  -32.2050  -18.9404 H         1 MOL     0.0377
     38 H         -30.2806  -31.6689  -18.9869 H         1 MOL     0.0377
     39 H         -27.9704  -34.5428  -19.1574 H         1 MOL     0.0629
     40 H         -26.3907  -38.5066  -20.3952 H         1 MOL     0.0480
     41 H         -27.5390  -39.8961  -20.4362 H         1 MOL     0.0480
     42 H         -26.0644  -38.8423  -17.9194 H         1 MOL     0.0480
     43 H         -25.7728  -40.4234  -18.7327 H         1 MOL     0.0480
     44 H         -28.2511  -38.5502  -16.6464 H         1 MOL     0.0480
     45 H         -29.4481  -39.8941  -16.7407 H         1 MOL     0.0480
     46 H         -29.9768  -37.8284  -18.3195 H         1 MOL     0.0480
     47 H         -29.8866  -39.4304  -19.1385 H         1 MOL     0.0480
     48 H         -25.7605  -42.2794  -18.2189 H         1 MOL     0.0394
     49 H         -27.1662  -43.4336  -20.0053 H         1 MOL     0.0273
     50 H         -28.6674  -42.7807  -19.1379 H         1 MOL     0.0273
     51 H         -26.5515  -44.7170  -17.9984 H         1 MOL     0.0273
     52 H         -28.0374  -44.0528  -17.1259 H         1 MOL     0.0273
     53 H         -32.6881  -35.4265  -20.3600 H         1 MOL     0.0646
     54 H         -32.0521  -33.2423  -19.3768 H         1 MOL     0.0621
     55 H         -27.6740  -33.2067  -14.5669 H         1 MOL     0.1921
@<TRIPOS>BOND
     1    1   18 1 
     2    1   21 1 
     3    1   17 am
     4    2   20 1 
     5    2   22 am
     6    2   19 1 
     7    3    4 ar
     8    3   12 ar
     9    4   55 1 
    10    4    5 ar
    11    5    6 ar
    12    5   29 2 
    13    6    7 ar
    14    6   11 ar
    15    7    8 ar
    16    7   33 1 
    17    8    9 ar
    18    8   34 1 
    19    9   10 ar
    20    9   35 1 
    21   10   11 ar
    22   10   36 1 
    23   11   12 ar
    24   12   13 1 
    25   13   14 1 
    26   13   37 1 
    27   13   38 1 
    28   14   15 ar
    29   14   28 ar
    30   15   16 ar
    31   15   39 1 
    32   16   17 1 
    33   16   26 ar
    34   17   31 2 
    35   18   19 1 
    36   18   40 1 
    37   18   41 1 
    38   19   42 1 
    39   19   43 1 
    40   20   21 1 
    41   20   44 1 
    42   20   45 1 
    43   21   46 1 
    44   21   47 1 
    45   22   23 1 
    46   22   30 2 
    47   23   24 1 
    48   23   25 1 
    49   23   48 1 
    50   24   25 1 
    51   24   49 1 
    52   24   50 1 
    53   25   51 1 
    54   25   52 1 
    55   26   27 ar
    56   26   32 1 
    57   27   28 ar
    58   27   53 1 
    59   28   54 1 
@<TRIPOS>SUBSTRUCTURE
1 MOL         1
@<TRIPOS>MOLECULE
query molecule
   55    59     1     0     0
SMALL
NO_CHARGE

@<TRIPOS>ATOM
      1 N         -13.5221  -43.5223   -7.7457 N.am      1 MOL    -0.2945
      2 N         -12.7966  -43.9435   -5.0330 N.am      1 MOL    -0.2983
      3 N          -8.3961  -42.9687   -8.3123 N.ar      1 MOL    -0.1750
      4 N          -7.8249  -42.5306   -7.1957 N.ar      1 MOL    -0.2425
      5 C          -7.0614  -41.3411   -7.1773 C.ar      1 MOL     0.2725
      6 C          -6.8012  -40.7119   -8.4162 C.ar      1 MOL     0.0496
      7 C          -5.9270  -39.6257   -8.5091 C.ar      1 MOL     0.0138
      8 C          -5.7010  -38.9956   -9.7312 C.ar      1 MOL     0.0008
      9 C          -6.3532  -39.4458  -10.8791 C.ar      1 MOL     0.0007
     10 C          -7.2119  -40.5439  -10.8091 C.ar      1 MOL     0.0103
     11 C          -7.4376  -41.2100   -9.5928 C.ar      1 MOL     0.0106
     12 C          -8.2658  -42.3452   -9.5183 C.ar      1 MOL     0.0736
     13 C          -8.9694  -42.8936  -10.7222 C.3       1 MOL     0.0925
     14 C         -10.4119  -42.5460  -10.7403 C.ar      1 MOL    -0.0406
     15 C         -11.3271  -43.2733   -9.9717 C.ar      1 MOL     0.0196
     16 C         -12.6863  -42.9274   -9.9709 C.ar      1 MOL     0.0723
     17 C         -13.6471  -43.6437   -9.0920 C.2       1 MOL     0.2495
     18 C         -14.4848  -44.1589   -6.8461 C.3       1 MOL     0.1268
     19 C         -13.7952  -44.8266   -5.6077 C.3       1 MOL     0.1265
     20 C         -11.8087  -43.4163   -5.9688 C.3       1 MOL     0.1265
     21 C         -12.5141  -42.6735   -7.1246 C.3       1 MOL     0.1268
     22 C         -12.7249  -43.5289   -3.7425 C.2       1 MOL     0.2187
     23 C         -13.6387  -44.1314   -2.7481 C.3       1 MOL     0.0752
     24 C         -13.0003  -44.3265   -1.4152 C.3       1 MOL     0.0134
     25 C         -13.2360  -45.5021   -2.3172 C.3       1 MOL     0.0134
     26 C         -13.1287  -41.8831  -10.7850 C.ar      1 MOL     0.1355
     27 C         -12.2255  -41.1598  -11.5657 C.ar      1 MOL     0.0392
     28 C         -10.8664  -41.4882  -11.5396 C.ar      1 MOL     0.0066
     29 O          -6.7150  -40.8874   -6.0711 O.2       1 MOL    -0.2658
     30 O         -11.9702  -42.6018   -3.4002 O.2       1 MOL    -0.2753
     31 O         -14.5479  -44.2882   -9.6396 O.2       1 MOL    -0.2699
     32 F         -14.4413  -41.5486  -10.8179 F         1 MOL    -0.2047
     33 H          -5.4208  -39.2728   -7.6222 H         1 MOL     0.0625
     34 H          -5.0243  -38.1567   -9.7902 H         1 MOL     0.0618
     35 H          -6.1919  -38.9461  -11.8235 H         1 MOL     0.0618
     36 H          -7.7062  -40.8886  -11.7079 H         1 MOL     0.0624
     37 H          -8.8725  -43.9942  -10.7227 H         1 MOL     0.0377
     38 H          -8.4995  -42.4658  -11.6283 H         1 MOL     0.0377
     39 H         -10.9816  -44.0966   -9.3633 H         1 MOL     0.0629
     40 H         -15.1052  -44.8844   -7.4166 H         1 MOL     0.0480
     41 H         -15.1671  -43.3557   -6.4668 H         1 MOL     0.0480
     42 H         -13.2855  -45.7649   -5.9338 H         1 MOL     0.0480
     43 H         -14.5445  -45.0951   -4.8291 H         1 MOL     0.0480
     44 H         -11.2233  -44.2770   -6.3762 H         1 MOL     0.0480
     45 H         -11.1052  -42.7496   -5.4241 H         1 MOL     0.0480
     46 H         -11.7805  -42.3521   -7.8967 H         1 MOL     0.0480
     47 H         -13.0180  -41.7660   -6.7204 H         1 MOL     0.0480
     48 H         -14.6597  -43.8572   -2.8423 H         1 MOL     0.0394
     49 H         -13.6539  -44.2438   -0.5533 H         1 MOL     0.0273
     50 H         -11.9714  -44.0164   -1.2913 H         1 MOL     0.0273
     51 H         -14.0398  -46.1725   -2.0306 H         1 MOL     0.0273
     52 H         -12.3587  -45.9449   -2.7691 H         1 MOL     0.0273
     53 H         -12.5773  -40.3478  -12.1850 H         1 MOL     0.0646
     54 H         -10.1685  -40.9239  -12.1407 H         1 MOL     0.0621
     55 H          -7.8927  -43.0302   -6.3202 H         1 MOL     0.1921
@<TRIPOS>BOND
     1    1   18 1 
     2    1   21 1 
     3    1   17 am
     4    2   20 1 
     5    2   22 am
     6    2   19 1 
     7    3    4 ar
     8    3   12 ar
     9    4   55 1 
    10    4    5 ar
    11    5    6 ar
    12    5   29 2 
    13    6    7 ar
    14    6   11 ar
    15    7    8 ar
    16    7   33 1 
    17    8    9 ar
    18    8   34 1 
    19    9   10 ar
    20    9   35 1 
    21   10   11 ar
    22   10   36 1 
    23   11   12 ar
    24   12   13 1 
    25   13   14 1 
    26   13   37 1 
    27   13   38 1 
    28   14   15 ar
    29   14   28 ar
    30   15   16 ar
    31   15   39 1 
    32   16   17 1 
    33   16   26 ar
    34   17   31 2 
    35   18   19 1 
    36   18   40 1 
    37   18   41 1 
    38   19   42 1 
    39   19   43 1 
    40   20   21 1 
    41   20   44 1 
    42   20   45 1 
    43   21   46 1 
    44   21   47 1 
    45   22   23 1 
    46   22   30 2 
    47   23   24 1 
    48   23   25 1 
    49   23   48 1 
    50   24   25 1 
    51   24   49 1 
    52   24   50 1 
    53   25   51 1 
    54   25   52 1 
    55   26   27 ar
    56   26   32 1 
    57   27   28 ar
    58   27   53 1 
    59   28   54 1 
@<TRIPOS>SUBSTRUCTURE
1 MOL         1
@<TRIPOS>MOLECULE
query molecule
   55    59     1     0     0
SMALL
NO_CHARGE

@<TRIPOS>ATOM
      1 N         -17.4239  -70.6048   -1.2613 N.am      1 MOL    -0.2945
      2 N         -20.2091  -70.0464   -1.7197 N.am      1 MOL    -0.2983
      3 N         -11.8465  -68.5932   -5.6861 N.ar      1 MOL    -0.1750
      4 N         -10.8017  -68.0404   -6.2742 N.ar      1 MOL    -0.2425
      5 C         -10.8222  -66.6696   -6.6086 C.ar      1 MOL     0.2725
      6 C         -11.9307  -65.8926   -6.2066 C.ar      1 MOL     0.0496
      7 C         -12.0121  -64.5317   -6.5148 C.ar      1 MOL     0.0138
      8 C         -13.0705  -63.7604   -6.0267 C.ar      1 MOL     0.0008
      9 C         -14.0422  -64.3431   -5.2175 C.ar      1 MOL     0.0007
     10 C         -14.0087  -65.7126   -4.9551 C.ar      1 MOL     0.0103
     11 C         -12.9764  -66.5139   -5.4661 C.ar      1 MOL     0.0106
     12 C         -12.9529  -67.9054   -5.2819 C.ar      1 MOL     0.0736
     13 C         -14.1090  -68.6354   -4.7127 C.3       1 MOL     0.0925
     14 C         -13.8578  -69.4695   -3.5285 C.ar      1 MOL    -0.0406
     15 C         -14.9889  -69.8610   -2.8159 C.ar      1 MOL     0.0196
     16 C         -14.9604  -70.7169   -1.7102 C.ar      1 MOL     0.0723
     17 C         -16.1969  -71.1256   -0.9820 C.2       1 MOL     0.2495
     18 C         -18.3727  -70.5349   -0.1403 C.3       1 MOL     0.1268
     19 C         -19.8438  -70.8334   -0.5603 C.3       1 MOL     0.1265
     20 C         -19.3404  -70.2594   -2.8756 C.3       1 MOL     0.1265
     21 C         -17.8568  -70.0323   -2.5148 C.3       1 MOL     0.1268
     22 C         -21.3705  -69.3636   -1.8987 C.2       1 MOL     0.2187
     23 C         -22.4626  -69.5269   -0.9123 C.3       1 MOL     0.0752
     24 C         -23.1839  -68.2392   -0.6794 C.3       1 MOL     0.0134
     25 C         -22.2794  -68.8102    0.3697 C.3       1 MOL     0.0134
     26 C         -13.6829  -71.1703   -1.3200 C.ar      1 MOL     0.1355
     27 C         -12.5215  -70.7687   -1.9948 C.ar      1 MOL     0.0392
     28 C         -12.6198  -69.9187   -3.0966 C.ar      1 MOL     0.0066
     29 O          -9.8491  -66.2182   -7.2280 O.2       1 MOL    -0.2658
     30 O         -21.5838  -68.6786   -2.9141 O.2       1 MOL    -0.2753
     31 O         -16.0432  -71.8925   -0.0144 O.2       1 MOL    -0.2699
     32 F         -13.5288  -72.0170   -0.2733 F         1 MOL    -0.2047
     33 H         -11.2473  -64.0758   -7.1260 H         1 MOL     0.0625
     34 H         -13.1254  -62.7094   -6.2670 H         1 MOL     0.0618
     35 H         -14.8356  -63.7358   -4.8060 H         1 MOL     0.0618
     36 H         -14.7899  -66.1598   -4.3556 H         1 MOL     0.0624
     37 H         -14.4925  -69.3052   -5.5147 H         1 MOL     0.0377
     38 H         -14.8970  -67.8982   -4.4597 H         1 MOL     0.0377
     39 H         -15.9507  -69.4845   -3.1550 H         1 MOL     0.0629
     40 H         -18.3282  -69.4978    0.2743 H         1 MOL     0.0480
     41 H         -18.0328  -71.2352    0.6574 H         1 MOL     0.0480
     42 H         -20.5503  -70.6247    0.2706 H         1 MOL     0.0480
     43 H         -19.9365  -71.9132   -0.8345 H         1 MOL     0.0480
     44 H         -19.6476  -69.5698   -3.6967 H         1 MOL     0.0480
     45 H         -19.4817  -71.3058   -3.2361 H         1 MOL     0.0480
     46 H         -17.7156  -68.9200   -2.4296 H         1 MOL     0.0480
     47 H         -17.1851  -70.3796   -3.3332 H         1 MOL     0.0480
     48 H         -22.9882  -70.4485   -0.9657 H         1 MOL     0.0394
     49 H         -24.2484  -68.2984   -0.4892 H         1 MOL     0.0273
     50 H         -22.8164  -67.3680   -1.2085 H         1 MOL     0.0273
     51 H         -22.7682  -69.2231    1.2443 H         1 MOL     0.0273
     52 H         -21.3382  -68.2979    0.5295 H         1 MOL     0.0273
     53 H         -11.5488  -71.1142   -1.6775 H         1 MOL     0.0646
     54 H         -11.7310  -69.6130   -3.6296 H         1 MOL     0.0621
     55 H          -9.9664  -68.5549   -6.4981 H         1 MOL     0.1921
@<TRIPOS>BOND
     1    1   18 1 
     2    1   21 1 
     3    1   17 am
     4    2   20 1 
     5    2   22 am
     6    2   19 1 
     7    3    4 ar
     8    3   12 ar
     9    4   55 1 
    10    4    5 ar
    11    5    6 ar
    12    5   29 2 
    13    6    7 ar
    14    6   11 ar
    15    7    8 ar
    16    7   33 1 
    17    8    9 ar
    18    8   34 1 
    19    9   10 ar
    20    9   35 1 
    21   10   11 ar
    22   10   36 1 
    23   11   12 ar
    24   12   13 1 
    25   13   14 1 
    26   13   37 1 
    27   13   38 1 
    28   14   15 ar
    29   14   28 ar
    30   15   16 ar
    31   15   39 1 
    32   16   17 1 
    33   16   26 ar
    34   17   31 2 
    35   18   19 1 
    36   18   40 1 
    37   18   41 1 
    38   19   42 1 
    39   19   43 1 
    40   20   21 1 
    41   20   44 1 
    42   20   45 1 
    43   21   46 1 
    44   21   47 1 
    45   22   23 1 
    46   22   30 2 
    47   23   24 1 
    48   23   25 1 
    49   23   48 1 
    50   24   25 1 
    51   24   49 1 
    52   24   50 1 
    53   25   51 1 
    54   25   52 1 
    55   26   27 ar
    56   26   32 1 
    57   27   28 ar
    58   27   53 1 
    59   28   54 1 
@<TRIPOS>SUBSTRUCTURE
1 MOL         1
@<TRIPOS>MOLECULE
query molecule
   55    59     1     0     0
SMALL
NO_CHARGE

@<TRIPOS>ATOM
      1 N         -35.4984  -28.9148   16.9936 N.am      1 MOL    -0.2945
      2 N         -34.5845  -26.3183   16.2253 N.am      1 MOL    -0.2983
      3 N         -34.3522  -35.5286   15.5697 N.ar      1 MOL    -0.1750
      4 N         -34.6778  -36.7596   15.2055 N.ar      1 MOL    -0.2425
      5 C         -33.7086  -37.7825   15.1845 C.ar      1 MOL     0.2725
      6 C         -32.3991  -37.4839   15.6071 C.ar      1 MOL     0.0496
      7 C         -31.4007  -38.4574   15.6266 C.ar      1 MOL     0.0138
      8 C         -30.1175  -38.1453   16.0766 C.ar      1 MOL     0.0008
      9 C         -29.8168  -36.8586   16.5042 C.ar      1 MOL     0.0007
     10 C         -30.8024  -35.8780   16.4819 C.ar      1 MOL     0.0103
     11 C         -32.0963  -36.1631   16.0228 C.ar      1 MOL     0.0106
     12 C         -33.0934  -35.1782   15.9521 C.ar      1 MOL     0.0736
     13 C         -32.7510  -33.7704   16.2612 C.3       1 MOL     0.0925
     14 C         -33.6965  -33.0919   17.1480 C.ar      1 MOL    -0.0406
     15 C         -34.3824  -31.9642   16.6798 C.ar      1 MOL     0.0196
     16 C         -35.2816  -31.3041   17.5195 C.ar      1 MOL     0.0723
     17 C         -36.0593  -30.1445   17.0382 C.2       1 MOL     0.2495
     18 C         -36.3903  -27.7606   17.1208 C.3       1 MOL     0.1268
     19 C         -36.0083  -26.5993   16.1627 C.3       1 MOL     0.1265
     20 C         -33.7252  -27.4810   15.9874 C.3       1 MOL     0.1265
     21 C         -34.0683  -28.6692   16.9293 C.3       1 MOL     0.1268
     22 C         -34.0350  -25.0757   16.1123 C.2       1 MOL     0.2187
     23 C         -34.9198  -23.8886   16.1077 C.3       1 MOL     0.0752
     24 C         -34.2434  -22.6681   16.6355 C.3       1 MOL     0.0134
     25 C         -35.3013  -23.3645   17.4411 C.3       1 MOL     0.0134
     26 C         -35.4689  -31.7737   18.8249 C.ar      1 MOL     0.1355
     27 C         -34.7810  -32.8962   19.2898 C.ar      1 MOL     0.0392
     28 C         -33.8923  -33.5593   18.4471 C.ar      1 MOL     0.0066
     29 O         -34.0729  -38.9019   14.7956 O.2       1 MOL    -0.2658
     30 O         -32.8151  -24.9221   15.9345 O.2       1 MOL    -0.2753
     31 O         -37.2585  -30.3579   16.8259 O.2       1 MOL    -0.2699
     32 F         -36.3291  -31.1425   19.6597 F         1 MOL    -0.2047
     33 H         -31.6245  -39.4559   15.2781 H         1 MOL     0.0625
     34 H         -29.3579  -38.9117   16.0865 H         1 MOL     0.0618
     35 H         -28.8260  -36.6263   16.8637 H         1 MOL     0.0618
     36 H         -30.5655  -34.8772   16.8216 H         1 MOL     0.0624
     37 H         -32.7170  -33.2112   15.3021 H         1 MOL     0.0377
     38 H         -31.7508  -33.7518   16.7359 H         1 MOL     0.0377
     39 H         -34.2170  -31.6065   15.6739 H         1 MOL     0.0629
     40 H         -36.3081  -27.3828   18.1700 H         1 MOL     0.0480
     41 H         -37.4407  -28.0924   16.9601 H         1 MOL     0.0480
     42 H         -36.5845  -25.6758   16.3916 H         1 MOL     0.0480
     43 H         -36.2507  -26.9013   15.1133 H         1 MOL     0.0480
     44 H         -32.6592  -27.1758   16.0954 H         1 MOL     0.0480
     45 H         -33.8764  -27.8005   14.9255 H         1 MOL     0.0480
     46 H         -33.7130  -28.4174   17.9581 H         1 MOL     0.0480
     47 H         -33.5466  -29.5989   16.6061 H         1 MOL     0.0480
     48 H         -35.5832  -23.8295   15.2780 H         1 MOL     0.0394
     49 H         -34.5165  -21.7245   16.1770 H         1 MOL     0.0273
     50 H         -33.2277  -22.7654   16.9991 H         1 MOL     0.0273
     51 H         -36.2504  -22.8387   17.5054 H         1 MOL     0.0273
     52 H         -34.9684  -23.8900   18.3249 H         1 MOL     0.0273
     53 H         -34.9338  -33.2542   20.2956 H         1 MOL     0.0646
     54 H         -33.3566  -34.4317   18.7883 H         1 MOL     0.0621
     55 H         -35.6097  -37.0214   14.9353 H         1 MOL     0.1921
@<TRIPOS>BOND
     1    1   18 1 
     2    1   21 1 
     3    1   17 am
     4    2   20 1 
     5    2   22 am
     6    2   19 1 
     7    3    4 ar
     8    3   12 ar
     9    4   55 1 
    10    4    5 ar
    11    5    6 ar
    12    5   29 2 
    13    6    7 ar
    14    6   11 ar
    15    7    8 ar
    16    7   33 1 
    17    8    9 ar
    18    8   34 1 
    19    9   10 ar
    20    9   35 1 
    21   10   11 ar
    22   10   36 1 
    23   11   12 ar
    24   12   13 1 
    25   13   14 1 
    26   13   37 1 
    27   13   38 1 
    28   14   15 ar
    29   14   28 ar
    30   15   16 ar
    31   15   39 1 
    32   16   17 1 
    33   16   26 ar
    34   17   31 2 
    35   18   19 1 
    36   18   40 1 
    37   18   41 1 
    38   19   42 1 
    39   19   43 1 
    40   20   21 1 
    41   20   44 1 
    42   20   45 1 
    43   21   46 1 
    44   21   47 1 
    45   22   23 1 
    46   22   30 2 
    47   23   24 1 
    48   23   25 1 
    49   23   48 1 
    50   24   25 1 
    51   24   49 1 
    52   24   50 1 
    53   25   51 1 
    54   25   52 1 
    55   26   27 ar
    56   26   32 1 
    57   27   28 ar
    58   27   53 1 
    59   28   54 1 
@<TRIPOS>SUBSTRUCTURE
1 MOL         1
@<TRIPOS>MOLECULE
query molecule
   55    59     1     0     0
SMALL
NO_CHARGE

@<TRIPOS>ATOM
      1 N         -38.5280  -35.3665   17.6355 N.am      1 MOL    -0.2945
      2 N         -38.8331  -36.5272   15.2305 N.am      1 MOL    -0.2983
      3 N         -31.4610  -35.1519   16.8814 N.ar      1 MOL    -0.1750
      4 N         -30.6204  -36.1782   16.8014 N.ar      1 MOL    -0.2425
      5 C         -30.9449  -37.3122   16.0300 C.ar      1 MOL     0.2725
      6 C         -32.1868  -37.3378   15.3614 C.ar      1 MOL     0.0496
      7 C         -32.5873  -38.4446   14.6121 C.ar      1 MOL     0.0138
      8 C         -33.8087  -38.4555   13.9496 C.ar      1 MOL     0.0008
      9 C         -34.6541  -37.3513   14.0342 C.ar      1 MOL     0.0007
     10 C         -34.2773  -36.2387   14.7847 C.ar      1 MOL     0.0103
     11 C         -33.0490  -36.2082   15.4621 C.ar      1 MOL     0.0106
     12 C         -32.6522  -35.0959   16.2220 C.ar      1 MOL     0.0736
     13 C         -33.4748  -33.8555   16.3003 C.3       1 MOL     0.0925
     14 C         -34.3807  -33.8061   17.4666 C.ar      1 MOL    -0.0406
     15 C         -35.7430  -34.0924   17.3099 C.ar      1 MOL     0.0196
     16 C         -36.6307  -33.9864   18.3917 C.ar      1 MOL     0.0723
     17 C         -38.0828  -34.2374   18.2328 C.2       1 MOL     0.2495
     18 C         -39.9146  -35.4086   17.1611 C.3       1 MOL     0.1268
     19 C         -40.0917  -36.3516   15.9334 C.3       1 MOL     0.1265
     20 C         -37.7030  -37.0310   16.0115 C.3       1 MOL     0.1265
     21 C         -37.7394  -36.5800   17.4988 C.3       1 MOL     0.1268
     22 C         -38.6563  -36.3136   13.8950 C.2       1 MOL     0.2187
     23 C         -39.8180  -35.8311   13.1070 C.3       1 MOL     0.0752
     24 C         -40.4052  -36.9459   12.3113 C.3       1 MOL     0.0134
     25 C         -39.6033  -35.8717   11.6353 C.3       1 MOL     0.0134
     26 C         -36.1239  -33.6025   19.6390 C.ar      1 MOL     0.1355
     27 C         -34.7647  -33.3312   19.8084 C.ar      1 MOL     0.0392
     28 C         -33.8919  -33.4319   18.7219 C.ar      1 MOL     0.0066
     29 O         -30.1155  -38.2409   15.9874 O.2       1 MOL    -0.2658
     30 O         -37.5611  -36.4683   13.3408 O.2       1 MOL    -0.2753
     31 O         -38.8436  -33.3357   18.6130 O.2       1 MOL    -0.2699
     32 F         -36.9489  -33.4864   20.7085 F         1 MOL    -0.2047
     33 H         -31.9296  -39.3030   14.5386 H         1 MOL     0.0625
     34 H         -34.1067  -39.3173   13.3714 H         1 MOL     0.0618
     35 H         -35.6051  -37.3546   13.5207 H         1 MOL     0.0618
     36 H         -34.9410  -35.3872   14.8503 H         1 MOL     0.0624
     37 H         -34.0859  -33.7854   15.3804 H         1 MOL     0.0377
     38 H         -32.7865  -32.9895   16.3655 H         1 MOL     0.0377
     39 H         -36.1174  -34.3894   16.3399 H         1 MOL     0.0629
     40 H         -40.2165  -34.3681   16.8894 H         1 MOL     0.0480
     41 H         -40.5771  -35.7450   17.9928 H         1 MOL     0.0480
     42 H         -40.8798  -35.9960   15.2378 H         1 MOL     0.0480
     43 H         -40.3990  -37.3600   16.3123 H         1 MOL     0.0480
     44 H         -36.7644  -36.6974   15.5147 H         1 MOL     0.0480
     45 H         -37.7160  -38.1545   15.9818 H         1 MOL     0.0480
     46 H         -36.7123  -36.4024   17.8874 H         1 MOL     0.0480
     47 H         -38.2162  -37.3729   18.1247 H         1 MOL     0.0480
     48 H         -40.4316  -35.1052   13.5723 H         1 MOL     0.0394
     49 H         -41.4724  -36.9236   12.1250 H         1 MOL     0.0273
     50 H         -39.9323  -37.9157   12.4003 H         1 MOL     0.0273
     51 H         -40.1513  -35.1543   11.0369 H         1 MOL     0.0273
     52 H         -38.6044  -36.1334   11.3074 H         1 MOL     0.0273
     53 H         -34.3946  -33.0382   20.7792 H         1 MOL     0.0646
     54 H         -32.8426  -33.2117   18.8508 H         1 MOL     0.0621
     55 H         -29.7388  -36.1938   17.2815 H         1 MOL     0.1921
@<TRIPOS>BOND
     1    1   18 1 
     2    1   21 1 
     3    1   17 am
     4    2   20 1 
     5    2   22 am
     6    2   19 1 
     7    3    4 ar
     8    3   12 ar
     9    4   55 1 
    10    4    5 ar
    11    5    6 ar
    12    5   29 2 
    13    6    7 ar
    14    6   11 ar
    15    7    8 ar
    16    7   33 1 
    17    8    9 ar
    18    8   34 1 
    19    9   10 ar
    20    9   35 1 
    21   10   11 ar
    22   10   36 1 
    23   11   12 ar
    24   12   13 1 
    25   13   14 1 
    26   13   37 1 
    27   13   38 1 
    28   14   15 ar
    29   14   28 ar
    30   15   16 ar
    31   15   39 1 
    32   16   17 1 
    33   16   26 ar
    34   17   31 2 
    35   18   19 1 
    36   18   40 1 
    37   18   41 1 
    38   19   42 1 
    39   19   43 1 
    40   20   21 1 
    41   20   44 1 
    42   20   45 1 
    43   21   46 1 
    44   21   47 1 
    45   22   23 1 
    46   22   30 2 
    47   23   24 1 
    48   23   25 1 
    49   23   48 1 
    50   24   25 1 
    51   24   49 1 
    52   24   50 1 
    53   25   51 1 
    54   25   52 1 
    55   26   27 ar
    56   26   32 1 
    57   27   28 ar
    58   27   53 1 
    59   28   54 1 
@<TRIPOS>SUBSTRUCTURE
1 MOL         1
@<TRIPOS>MOLECULE
query molecule
   55    59     1     0     0
SMALL
NO_CHARGE

@<TRIPOS>ATOM
      1 N         -42.6664  -61.5597    5.6412 N.am      1 MOL    -0.2945
      2 N         -40.2727  -60.0292    5.9022 N.am      1 MOL    -0.2983
      3 N         -47.1322  -61.7378   11.7689 N.ar      1 MOL    -0.1750
      4 N         -48.0377  -60.9363   12.3152 N.ar      1 MOL    -0.2425
      5 C         -47.9626  -59.5352   12.1503 C.ar      1 MOL     0.2725
      6 C         -46.8560  -59.0128   11.4444 C.ar      1 MOL     0.0496
      7 C         -46.7297  -57.6457   11.2173 C.ar      1 MOL     0.0138
      8 C         -45.6046  -57.1235   10.5776 C.ar      1 MOL     0.0008
      9 C         -44.5823  -57.9773   10.1761 C.ar      1 MOL     0.0007
     10 C         -44.7122  -59.3553   10.3539 C.ar      1 MOL     0.0103
     11 C         -45.8559  -59.8983   10.9562 C.ar      1 MOL     0.0106
     12 C         -46.0544  -61.2831   11.0647 C.ar      1 MOL     0.0736
     13 C         -45.1369  -62.2677   10.4055 C.3       1 MOL     0.0925
     14 C         -45.4840  -62.4338    8.9600 C.ar      1 MOL    -0.0406
     15 C         -44.4494  -62.4618    8.0166 C.ar      1 MOL     0.0196
     16 C         -44.7082  -62.5538    6.6393 C.ar      1 MOL     0.0723
     17 C         -43.6218  -62.5270    5.6226 C.2       1 MOL     0.2495
     18 C         -41.7996  -61.3834    4.4673 C.3       1 MOL     0.1268
     19 C         -40.3270  -60.9857    4.8158 C.3       1 MOL     0.1265
     20 C         -41.0144  -60.4265    7.0793 C.3       1 MOL     0.1265
     21 C         -42.5068  -60.5910    6.7134 C.3       1 MOL     0.1268
     22 C         -39.5169  -58.9061    5.9648 C.2       1 MOL     0.2187
     23 C         -38.8811  -58.4518    4.7120 C.3       1 MOL     0.0752
     24 C         -37.8707  -57.3873    4.8845 C.3       1 MOL     0.0134
     25 C         -39.2776  -57.0300    4.4853 C.3       1 MOL     0.0134
     26 C         -46.0447  -62.6748    6.2261 C.ar      1 MOL     0.1355
     27 C         -47.0890  -62.6669    7.1527 C.ar      1 MOL     0.0392
     28 C         -46.8068  -62.5451    8.5138 C.ar      1 MOL     0.0066
     29 O         -48.8696  -58.8402   12.6282 O.2       1 MOL    -0.2658
     30 O         -39.3567  -58.2618    7.0155 O.2       1 MOL    -0.2753
     31 O         -43.6857  -63.3830    4.7310 O.2       1 MOL    -0.2699
     32 F         -46.3522  -62.7947    4.9105 F         1 MOL    -0.2047
     33 H         -47.5117  -56.9758   11.5496 H         1 MOL     0.0625
     34 H         -45.5187  -56.0610   10.4138 H         1 MOL     0.0618
     35 H         -43.6917  -57.5708    9.7251 H         1 MOL     0.0618
     36 H         -43.9217  -60.0103   10.0148 H         1 MOL     0.0624
     37 H         -45.2299  -63.2416   10.9140 H         1 MOL     0.0377
     38 H         -44.1021  -61.8852   10.4769 H         1 MOL     0.0377
     39 H         -43.4241  -62.3915    8.3580 H         1 MOL     0.0629
     40 H         -42.2283  -60.5321    3.8736 H         1 MOL     0.0480
     41 H         -41.8414  -62.2908    3.8305 H         1 MOL     0.0480
     42 H         -39.7891  -60.5775    3.9327 H         1 MOL     0.0480
     43 H         -39.7836  -61.9048    5.1525 H         1 MOL     0.0480
     44 H         -40.8772  -59.6603    7.8755 H         1 MOL     0.0480
     45 H         -40.5985  -61.3912    7.4553 H         1 MOL     0.0480
     46 H         -42.9157  -59.6105    6.3738 H         1 MOL     0.0480
     47 H         -43.0980  -60.9239    7.5970 H         1 MOL     0.0480
     48 H         -38.8637  -59.1482    3.9164 H         1 MOL     0.0394
     49 H         -37.1178  -57.2972    4.1095 H         1 MOL     0.0273
     50 H         -37.5796  -57.1378    5.8961 H         1 MOL     0.0273
     51 H         -39.4413  -56.7289    3.4575 H         1 MOL     0.0273
     52 H         -39.8867  -56.5566    5.2455 H         1 MOL     0.0273
     53 H         -48.1117  -62.7530    6.8188 H         1 MOL     0.0646
     54 H         -47.6157  -62.5301    9.2307 H         1 MOL     0.0621
     55 H         -48.8076  -61.2837   12.8618 H         1 MOL     0.1921
@<TRIPOS>BOND
     1    1   18 1 
     2    1   21 1 
     3    1   17 am
     4    2   20 1 
     5    2   22 am
     6    2   19 1 
     7    3    4 ar
     8    3   12 ar
     9    4   55 1 
    10    4    5 ar
    11    5    6 ar
    12    5   29 2 
    13    6    7 ar
    14    6   11 ar
    15    7    8 ar
    16    7   33 1 
    17    8    9 ar
    18    8   34 1 
    19    9   10 ar
    20    9   35 1 
    21   10   11 ar
    22   10   36 1 
    23   11   12 ar
    24   12   13 1 
    25   13   14 1 
    26   13   37 1 
    27   13   38 1 
    28   14   15 ar
    29   14   28 ar
    30   15   16 ar
    31   15   39 1 
    32   16   17 1 
    33   16   26 ar
    34   17   31 2 
    35   18   19 1 
    36   18   40 1 
    37   18   41 1 
    38   19   42 1 
    39   19   43 1 
    40   20   21 1 
    41   20   44 1 
    42   20   45 1 
    43   21   46 1 
    44   21   47 1 
    45   22   23 1 
    46   22   30 2 
    47   23   24 1 
    48   23   25 1 
    49   23   48 1 
    50   24   25 1 
    51   24   49 1 
    52   24   50 1 
    53   25   51 1 
    54   25   52 1 
    55   26   27 ar
    56   26   32 1 
    57   27   28 ar
    58   27   53 1 
    59   28   54 1 
@<TRIPOS>SUBSTRUCTURE
1 MOL         1
@<TRIPOS>MOLECULE
query molecule
   55    59     1     0     0
SMALL
NO_CHARGE

@<TRIPOS>ATOM
      1 N         -16.4861  -45.8011   -8.7717 N.am      1 MOL    -0.2945
      2 N         -17.6129  -48.2197   -8.4368 N.am      1 MOL    -0.2983
      3 N         -22.0746  -42.3475  -10.1300 N.ar      1 MOL    -0.1750
      4 N         -23.0602  -41.9491   -9.3325 N.ar      1 MOL    -0.2425
      5 C         -24.1190  -42.8230   -9.0111 C.ar      1 MOL     0.2725
      6 C         -24.0861  -44.1349   -9.5300 C.ar      1 MOL     0.0496
      7 C         -25.1033  -45.0456   -9.2337 C.ar      1 MOL     0.0138
      8 C         -25.0733  -46.3373   -9.7548 C.ar      1 MOL     0.0008
      9 C         -24.0158  -46.7301  -10.5731 C.ar      1 MOL     0.0007
     10 C         -22.9880  -45.8333  -10.8711 C.ar      1 MOL     0.0103
     11 C         -22.9986  -44.5237  -10.3631 C.ar      1 MOL     0.0106
     12 C         -21.9754  -43.6008  -10.6613 C.ar      1 MOL     0.0736
     13 C         -20.8314  -43.9779  -11.5546 C.3       1 MOL     0.0925
     14 C         -19.5130  -43.4972  -11.0748 C.ar      1 MOL    -0.0406
     15 C         -18.7595  -44.2400  -10.1612 C.ar      1 MOL     0.0196
     16 C         -17.5272  -43.7614   -9.6884 C.ar      1 MOL     0.0723
     17 C         -16.7551  -44.4849   -8.6569 C.2       1 MOL     0.2495
     18 C         -16.0068  -46.5400   -7.5958 C.3       1 MOL     0.1268
     19 C         -16.4108  -48.0544   -7.6390 C.3       1 MOL     0.1265
     20 C         -17.5018  -47.7938   -9.8417 C.3       1 MOL     0.1265
     21 C         -16.5797  -46.5444  -10.0182 C.3       1 MOL     0.1268
     22 C         -18.7979  -48.7534   -8.0242 C.2       1 MOL     0.2187
     23 C         -18.9351  -49.2264   -6.6304 C.3       1 MOL     0.0752
     24 C         -18.6461  -50.6964   -6.6154 C.3       1 MOL     0.0134
     25 C         -20.0412  -50.1977   -6.3918 C.3       1 MOL     0.0134
     26 C         -17.0414  -42.5447  -10.1803 C.ar      1 MOL     0.1355
     27 C         -17.7730  -41.8061  -11.1106 C.ar      1 MOL     0.0392
     28 C         -19.0086  -42.2816  -11.5556 C.ar      1 MOL     0.0066
     29 O         -25.0316  -42.3906   -8.2877 O.2       1 MOL    -0.2658
     30 O         -19.7764  -48.8368   -8.7825 O.2       1 MOL    -0.2753
     31 O         -16.4474  -43.8112   -7.6662 O.2       1 MOL    -0.2699
     32 F         -15.8460  -42.0645   -9.7594 F         1 MOL    -0.2047
     33 H         -25.9252  -44.7410   -8.5966 H         1 MOL     0.0625
     34 H         -25.8673  -47.0321   -9.5268 H         1 MOL     0.0618
     35 H         -23.9919  -47.7296  -10.9829 H         1 MOL     0.0618
     36 H         -22.1709  -46.1507  -11.5046 H         1 MOL     0.0624
     37 H         -21.0111  -43.5433  -12.5569 H         1 MOL     0.0377
     38 H         -20.7925  -45.0825  -11.6235 H         1 MOL     0.0377
     39 H         -19.1365  -45.1865   -9.7945 H         1 MOL     0.0629
     40 H         -16.4376  -46.0526   -6.6871 H         1 MOL     0.0480
     41 H         -14.8979  -46.4501   -7.5341 H         1 MOL     0.0480
     42 H         -16.5526  -48.4740   -6.6272 H         1 MOL     0.0480
     43 H         -15.5887  -48.6340   -8.1427 H         1 MOL     0.0480
     44 H         -18.5313  -47.5665  -10.2091 H         1 MOL     0.0480
     45 H         -17.1027  -48.6377  -10.4529 H         1 MOL     0.0480
     46 H         -16.9433  -45.8785  -10.8306 H         1 MOL     0.0480
     47 H         -15.5487  -46.8836  -10.2869 H         1 MOL     0.0480
     48 H         -18.5688  -48.5949   -5.8721 H         1 MOL     0.0394
     49 H         -18.1332  -51.0881   -5.7453 H         1 MOL     0.0273
     50 H         -18.4846  -51.1920   -7.5637 H         1 MOL     0.0273
     51 H         -20.4108  -50.2553   -5.3729 H         1 MOL     0.0273
     52 H         -20.7638  -50.3283   -7.1855 H         1 MOL     0.0273
     53 H         -17.3846  -40.8696  -11.4817 H         1 MOL     0.0646
     54 H         -19.5772  -41.7081  -12.2724 H         1 MOL     0.0621
     55 H         -23.1011  -41.0318   -8.9226 H         1 MOL     0.1921
@<TRIPOS>BOND
     1    1   18 1 
     2    1   21 1 
     3    1   17 am
     4    2   20 1 
     5    2   22 am
     6    2   19 1 
     7    3    4 ar
     8    3   12 ar
     9    4   55 1 
    10    4    5 ar
    11    5    6 ar
    12    5   29 2 
    13    6    7 ar
    14    6   11 ar
    15    7    8 ar
    16    7   33 1 
    17    8    9 ar
    18    8   34 1 
    19    9   10 ar
    20    9   35 1 
    21   10   11 ar
    22   10   36 1 
    23   11   12 ar
    24   12   13 1 
    25   13   14 1 
    26   13   37 1 
    27   13   38 1 
    28   14   15 ar
    29   14   28 ar
    30   15   16 ar
    31   15   39 1 
    32   16   17 1 
    33   16   26 ar
    34   17   31 2 
    35   18   19 1 
    36   18   40 1 
    37   18   41 1 
    38   19   42 1 
    39   19   43 1 
    40   20   21 1 
    41   20   44 1 
    42   20   45 1 
    43   21   46 1 
    44   21   47 1 
    45   22   23 1 
    46   22   30 2 
    47   23   24 1 
    48   23   25 1 
    49   23   48 1 
    50   24   25 1 
    51   24   49 1 
    52   24   50 1 
    53   25   51 1 
    54   25   52 1 
    55   26   27 ar
    56   26   32 1 
    57   27   28 ar
    58   27   53 1 
    59   28   54 1 
@<TRIPOS>SUBSTRUCTURE
1 MOL         1
@<TRIPOS>MOLECULE
query molecule
   55    59     1     0     0
SMALL
NO_CHARGE

@<TRIPOS>ATOM
      1 N          -6.3125  -46.8395   -9.7214 N.am      1 MOL    -0.2945
      2 N          -6.1502  -44.4451   -8.1661 N.am      1 MOL    -0.2983
      3 N          -4.5228  -54.0619   -9.1944 N.ar      1 MOL    -0.1750
      4 N          -4.6562  -55.2531   -8.6331 N.ar      1 MOL    -0.2425
      5 C          -4.8907  -56.3849   -9.4369 C.ar      1 MOL     0.2725
      6 C          -4.9866  -56.2009  -10.8324 C.ar      1 MOL     0.0496
      7 C          -5.2633  -57.2913  -11.6602 C.ar      1 MOL     0.0138
      8 C          -5.3430  -57.1218  -13.0406 C.ar      1 MOL     0.0008
      9 C          -5.1446  -55.8594  -13.6027 C.ar      1 MOL     0.0007
     10 C          -4.8778  -54.7600  -12.7819 C.ar      1 MOL     0.0103
     11 C          -4.8011  -54.9004  -11.3850 C.ar      1 MOL     0.0106
     12 C          -4.5385  -53.8062  -10.5343 C.ar      1 MOL     0.0736
     13 C          -4.2670  -52.4432  -11.0936 C.3       1 MOL     0.0925
     14 C          -4.4781  -51.3130  -10.1597 C.ar      1 MOL    -0.0406
     15 C          -5.3481  -50.2765  -10.5253 C.ar      1 MOL     0.0196
     16 C          -5.5827  -49.1883   -9.6620 C.ar      1 MOL     0.0723
     17 C          -6.4923  -48.1172  -10.1317 C.2       1 MOL     0.2495
     18 C          -7.4814  -45.9725   -9.6106 C.3       1 MOL     0.1268
     19 C          -7.4337  -45.1147   -8.3111 C.3       1 MOL     0.1265
     20 C          -4.9903  -45.3397   -8.2228 C.3       1 MOL     0.1265
     21 C          -5.0123  -46.2125   -9.5209 C.3       1 MOL     0.1268
     22 C          -5.9686  -43.1279   -7.8784 C.2       1 MOL     0.2187
     23 C          -7.1374  -42.2160   -7.7808 C.3       1 MOL     0.0752
     24 C          -8.0073  -42.1937   -8.9876 C.3       1 MOL     0.0134
     25 C          -7.0241  -41.0889   -8.7603 C.3       1 MOL     0.0134
     26 C          -4.9592  -49.1842   -8.4166 C.ar      1 MOL     0.1355
     27 C          -4.0677  -50.1903   -8.0518 C.ar      1 MOL     0.0392
     28 C          -3.8170  -51.2381   -8.9291 C.ar      1 MOL     0.0066
     29 O          -5.0030  -57.4905   -8.8809 O.2       1 MOL    -0.2658
     30 O          -4.8426  -42.6488   -7.6524 O.2       1 MOL    -0.2753
     31 O          -7.4558  -48.4627  -10.8351 O.2       1 MOL    -0.2699
     32 F          -5.1985  -48.2053   -7.5190 F         1 MOL    -0.2047
     33 H          -5.4143  -58.2675  -11.2240 H         1 MOL     0.0625
     34 H          -5.5569  -57.9704  -13.6733 H         1 MOL     0.0618
     35 H          -5.1972  -55.7363  -14.6744 H         1 MOL     0.0618
     36 H          -4.7265  -53.7887  -13.2329 H         1 MOL     0.0624
     37 H          -4.9325  -52.2912  -11.9679 H         1 MOL     0.0377
     38 H          -3.2106  -52.4114  -11.4320 H         1 MOL     0.0377
     39 H          -5.8411  -50.3088  -11.4876 H         1 MOL     0.0629
     40 H          -8.4022  -46.5962   -9.6640 H         1 MOL     0.0480
     41 H          -7.4785  -45.2842  -10.4914 H         1 MOL     0.0480
     42 H          -7.5982  -45.7645   -7.4197 H         1 MOL     0.0480
     43 H          -8.2462  -44.3531   -8.3353 H         1 MOL     0.0480
     44 H          -5.0301  -46.0198   -7.3359 H         1 MOL     0.0480
     45 H          -4.0536  -44.7438   -8.1499 H         1 MOL     0.0480
     46 H          -4.2257  -47.0015   -9.4939 H         1 MOL     0.0480
     47 H          -4.8011  -45.5574  -10.4008 H         1 MOL     0.0480
     48 H          -7.5242  -42.0565   -6.8065 H         1 MOL     0.0394
     49 H          -9.0545  -41.9768   -8.8220 H         1 MOL     0.0273
     50 H          -7.7671  -42.9214   -9.7553 H         1 MOL     0.0273
     51 H          -7.4584  -40.1317   -8.4979 H         1 MOL     0.0273
     52 H          -6.1646  -41.0764   -9.4208 H         1 MOL     0.0273
     53 H          -3.5748  -50.1564   -7.0929 H         1 MOL     0.0646
     54 H          -3.1139  -52.0112   -8.6547 H         1 MOL     0.0621
     55 H          -4.6052  -55.4021   -7.6397 H         1 MOL     0.1921
@<TRIPOS>BOND
     1    1   18 1 
     2    1   21 1 
     3    1   17 am
     4    2   20 1 
     5    2   22 am
     6    2   19 1 
     7    3    4 ar
     8    3   12 ar
     9    4   55 1 
    10    4    5 ar
    11    5    6 ar
    12    5   29 2 
    13    6    7 ar
    14    6   11 ar
    15    7    8 ar
    16    7   33 1 
    17    8    9 ar
    18    8   34 1 
    19    9   10 ar
    20    9   35 1 
    21   10   11 ar
    22   10   36 1 
    23   11   12 ar
    24   12   13 1 
    25   13   14 1 
    26   13   37 1 
    27   13   38 1 
    28   14   15 ar
    29   14   28 ar
    30   15   16 ar
    31   15   39 1 
    32   16   17 1 
    33   16   26 ar
    34   17   31 2 
    35   18   19 1 
    36   18   40 1 
    37   18   41 1 
    38   19   42 1 
    39   19   43 1 
    40   20   21 1 
    41   20   44 1 
    42   20   45 1 
    43   21   46 1 
    44   21   47 1 
    45   22   23 1 
    46   22   30 2 
    47   23   24 1 
    48   23   25 1 
    49   23   48 1 
    50   24   25 1 
    51   24   49 1 
    52   24   50 1 
    53   25   51 1 
    54   25   52 1 
    55   26   27 ar
    56   26   32 1 
    57   27   28 ar
    58   27   53 1 
    59   28   54 1 
@<TRIPOS>SUBSTRUCTURE
1 MOL         1
@<TRIPOS>MOLECULE
query molecule
   55    59     1     0     0
SMALL
NO_CHARGE

@<TRIPOS>ATOM
      1 N         -49.2621  -51.0894   23.3425 N.am      1 MOL    -0.2945
      2 N         -48.0620  -51.0496   25.9315 N.am      1 MOL    -0.2983
      3 N         -53.2808  -44.7228   21.9695 N.ar      1 MOL    -0.1750
      4 N         -53.6379  -43.5024   21.5906 N.ar      1 MOL    -0.2425
      5 C         -54.3314  -43.2963   20.3790 C.ar      1 MOL     0.2725
      6 C         -54.5908  -44.4183   19.5628 C.ar      1 MOL     0.0496
      7 C         -55.3194  -44.2870   18.3803 C.ar      1 MOL     0.0138
      8 C         -55.5304  -45.3856   17.5570 C.ar      1 MOL     0.0008
      9 C         -55.0118  -46.6214   17.9138 C.ar      1 MOL     0.0007
     10 C         -54.3203  -46.7807   19.1104 C.ar      1 MOL     0.0103
     11 C         -54.1137  -45.6971   19.9726 C.ar      1 MOL     0.0106
     12 C         -53.5078  -45.8432   21.2288 C.ar      1 MOL     0.0736
     13 C         -53.1561  -47.1598   21.8154 C.3       1 MOL     0.0925
     14 C         -51.7681  -47.6144   21.6404 C.ar      1 MOL    -0.0406
     15 C         -51.5080  -48.9594   21.9513 C.ar      1 MOL     0.0196
     16 C         -50.2243  -49.5003   21.7839 C.ar      1 MOL     0.0723
     17 C         -50.0221  -50.8936   22.2371 C.2       1 MOL     0.2495
     18 C         -49.7087  -52.0400   24.3513 C.3       1 MOL     0.1268
     19 C         -49.4195  -51.5548   25.8058 C.3       1 MOL     0.1265
     20 C         -47.7283  -49.9991   24.9742 C.3       1 MOL     0.1265
     21 C         -47.9577  -50.4947   23.5209 C.3       1 MOL     0.1268
     22 C         -47.1719  -51.3451   26.9143 C.2       1 MOL     0.2187
     23 C         -47.5732  -52.2552   28.0130 C.3       1 MOL     0.0752
     24 C         -46.4445  -53.1667   28.3796 C.3       1 MOL     0.0134
     25 C         -47.6346  -53.6935   27.6394 C.3       1 MOL     0.0134
     26 C         -49.2211  -48.7094   21.2403 C.ar      1 MOL     0.1355
     27 C         -49.4548  -47.3580   20.9852 C.ar      1 MOL     0.0392
     28 C         -50.7224  -46.8080   21.1951 C.ar      1 MOL     0.0066
     29 O         -54.6762  -42.1388   20.0925 O.2       1 MOL    -0.2658
     30 O         -46.0338  -50.8434   26.9630 O.2       1 MOL    -0.2753
     31 O         -50.7260  -51.7726   21.7332 O.2       1 MOL    -0.2699
     32 F         -48.0118  -49.2410   20.9416 F         1 MOL    -0.2047
     33 H         -55.7083  -43.3194   18.0977 H         1 MOL     0.0625
     34 H         -56.0874  -45.2759   16.6396 H         1 MOL     0.0618
     35 H         -55.1561  -47.4725   17.2637 H         1 MOL     0.0618
     36 H         -53.9483  -47.7579   19.3877 H         1 MOL     0.0624
     37 H         -53.8221  -47.9223   21.3616 H         1 MOL     0.0377
     38 H         -53.3557  -47.1052   22.9075 H         1 MOL     0.0377
     39 H         -52.3019  -49.5831   22.3392 H         1 MOL     0.0629
     40 H         -49.1307  -52.9867   24.1898 H         1 MOL     0.0480
     41 H         -50.7832  -52.2716   24.1877 H         1 MOL     0.0480
     42 H         -49.5708  -52.3879   26.5288 H         1 MOL     0.0480
     43 H         -50.1287  -50.7342   26.0697 H         1 MOL     0.0480
     44 H         -46.6732  -49.6812   25.1298 H         1 MOL     0.0480
     45 H         -48.3874  -49.1207   25.1724 H         1 MOL     0.0480
     46 H         -47.1877  -51.2701   23.2835 H         1 MOL     0.0480
     47 H         -47.8319  -49.6625   22.7912 H         1 MOL     0.0480
     48 H         -48.2025  -51.8363   28.7567 H         1 MOL     0.0394
     49 H         -46.3662  -53.4656   29.4175 H         1 MOL     0.0273
     50 H         -45.5288  -53.0714   27.8087 H         1 MOL     0.0273
     51 H         -48.3308  -54.3082   28.1991 H         1 MOL     0.0273
     52 H         -47.5140  -53.9200   26.5887 H         1 MOL     0.0273
     53 H         -48.6554  -46.7365   20.6068 H         1 MOL     0.0646
     54 H         -50.8979  -45.7621   20.9920 H         1 MOL     0.0621
     55 H         -53.4337  -42.6858   22.1407 H         1 MOL     0.1921
@<TRIPOS>BOND
     1    1   18 1 
     2    1   21 1 
     3    1   17 am
     4    2   20 1 
     5    2   22 am
     6    2   19 1 
     7    3    4 ar
     8    3   12 ar
     9    4   55 1 
    10    4    5 ar
    11    5    6 ar
    12    5   29 2 
    13    6    7 ar
    14    6   11 ar
    15    7    8 ar
    16    7   33 1 
    17    8    9 ar
    18    8   34 1 
    19    9   10 ar
    20    9   35 1 
    21   10   11 ar
    22   10   36 1 
    23   11   12 ar
    24   12   13 1 
    25   13   14 1 
    26   13   37 1 
    27   13   38 1 
    28   14   15 ar
    29   14   28 ar
    30   15   16 ar
    31   15   39 1 
    32   16   17 1 
    33   16   26 ar
    34   17   31 2 
    35   18   19 1 
    36   18   40 1 
    37   18   41 1 
    38   19   42 1 
    39   19   43 1 
    40   20   21 1 
    41   20   44 1 
    42   20   45 1 
    43   21   46 1 
    44   21   47 1 
    45   22   23 1 
    46   22   30 2 
    47   23   24 1 
    48   23   25 1 
    49   23   48 1 
    50   24   25 1 
    51   24   49 1 
    52   24   50 1 
    53   25   51 1 
    54   25   52 1 
    55   26   27 ar
    56   26   32 1 
    57   27   28 ar
    58   27   53 1 
    59   28   54 1 
@<TRIPOS>SUBSTRUCTURE
1 MOL         1
@<TRIPOS>MOLECULE
query molecule
   55    59     1     0     0
SMALL
NO_CHARGE

@<TRIPOS>ATOM
      1 N         -42.3426  -63.5887    2.9013 N.am      1 MOL    -0.2945
      2 N         -44.4148  -64.7240    1.3325 N.am      1 MOL    -0.2983
      3 N         -44.8869  -61.5631    9.4713 N.ar      1 MOL    -0.1750
      4 N         -45.6172  -60.6165   10.0412 N.ar      1 MOL    -0.2425
      5 C         -46.9790  -60.4782    9.7064 C.ar      1 MOL     0.2725
      6 C         -47.5268  -61.3488    8.7348 C.ar      1 MOL     0.0496
      7 C         -48.8825  -61.2798    8.3953 C.ar      1 MOL     0.0138
      8 C         -49.4050  -62.1140    7.4083 C.ar      1 MOL     0.0008
      9 C         -48.5691  -63.0087    6.7407 C.ar      1 MOL     0.0007
     10 C         -47.2151  -63.0942    7.0744 C.ar      1 MOL     0.0103
     11 C         -46.6719  -62.2947    8.0929 C.ar      1 MOL     0.0106
     12 C         -45.3284  -62.4065    8.4934 C.ar      1 MOL     0.0736
     13 C         -44.3930  -63.4234    7.9201 C.3       1 MOL     0.0925
     14 C         -43.2414  -62.8510    7.1705 C.ar      1 MOL    -0.0406
     15 C         -42.9259  -63.3380    5.8907 C.ar      1 MOL     0.0196
     16 C         -41.8164  -62.8422    5.1871 C.ar      1 MOL     0.0723
     17 C         -41.4227  -63.3831    3.8666 C.2       1 MOL     0.2495
     18 C         -41.9945  -64.4740    1.7932 C.3       1 MOL     0.1268
     19 C         -43.1634  -65.4519    1.4829 C.3       1 MOL     0.1265
     20 C         -44.7790  -63.8623    2.4576 C.3       1 MOL     0.1265
     21 C         -43.6145  -62.8935    2.8142 C.3       1 MOL     0.1268
     22 C         -45.3245  -64.9325    0.3420 C.2       1 MOL     0.2187
     23 C         -44.9913  -65.8483   -0.7818 C.3       1 MOL     0.0752
     24 C         -43.7116  -65.4959   -1.4689 C.3       1 MOL     0.0134
     25 C         -45.0185  -65.1554   -2.1026 C.3       1 MOL     0.0134
     26 C         -41.0411  -61.8289    5.7635 C.ar      1 MOL     0.1355
     27 C         -41.3465  -61.3323    7.0277 C.ar      1 MOL     0.0392
     28 C         -42.4349  -61.8499    7.7268 C.ar      1 MOL     0.0066
     29 O         -47.6126  -59.5521   10.2347 O.2       1 MOL    -0.2658
     30 O         -46.4510  -64.4062    0.3671 O.2       1 MOL    -0.2753
     31 O         -40.2308  -63.6946    3.7336 O.2       1 MOL    -0.2699
     32 F         -39.9793  -61.3135    5.0975 F         1 MOL    -0.2047
     33 H         -49.5283  -60.5734    8.8994 H         1 MOL     0.0625
     34 H         -50.4551  -62.0660    7.1616 H         1 MOL     0.0618
     35 H         -48.9744  -63.6386    5.9612 H         1 MOL     0.0618
     36 H         -46.5810  -63.7899    6.5413 H         1 MOL     0.0624
     37 H         -44.9644  -64.0860    7.2425 H         1 MOL     0.0377
     38 H         -43.9890  -64.0192    8.7645 H         1 MOL     0.0377
     39 H         -43.5409  -64.1119    5.4515 H         1 MOL     0.0629
     40 H         -41.0640  -65.0311    2.0414 H         1 MOL     0.0480
     41 H         -41.7889  -63.8428    0.8944 H         1 MOL     0.0480
     42 H         -43.2816  -66.1962    2.3050 H         1 MOL     0.0480
     43 H         -42.9607  -66.0069    0.5396 H         1 MOL     0.0480
     44 H         -44.9930  -64.5185    3.3353 H         1 MOL     0.0480
     45 H         -45.7098  -63.3035    2.2120 H         1 MOL     0.0480
     46 H         -43.8129  -62.3701    3.7761 H         1 MOL     0.0480
     47 H         -43.5302  -62.1161    2.0164 H         1 MOL     0.0480
     48 H         -45.3168  -66.8515   -0.6725 H         1 MOL     0.0394
     49 H         -43.1339  -66.3194   -1.8656 H         1 MOL     0.0273
     50 H         -43.1596  -64.6899   -0.9978 H         1 MOL     0.0273
     51 H         -45.2572  -65.7454   -2.9775 H         1 MOL     0.0273
     52 H         -45.2948  -64.1095   -2.1060 H         1 MOL     0.0273
     53 H         -40.7433  -60.5522    7.4656 H         1 MOL     0.0646
     54 H         -42.6627  -61.4720    8.7137 H         1 MOL     0.0621
     55 H         -45.2432  -59.9702   10.7126 H         1 MOL     0.1921
@<TRIPOS>BOND
     1    1   18 1 
     2    1   21 1 
     3    1   17 am
     4    2   20 1 
     5    2   22 am
     6    2   19 1 
     7    3    4 ar
     8    3   12 ar
     9    4   55 1 
    10    4    5 ar
    11    5    6 ar
    12    5   29 2 
    13    6    7 ar
    14    6   11 ar
    15    7    8 ar
    16    7   33 1 
    17    8    9 ar
    18    8   34 1 
    19    9   10 ar
    20    9   35 1 
    21   10   11 ar
    22   10   36 1 
    23   11   12 ar
    24   12   13 1 
    25   13   14 1 
    26   13   37 1 
    27   13   38 1 
    28   14   15 ar
    29   14   28 ar
    30   15   16 ar
    31   15   39 1 
    32   16   17 1 
    33   16   26 ar
    34   17   31 2 
    35   18   19 1 
    36   18   40 1 
    37   18   41 1 
    38   19   42 1 
    39   19   43 1 
    40   20   21 1 
    41   20   44 1 
    42   20   45 1 
    43   21   46 1 
    44   21   47 1 
    45   22   23 1 
    46   22   30 2 
    47   23   24 1 
    48   23   25 1 
    49   23   48 1 
    50   24   25 1 
    51   24   49 1 
    52   24   50 1 
    53   25   51 1 
    54   25   52 1 
    55   26   27 ar
    56   26   32 1 
    57   27   28 ar
    58   27   53 1 
    59   28   54 1 
@<TRIPOS>SUBSTRUCTURE
1 MOL         1
@<TRIPOS>MOLECULE
query molecule
   55    59     1     0     0
SMALL
NO_CHARGE

@<TRIPOS>ATOM
      1 N         -40.4817  -35.1902    9.5444 N.am      1 MOL    -0.2945
      2 N         -39.3767  -35.0722   12.1698 N.am      1 MOL    -0.2983
      3 N         -39.2453  -30.4802    9.4046 N.ar      1 MOL    -0.1750
      4 N         -39.0114  -29.9165   10.5892 N.ar      1 MOL    -0.2425
      5 C         -38.1979  -28.7706   10.6890 C.ar      1 MOL     0.2725
      6 C         -37.7531  -28.1715    9.5028 C.ar      1 MOL     0.0496
      7 C         -36.9211  -27.0593    9.5462 C.ar      1 MOL     0.0138
      8 C         -36.5505  -26.4362    8.3646 C.ar      1 MOL     0.0008
      9 C         -37.0483  -26.8814    7.1519 C.ar      1 MOL     0.0007
     10 C         -37.8329  -28.0281    7.1092 C.ar      1 MOL     0.0103
     11 C         -38.1404  -28.7394    8.2661 C.ar      1 MOL     0.0106
     12 C         -38.7691  -29.9968    8.2252 C.ar      1 MOL     0.0736
     13 C         -38.8341  -30.7476    6.9359 C.3       1 MOL     0.0925
     14 C         -39.8673  -31.7860    6.8457 C.ar      1 MOL    -0.0406
     15 C         -39.7555  -33.0035    7.5237 C.ar      1 MOL     0.0196
     16 C         -40.7816  -33.9583    7.4445 C.ar      1 MOL     0.0723
     17 C         -40.7161  -35.2288    8.2100 C.2       1 MOL     0.2495
     18 C         -40.1661  -36.4355   10.2336 C.3       1 MOL     0.1268
     19 C         -39.1162  -36.2527   11.3599 C.3       1 MOL     0.1265
     20 C         -39.6124  -33.8268   11.4412 C.3       1 MOL     0.1265
     21 C         -40.7058  -34.0066   10.3575 C.3       1 MOL     0.1268
     22 C         -39.1030  -34.9819   13.5014 C.2       1 MOL     0.2187
     23 C         -38.6482  -36.1983   14.2119 C.3       1 MOL     0.0752
     24 C         -39.7311  -36.6563   15.1223 C.3       1 MOL     0.0134
     25 C         -38.4958  -36.0192   15.6802 C.3       1 MOL     0.0134
     26 C         -41.8885  -33.6972    6.6271 C.ar      1 MOL     0.1355
     27 C         -41.9909  -32.4959    5.9243 C.ar      1 MOL     0.0392
     28 C         -40.9828  -31.5381    6.0384 C.ar      1 MOL     0.0066
     29 O         -37.8339  -28.3968   11.8182 O.2       1 MOL    -0.2658
     30 O         -39.1838  -33.9147   14.1305 O.2       1 MOL    -0.2753
     31 O         -40.8732  -36.2906    7.5922 O.2       1 MOL    -0.2699
     32 F         -42.8837  -34.6101    6.5116 F         1 MOL    -0.2047
     33 H         -36.5762  -26.6753   10.4939 H         1 MOL     0.0625
     34 H         -35.8953  -25.5770    8.3919 H         1 MOL     0.0618
     35 H         -36.8151  -26.3467    6.2428 H         1 MOL     0.0618
     36 H         -38.1846  -28.3874    6.1522 H         1 MOL     0.0624
     37 H         -37.8485  -31.2368    6.7797 H         1 MOL     0.0377
     38 H         -39.0081  -30.0181    6.1184 H         1 MOL     0.0377
     39 H         -38.8780  -33.2045    8.1221 H         1 MOL     0.0629
     40 H         -39.8238  -37.1897    9.4872 H         1 MOL     0.0480
     41 H         -41.1153  -36.8184   10.6854 H         1 MOL     0.0480
     42 H         -38.1041  -36.1341   10.9008 H         1 MOL     0.0480
     43 H         -39.0906  -37.1523   12.0161 H         1 MOL     0.0480
     44 H         -38.6513  -33.5229   10.9625 H         1 MOL     0.0480
     45 H         -39.9056  -33.0309   12.1635 H         1 MOL     0.0480
     46 H         -40.7535  -33.1140    9.6914 H         1 MOL     0.0480
     47 H         -41.7014  -34.1165   10.8523 H         1 MOL     0.0480
     48 H         -38.0746  -36.8863   13.6506 H         1 MOL     0.0394
     49 H         -39.8261  -37.7284   15.2627 H         1 MOL     0.0273
     50 H         -40.6388  -36.0694   15.1663 H         1 MOL     0.0273
     51 H         -37.8090  -36.6840   16.1895 H         1 MOL     0.0273
     52 H         -38.6155  -35.0213   16.0831 H         1 MOL     0.0273
     53 H         -42.8491  -32.3047    5.2978 H         1 MOL     0.0646
     54 H         -41.0605  -30.6035    5.5021 H         1 MOL     0.0621
     55 H         -39.3902  -30.2859   11.4431 H         1 MOL     0.1921
@<TRIPOS>BOND
     1    1   18 1 
     2    1   21 1 
     3    1   17 am
     4    2   20 1 
     5    2   22 am
     6    2   19 1 
     7    3    4 ar
     8    3   12 ar
     9    4   55 1 
    10    4    5 ar
    11    5    6 ar
    12    5   29 2 
    13    6    7 ar
    14    6   11 ar
    15    7    8 ar
    16    7   33 1 
    17    8    9 ar
    18    8   34 1 
    19    9   10 ar
    20    9   35 1 
    21   10   11 ar
    22   10   36 1 
    23   11   12 ar
    24   12   13 1 
    25   13   14 1 
    26   13   37 1 
    27   13   38 1 
    28   14   15 ar
    29   14   28 ar
    30   15   16 ar
    31   15   39 1 
    32   16   17 1 
    33   16   26 ar
    34   17   31 2 
    35   18   19 1 
    36   18   40 1 
    37   18   41 1 
    38   19   42 1 
    39   19   43 1 
    40   20   21 1 
    41   20   44 1 
    42   20   45 1 
    43   21   46 1 
    44   21   47 1 
    45   22   23 1 
    46   22   30 2 
    47   23   24 1 
    48   23   25 1 
    49   23   48 1 
    50   24   25 1 
    51   24   49 1 
    52   24   50 1 
    53   25   51 1 
    54   25   52 1 
    55   26   27 ar
    56   26   32 1 
    57   27   28 ar
    58   27   53 1 
    59   28   54 1 
@<TRIPOS>SUBSTRUCTURE
1 MOL         1
@<TRIPOS>MOLECULE
query molecule
   55    59     1     0     0
SMALL
NO_CHARGE

@<TRIPOS>ATOM
      1 N         -43.9604  -63.7319    4.1377 N.am      1 MOL    -0.2945
      2 N         -44.7363  -64.6961    1.5587 N.am      1 MOL    -0.2983
      3 N         -44.2079  -59.6027    9.5687 N.ar      1 MOL    -0.1750
      4 N         -44.3391  -58.2940    9.7192 N.ar      1 MOL    -0.2425
      5 C         -45.3696  -57.7659   10.5197 C.ar      1 MOL     0.2725
      6 C         -46.2350  -58.6612   11.1836 C.ar      1 MOL     0.0496
      7 C         -47.2686  -58.2039   12.0040 C.ar      1 MOL     0.0138
      8 C         -48.1280  -59.1033   12.6354 C.ar      1 MOL     0.0008
      9 C         -47.9596  -60.4751   12.4443 C.ar      1 MOL     0.0007
     10 C         -46.9310  -60.9473   11.6284 C.ar      1 MOL     0.0103
     11 C         -46.0495  -60.0603   10.9951 C.ar      1 MOL     0.0106
     12 C         -45.0120  -60.5221   10.1737 C.ar      1 MOL     0.0736
     13 C         -44.7727  -61.9756    9.9109 C.3       1 MOL     0.0925
     14 C         -45.3013  -62.2963    8.5582 C.ar      1 MOL    -0.0406
     15 C         -44.4161  -62.4512    7.4884 C.ar      1 MOL     0.0196
     16 C         -44.8889  -62.6806    6.1802 C.ar      1 MOL     0.0723
     17 C         -43.8764  -62.8117    5.1160 C.2       1 MOL     0.2495
     18 C         -42.9912  -63.6833    3.0375 C.3       1 MOL     0.1268
     19 C         -43.7136  -63.6588    1.6560 C.3       1 MOL     0.1265
     20 C         -45.6208  -64.8875    2.7129 C.3       1 MOL     0.1265
     21 C         -44.8629  -64.8627    4.0745 C.3       1 MOL     0.1268
     22 C         -45.1577  -65.2275    0.3695 C.2       1 MOL     0.2187
     23 C         -44.5252  -64.7346   -0.8790 C.3       1 MOL     0.0752
     24 C         -44.9565  -65.4776   -2.0927 C.3       1 MOL     0.0134
     25 C         -43.6077  -65.7394   -1.4846 C.3       1 MOL     0.0134
     26 C         -46.2633  -62.7275    5.9866 C.ar      1 MOL     0.1355
     27 C         -47.1627  -62.6278    7.0494 C.ar      1 MOL     0.0392
     28 C         -46.6789  -62.4172    8.3405 C.ar      1 MOL     0.0066
     29 O         -45.4754  -56.5331   10.5646 O.2       1 MOL    -0.2658
     30 O         -46.0773  -66.0601    0.3075 O.2       1 MOL    -0.2753
     31 O         -42.9460  -61.9928    5.1805 O.2       1 MOL    -0.2699
     32 F         -46.7656  -62.8566    4.7419 F         1 MOL    -0.2047
     33 H         -47.4055  -57.1412   12.1480 H         1 MOL     0.0625
     34 H         -48.9239  -58.7393   13.2677 H         1 MOL     0.0618
     35 H         -48.6272  -61.1737   12.9282 H         1 MOL     0.0618
     36 H         -46.8094  -62.0128   11.4865 H         1 MOL     0.0624
     37 H         -45.3027  -62.5764   10.6646 H         1 MOL     0.0377
     38 H         -43.6880  -62.1723    9.9280 H         1 MOL     0.0377
     39 H         -43.3512  -62.3851    7.6629 H         1 MOL     0.0629
     40 H         -42.3559  -64.6016    3.1054 H         1 MOL     0.0480
     41 H         -42.3265  -62.8010    3.1691 H         1 MOL     0.0480
     42 H         -42.9836  -63.7844    0.8239 H         1 MOL     0.0480
     43 H         -44.2097  -62.6665    1.5323 H         1 MOL     0.0480
     44 H         -46.1957  -65.8319    2.5815 H         1 MOL     0.0480
     45 H         -46.3558  -64.0430    2.7132 H         1 MOL     0.0480
     46 H         -44.2619  -65.7974    4.1823 H         1 MOL     0.0480
     47 H         -45.5791  -64.8150    4.9254 H         1 MOL     0.0480
     48 H         -44.3054  -63.6970   -0.9071 H         1 MOL     0.0394
     49 H         -44.9785  -64.9258   -3.0237 H         1 MOL     0.0273
     50 H         -45.7115  -66.2421   -1.9495 H         1 MOL     0.0273
     51 H         -42.7572  -65.3599   -2.0388 H         1 MOL     0.0273
     52 H         -43.4808  -66.6768   -0.9579 H         1 MOL     0.0273
     53 H         -48.2254  -62.7072    6.8775 H         1 MOL     0.0646
     54 H         -47.3648  -62.3320    9.1711 H         1 MOL     0.0621
     55 H         -43.7247  -57.6314    9.2793 H         1 MOL     0.1921
@<TRIPOS>BOND
     1    1   18 1 
     2    1   21 1 
     3    1   17 am
     4    2   20 1 
     5    2   22 am
     6    2   19 1 
     7    3    4 ar
     8    3   12 ar
     9    4   55 1 
    10    4    5 ar
    11    5    6 ar
    12    5   29 2 
    13    6    7 ar
    14    6   11 ar
    15    7    8 ar
    16    7   33 1 
    17    8    9 ar
    18    8   34 1 
    19    9   10 ar
    20    9   35 1 
    21   10   11 ar
    22   10   36 1 
    23   11   12 ar
    24   12   13 1 
    25   13   14 1 
    26   13   37 1 
    27   13   38 1 
    28   14   15 ar
    29   14   28 ar
    30   15   16 ar
    31   15   39 1 
    32   16   17 1 
    33   16   26 ar
    34   17   31 2 
    35   18   19 1 
    36   18   40 1 
    37   18   41 1 
    38   19   42 1 
    39   19   43 1 
    40   20   21 1 
    41   20   44 1 
    42   20   45 1 
    43   21   46 1 
    44   21   47 1 
    45   22   23 1 
    46   22   30 2 
    47   23   24 1 
    48   23   25 1 
    49   23   48 1 
    50   24   25 1 
    51   24   49 1 
    52   24   50 1 
    53   25   51 1 
    54   25   52 1 
    55   26   27 ar
    56   26   32 1 
    57   27   28 ar
    58   27   53 1 
    59   28   54 1 
@<TRIPOS>SUBSTRUCTURE
1 MOL         1
@<TRIPOS>MOLECULE
query molecule
   55    59     1     0     0
SMALL
NO_CHARGE

@<TRIPOS>ATOM
      1 N         -15.7972  -35.0644    0.1036 N.am      1 MOL    -0.2945
      2 N         -15.0003  -33.7114   -2.0727 N.am      1 MOL    -0.2983
      3 N         -13.0322  -40.2953   -1.5094 N.ar      1 MOL    -0.1750
      4 N         -11.8016  -40.5878   -1.1173 N.ar      1 MOL    -0.2425
      5 C         -11.5739  -41.7111   -0.2977 C.ar      1 MOL     0.2725
      6 C         -12.6714  -42.5197    0.0571 C.ar      1 MOL     0.0496
      7 C         -12.4977  -43.6865    0.8032 C.ar      1 MOL     0.0138
      8 C         -13.5939  -44.4736    1.1509 C.ar      1 MOL     0.0008
      9 C         -14.8802  -44.0973    0.7583 C.ar      1 MOL     0.0007
     10 C         -15.0674  -42.9385    0.0049 C.ar      1 MOL     0.0103
     11 C         -13.9770  -42.1356   -0.3642 C.ar      1 MOL     0.0106
     12 C         -14.1480  -40.9769   -1.1346 C.ar      1 MOL     0.0736
     13 C         -15.4895  -40.4838   -1.5653 C.3       1 MOL     0.0925
     14 C         -16.0988  -39.5613   -0.5724 C.ar      1 MOL    -0.0406
     15 C         -15.5253  -38.3223   -0.2923 C.ar      1 MOL     0.0196
     16 C         -16.1046  -37.4392    0.6222 C.ar      1 MOL     0.0723
     17 C         -15.4610  -36.1312    0.8695 C.2       1 MOL     0.2495
     18 C         -15.1585  -33.7781    0.3945 C.3       1 MOL     0.1268
     19 C         -14.9986  -32.8895   -0.8767 C.3       1 MOL     0.1265
     20 C         -16.2177  -34.5034   -2.2881 C.3       1 MOL     0.1265
     21 C         -16.7763  -35.1228   -0.9682 C.3       1 MOL     0.1268
     22 C         -14.0606  -33.6733   -3.0533 C.2       1 MOL     0.2187
     23 C         -12.8537  -32.8328   -2.8893 C.3       1 MOL     0.0752
     24 C         -11.6310  -33.5950   -3.3046 C.3       1 MOL     0.0134
     25 C         -11.8862  -33.2839   -1.8590 C.3       1 MOL     0.0134
     26 C         -17.2765  -37.8140    1.2741 C.ar      1 MOL     0.1355
     27 C         -17.8691  -39.0529    1.0105 C.ar      1 MOL     0.0392
     28 C         -17.2800  -39.9246    0.0864 C.ar      1 MOL     0.0066
     29 O         -10.4093  -41.9062    0.0778 O.2       1 MOL    -0.2658
     30 O         -14.2027  -34.2942   -4.1221 O.2       1 MOL    -0.2753
     31 O         -14.6205  -36.0684    1.7726 O.2       1 MOL    -0.2699
     32 F         -17.8575  -36.9787    2.1664 F         1 MOL    -0.2047
     33 H         -11.5033  -43.9789    1.1080 H         1 MOL     0.0625
     34 H         -13.4490  -45.3759    1.7267 H         1 MOL     0.0618
     35 H         -15.7309  -44.7021    1.0364 H         1 MOL     0.0618
     36 H         -16.0656  -42.6552   -0.3031 H         1 MOL     0.0624
     37 H         -16.1625  -41.3512   -1.6964 H         1 MOL     0.0377
     38 H         -15.3783  -39.9379   -2.5215 H         1 MOL     0.0377
     39 H         -14.5954  -38.0436   -0.7800 H         1 MOL     0.0629
     40 H         -14.1566  -33.9860    0.8416 H         1 MOL     0.0480
     41 H         -15.7633  -33.2323    1.1558 H         1 MOL     0.0480
     42 H         -14.0835  -32.2638   -0.8380 H         1 MOL     0.0480
     43 H         -15.8821  -32.2053   -0.9447 H         1 MOL     0.0480
     44 H         -15.9939  -35.3001   -3.0358 H         1 MOL     0.0480
     45 H         -17.0047  -33.8410   -2.7243 H         1 MOL     0.0480
     46 H         -17.0938  -36.1783   -1.1254 H         1 MOL     0.0480
     47 H         -17.6742  -34.5403   -0.6432 H         1 MOL     0.0480
     48 H         -12.9677  -31.8152   -3.1640 H         1 MOL     0.0394
     49 H         -10.8606  -33.0340   -3.8174 H         1 MOL     0.0273
     50 H         -11.7691  -34.6295   -3.6005 H         1 MOL     0.0273
     51 H         -11.2477  -32.5251   -1.4227 H         1 MOL     0.0273
     52 H         -12.1805  -34.1095   -1.2211 H         1 MOL     0.0273
     53 H         -18.7816  -39.3378    1.5141 H         1 MOL     0.0646
     54 H         -17.7406  -40.8794   -0.1231 H         1 MOL     0.0621
     55 H         -10.9820  -40.0559   -1.3643 H         1 MOL     0.1921
@<TRIPOS>BOND
     1    1   18 1 
     2    1   21 1 
     3    1   17 am
     4    2   20 1 
     5    2   22 am
     6    2   19 1 
     7    3    4 ar
     8    3   12 ar
     9    4   55 1 
    10    4    5 ar
    11    5    6 ar
    12    5   29 2 
    13    6    7 ar
    14    6   11 ar
    15    7    8 ar
    16    7   33 1 
    17    8    9 ar
    18    8   34 1 
    19    9   10 ar
    20    9   35 1 
    21   10   11 ar
    22   10   36 1 
    23   11   12 ar
    24   12   13 1 
    25   13   14 1 
    26   13   37 1 
    27   13   38 1 
    28   14   15 ar
    29   14   28 ar
    30   15   16 ar
    31   15   39 1 
    32   16   17 1 
    33   16   26 ar
    34   17   31 2 
    35   18   19 1 
    36   18   40 1 
    37   18   41 1 
    38   19   42 1 
    39   19   43 1 
    40   20   21 1 
    41   20   44 1 
    42   20   45 1 
    43   21   46 1 
    44   21   47 1 
    45   22   23 1 
    46   22   30 2 
    47   23   24 1 
    48   23   25 1 
    49   23   48 1 
    50   24   25 1 
    51   24   49 1 
    52   24   50 1 
    53   25   51 1 
    54   25   52 1 
    55   26   27 ar
    56   26   32 1 
    57   27   28 ar
    58   27   53 1 
    59   28   54 1 
@<TRIPOS>SUBSTRUCTURE
1 MOL         1
@<TRIPOS>MOLECULE
query molecule
   55    59     1     0     0
SMALL
NO_CHARGE

@<TRIPOS>ATOM
      1 N         -50.7608  -68.0141  -10.4004 N.am      1 MOL    -0.2945
      2 N         -52.4233  -69.5821  -12.0199 N.am      1 MOL    -0.2983
      3 N         -45.4983  -68.1212  -13.2334 N.ar      1 MOL    -0.1750
      4 N         -45.1316  -67.3328  -14.2379 N.ar      1 MOL    -0.2425
      5 C         -44.1790  -66.3074  -14.0419 C.ar      1 MOL     0.2725
      6 C         -43.6526  -66.1205  -12.7427 C.ar      1 MOL     0.0496
      7 C         -42.7165  -65.1152  -12.4820 C.ar      1 MOL     0.0138
      8 C         -42.2391  -64.9236  -11.1860 C.ar      1 MOL     0.0008
      9 C         -42.6916  -65.7326  -10.1438 C.ar      1 MOL     0.0007
     10 C         -43.6081  -66.7459  -10.3989 C.ar      1 MOL     0.0103
     11 C         -44.0991  -66.9728  -11.6912 C.ar      1 MOL     0.0106
     12 C         -45.0060  -68.0100  -11.9642 C.ar      1 MOL     0.0736
     13 C         -45.4329  -69.0129  -10.9434 C.3       1 MOL     0.0925
     14 C         -46.3845  -68.4904   -9.9356 C.ar      1 MOL    -0.0406
     15 C         -47.6787  -68.1145  -10.3011 C.ar      1 MOL     0.0196
     16 C         -48.5736  -67.6371   -9.3382 C.ar      1 MOL     0.0723
     17 C         -49.9256  -67.1977   -9.7194 C.2       1 MOL     0.2495
     18 C         -51.9719  -67.4156  -10.9641 C.3       1 MOL     0.1268
     19 C         -52.4943  -68.1501  -12.2301 C.3       1 MOL     0.1265
     20 C         -51.0796  -70.0922  -11.7597 C.3       1 MOL     0.1265
     21 C         -50.5876  -69.4597  -10.4287 C.3       1 MOL     0.1268
     22 C         -53.4719  -70.3961  -11.7329 C.2       1 MOL     0.2187
     23 C         -54.7838  -69.7603  -11.4704 C.3       1 MOL     0.0752
     24 C         -55.0438  -69.8910   -9.9992 C.3       1 MOL     0.0134
     25 C         -55.8459  -70.6790  -10.9948 C.3       1 MOL     0.0134
     26 C         -48.1684  -67.5386   -8.0032 C.ar      1 MOL     0.1355
     27 C         -46.8786  -67.9142   -7.6279 C.ar      1 MOL     0.0392
     28 C         -45.9874  -68.3885   -8.5942 C.ar      1 MOL     0.0066
     29 O         -43.8639  -65.6120  -15.0212 O.2       1 MOL    -0.2658
     30 O         -53.3445  -71.6261  -11.6346 O.2       1 MOL    -0.2753
     31 O         -50.1914  -66.0408   -9.3986 O.2       1 MOL    -0.2699
     32 F         -49.0286  -67.0838   -7.0605 F         1 MOL    -0.2047
     33 H         -42.3660  -64.4823  -13.2824 H         1 MOL     0.0625
     34 H         -41.5153  -64.1467  -10.9859 H         1 MOL     0.0618
     35 H         -42.3275  -65.5769   -9.1375 H         1 MOL     0.0618
     36 H         -43.9518  -67.3727   -9.5871 H         1 MOL     0.0624
     37 H         -44.5280  -69.3751  -10.4185 H         1 MOL     0.0377
     38 H         -45.9237  -69.8532  -11.4741 H         1 MOL     0.0377
     39 H         -47.9868  -68.1908  -11.3338 H         1 MOL     0.0629
     40 H         -51.7899  -66.3353  -11.1670 H         1 MOL     0.0480
     41 H         -52.7764  -67.4874  -10.1902 H         1 MOL     0.0480
     42 H         -51.8499  -67.8979  -13.1076 H         1 MOL     0.0480
     43 H         -53.5364  -67.8538  -12.4754 H         1 MOL     0.0480
     44 H         -50.4154  -69.8316  -12.6132 H         1 MOL     0.0480
     45 H         -51.1231  -71.2015  -11.6718 H         1 MOL     0.0480
     46 H         -49.5326  -69.7155  -10.1985 H         1 MOL     0.0480
     47 H         -51.2259  -69.8810   -9.6116 H         1 MOL     0.0480
     48 H         -54.9702  -68.8457  -11.9648 H         1 MOL     0.0394
     49 H         -55.5451  -69.0717   -9.5010 H         1 MOL     0.0273
     50 H         -54.3249  -70.4591   -9.4209 H         1 MOL     0.0273
     51 H         -56.8738  -70.3596  -11.1225 H         1 MOL     0.0273
     52 H         -55.6407  -71.7390  -11.0693 H         1 MOL     0.0273
     53 H         -46.5722  -67.8394   -6.5953 H         1 MOL     0.0646
     54 H         -44.9872  -68.6788   -8.3046 H         1 MOL     0.0621
     55 H         -45.5097  -67.4247  -15.1651 H         1 MOL     0.1921
@<TRIPOS>BOND
     1    1   18 1 
     2    1   21 1 
     3    1   17 am
     4    2   20 1 
     5    2   22 am
     6    2   19 1 
     7    3    4 ar
     8    3   12 ar
     9    4   55 1 
    10    4    5 ar
    11    5    6 ar
    12    5   29 2 
    13    6    7 ar
    14    6   11 ar
    15    7    8 ar
    16    7   33 1 
    17    8    9 ar
    18    8   34 1 
    19    9   10 ar
    20    9   35 1 
    21   10   11 ar
    22   10   36 1 
    23   11   12 ar
    24   12   13 1 
    25   13   14 1 
    26   13   37 1 
    27   13   38 1 
    28   14   15 ar
    29   14   28 ar
    30   15   16 ar
    31   15   39 1 
    32   16   17 1 
    33   16   26 ar
    34   17   31 2 
    35   18   19 1 
    36   18   40 1 
    37   18   41 1 
    38   19   42 1 
    39   19   43 1 
    40   20   21 1 
    41   20   44 1 
    42   20   45 1 
    43   21   46 1 
    44   21   47 1 
    45   22   23 1 
    46   22   30 2 
    47   23   24 1 
    48   23   25 1 
    49   23   48 1 
    50   24   25 1 
    51   24   49 1 
    52   24   50 1 
    53   25   51 1 
    54   25   52 1 
    55   26   27 ar
    56   26   32 1 
    57   27   28 ar
    58   27   53 1 
    59   28   54 1 
@<TRIPOS>SUBSTRUCTURE
1 MOL         1
@<TRIPOS>MOLECULE
query molecule
   55    59     1     0     0
SMALL
NO_CHARGE

@<TRIPOS>ATOM
      1 N         -38.7971  -26.5125    6.7889 N.am      1 MOL    -0.2945
      2 N         -40.4283  -25.4940    4.6552 N.am      1 MOL    -0.2983
      3 N         -41.1329  -32.5449    6.5566 N.ar      1 MOL    -0.1750
      4 N         -42.2764  -33.2186    6.6177 N.ar      1 MOL    -0.2425
      5 C         -42.4075  -34.3623    7.4367 C.ar      1 MOL     0.2725
      6 C         -41.2877  -34.7818    8.1887 C.ar      1 MOL     0.0496
      7 C         -41.3559  -35.9005    9.0231 C.ar      1 MOL     0.0138
      8 C         -40.2362  -36.3002    9.7500 C.ar      1 MOL     0.0008
      9 C         -39.0384  -35.5999    9.6423 C.ar      1 MOL     0.0007
     10 C         -38.9576  -34.4800    8.8166 C.ar      1 MOL     0.0103
     11 C         -40.0731  -34.0426    8.0855 C.ar      1 MOL     0.0106
     12 C         -40.0249  -32.9039    7.2630 C.ar      1 MOL     0.0736
     13 C         -38.7987  -32.0768    7.1309 C.3       1 MOL     0.0925
     14 C         -38.8220  -30.8553    7.9694 C.ar      1 MOL    -0.0406
     15 C         -38.5042  -29.6333    7.3665 C.ar      1 MOL     0.0196
     16 C         -38.3441  -28.4832    8.1443 C.ar      1 MOL     0.0723
     17 C         -37.9006  -27.2343    7.4976 C.2       1 MOL     0.2495
     18 C         -38.3230  -25.4031    5.9843 C.3       1 MOL     0.1268
     19 C         -38.9924  -25.3037    4.5926 C.3       1 MOL     0.1265
     20 C         -40.9052  -26.6200    5.4635 C.3       1 MOL     0.1265
     21 C         -40.2375  -26.6713    6.8690 C.3       1 MOL     0.1268
     22 C         -41.3178  -24.8714    3.8304 C.2       1 MOL     0.2187
     23 C         -40.8261  -23.8815    2.8361 C.3       1 MOL     0.0752
     24 C         -41.5946  -23.9815    1.5553 C.3       1 MOL     0.0134
     25 C         -40.1903  -24.5014    1.6388 C.3       1 MOL     0.0134
     26 C         -38.5797  -28.5332    9.5128 C.ar      1 MOL     0.1355
     27 C         -38.9877  -29.7261   10.1117 C.ar      1 MOL     0.0392
     28 C         -39.0918  -30.8913    9.3414 C.ar      1 MOL     0.0066
     29 O         -43.5072  -34.9418    7.4532 O.2       1 MOL    -0.2658
     30 O         -42.5416  -25.0753    3.9135 O.2       1 MOL    -0.2753
     31 O         -36.7010  -26.9490    7.5888 O.2       1 MOL    -0.2699
     32 F         -38.4156  -27.4255   10.2715 F         1 MOL    -0.2047
     33 H         -42.2808  -36.4528    9.1052 H         1 MOL     0.0625
     34 H         -40.2989  -37.1648   10.3975 H         1 MOL     0.0618
     35 H         -38.1725  -35.9233   10.2010 H         1 MOL     0.0618
     36 H         -38.0233  -33.9404    8.7407 H         1 MOL     0.0624
     37 H         -38.6903  -31.7743    6.0730 H         1 MOL     0.0377
     38 H         -37.9320  -32.6925    7.4419 H         1 MOL     0.0377
     39 H         -38.3467  -29.5864    6.2986 H         1 MOL     0.0629
     40 H         -37.2151  -25.4644    5.8925 H         1 MOL     0.0480
     41 H         -38.5587  -24.4632    6.5446 H         1 MOL     0.0480
     42 H         -38.5690  -26.1070    3.9401 H         1 MOL     0.0480
     43 H         -38.7665  -24.3248    4.1126 H         1 MOL     0.0480
     44 H         -40.6583  -27.5622    4.9143 H         1 MOL     0.0480
     45 H         -42.0138  -26.5600    5.5522 H         1 MOL     0.0480
     46 H         -40.4728  -27.6250    7.3931 H         1 MOL     0.0480
     47 H         -40.6384  -25.8312    7.4880 H         1 MOL     0.0480
     48 H         -40.5204  -22.9419    3.2175 H         1 MOL     0.0394
     49 H         -41.7498  -23.0689    0.9945 H         1 MOL     0.0273
     50 H         -42.3795  -24.7289    1.5122 H         1 MOL     0.0273
     51 H         -39.4460  -23.9214    1.1052 H         1 MOL     0.0273
     52 H         -40.0739  -25.5780    1.6368 H         1 MOL     0.0273
     53 H         -39.2027  -29.7554   11.1692 H         1 MOL     0.0646
     54 H         -39.3724  -31.8231    9.8116 H         1 MOL     0.0621
     55 H         -43.0875  -32.9446    6.0905 H         1 MOL     0.1921
@<TRIPOS>BOND
     1    1   18 1 
     2    1   21 1 
     3    1   17 am
     4    2   20 1 
     5    2   22 am
     6    2   19 1 
     7    3    4 ar
     8    3   12 ar
     9    4   55 1 
    10    4    5 ar
    11    5    6 ar
    12    5   29 2 
    13    6    7 ar
    14    6   11 ar
    15    7    8 ar
    16    7   33 1 
    17    8    9 ar
    18    8   34 1 
    19    9   10 ar
    20    9   35 1 
    21   10   11 ar
    22   10   36 1 
    23   11   12 ar
    24   12   13 1 
    25   13   14 1 
    26   13   37 1 
    27   13   38 1 
    28   14   15 ar
    29   14   28 ar
    30   15   16 ar
    31   15   39 1 
    32   16   17 1 
    33   16   26 ar
    34   17   31 2 
    35   18   19 1 
    36   18   40 1 
    37   18   41 1 
    38   19   42 1 
    39   19   43 1 
    40   20   21 1 
    41   20   44 1 
    42   20   45 1 
    43   21   46 1 
    44   21   47 1 
    45   22   23 1 
    46   22   30 2 
    47   23   24 1 
    48   23   25 1 
    49   23   48 1 
    50   24   25 1 
    51   24   49 1 
    52   24   50 1 
    53   25   51 1 
    54   25   52 1 
    55   26   27 ar
    56   26   32 1 
    57   27   28 ar
    58   27   53 1 
    59   28   54 1 
@<TRIPOS>SUBSTRUCTURE
1 MOL         1
@<TRIPOS>MOLECULE
query molecule
   55    59     1     0     0
SMALL
NO_CHARGE

@<TRIPOS>ATOM
      1 N         -45.6905  -67.8801   16.8018 N.am      1 MOL    -0.2945
      2 N         -43.1607  -67.3768   18.0597 N.am      1 MOL    -0.2983
      3 N         -46.2208  -62.9522   11.5751 N.ar      1 MOL    -0.1750
      4 N         -46.2610  -61.6724   11.2130 N.ar      1 MOL    -0.2425
      5 C         -47.1922  -61.2128   10.2541 C.ar      1 MOL     0.2725
      6 C         -48.0709  -62.1576    9.6771 C.ar      1 MOL     0.0496
      7 C         -49.0165  -61.7616    8.7262 C.ar      1 MOL     0.0138
      8 C         -49.8744  -62.6985    8.1589 C.ar      1 MOL     0.0008
      9 C         -49.7984  -64.0376    8.5366 C.ar      1 MOL     0.0007
     10 C         -48.8647  -64.4455    9.4924 C.ar      1 MOL     0.0103
     11 C         -47.9869  -63.5223   10.0833 C.ar      1 MOL     0.0106
     12 C         -47.0509  -63.9079   11.0634 C.ar      1 MOL     0.0736
     13 C         -46.9432  -65.3215   11.5487 C.3       1 MOL     0.0925
     14 C         -47.3253  -65.5222   12.9755 C.ar      1 MOL    -0.0406
     15 C         -46.7848  -66.6148   13.6764 C.ar      1 MOL     0.0196
     16 C         -47.0836  -66.8502   15.0341 C.ar      1 MOL     0.0723
     17 C         -46.4550  -68.0206   15.6963 C.2       1 MOL     0.2495
     18 C         -44.9673  -69.0109   17.3830 C.3       1 MOL     0.1268
     19 C         -43.4338  -68.7016   17.5183 C.3       1 MOL     0.1265
     20 C         -43.9942  -66.2822   17.5859 C.3       1 MOL     0.1265
     21 C         -45.4949  -66.6558   17.5325 C.3       1 MOL     0.1268
     22 C         -41.9861  -66.9905   18.6347 C.2       1 MOL     0.2187
     23 C         -41.0841  -68.0315   19.1770 C.3       1 MOL     0.0752
     24 C         -39.7693  -67.4721   19.6072 C.3       1 MOL     0.0134
     25 C         -39.8799  -68.2525   18.3306 C.3       1 MOL     0.0134
     26 C         -47.9710  -65.9831   15.6686 C.ar      1 MOL     0.1355
     27 C         -48.5301  -64.8995   14.9875 C.ar      1 MOL     0.0392
     28 C         -48.2075  -64.6733   13.6493 C.ar      1 MOL     0.0066
     29 O         -47.1933  -60.0037    9.9645 O.2       1 MOL    -0.2658
     30 O         -41.6686  -65.7895   18.7414 O.2       1 MOL    -0.2753
     31 O         -46.6307  -69.1104   15.1341 O.2       1 MOL    -0.2699
     32 F         -48.3205  -66.1809   16.9630 F         1 MOL    -0.2047
     33 H         -49.0916  -60.7219    8.4416 H         1 MOL     0.0625
     34 H         -50.6125  -62.3858    7.4335 H         1 MOL     0.0618
     35 H         -50.4720  -64.7608    8.0994 H         1 MOL     0.0618
     36 H         -48.8235  -65.4848    9.7884 H         1 MOL     0.0624
     37 H         -45.8902  -65.6464   11.4230 H         1 MOL     0.0377
     38 H         -47.6022  -65.9532   10.9203 H         1 MOL     0.0377
     39 H         -46.1074  -67.2867   13.1629 H         1 MOL     0.0629
     40 H         -45.1523  -69.9208   16.7693 H         1 MOL     0.0480
     41 H         -45.3929  -69.1877   18.4025 H         1 MOL     0.0480
     42 H         -43.0016  -68.7296   16.4849 H         1 MOL     0.0480
     43 H         -42.9126  -69.4728   18.1279 H         1 MOL     0.0480
     44 H         -43.6578  -66.0369   16.5465 H         1 MOL     0.0480
     45 H         -43.8192  -65.3855   18.2206 H         1 MOL     0.0480
     46 H         -46.0560  -65.8418   17.0102 H         1 MOL     0.0480
     47 H         -45.9181  -66.7703   18.5549 H         1 MOL     0.0480
     48 H         -41.5527  -68.8279   19.6922 H         1 MOL     0.0394
     49 H         -39.2730  -67.9454   20.4429 H         1 MOL     0.0273
     50 H         -39.6758  -66.3957   19.5114 H         1 MOL     0.0273
     51 H         -39.4339  -69.2402   18.3365 H         1 MOL     0.0273
     52 H         -39.8381  -67.6906   17.4046 H         1 MOL     0.0273
     53 H         -49.2173  -64.2376   15.4928 H         1 MOL     0.0646
     54 H         -48.6432  -63.8358   13.1223 H         1 MOL     0.0621
     55 H         -45.6367  -60.9855   11.6004 H         1 MOL     0.1921
@<TRIPOS>BOND
     1    1   18 1 
     2    1   21 1 
     3    1   17 am
     4    2   20 1 
     5    2   22 am
     6    2   19 1 
     7    3    4 ar
     8    3   12 ar
     9    4   55 1 
    10    4    5 ar
    11    5    6 ar
    12    5   29 2 
    13    6    7 ar
    14    6   11 ar
    15    7    8 ar
    16    7   33 1 
    17    8    9 ar
    18    8   34 1 
    19    9   10 ar
    20    9   35 1 
    21   10   11 ar
    22   10   36 1 
    23   11   12 ar
    24   12   13 1 
    25   13   14 1 
    26   13   37 1 
    27   13   38 1 
    28   14   15 ar
    29   14   28 ar
    30   15   16 ar
    31   15   39 1 
    32   16   17 1 
    33   16   26 ar
    34   17   31 2 
    35   18   19 1 
    36   18   40 1 
    37   18   41 1 
    38   19   42 1 
    39   19   43 1 
    40   20   21 1 
    41   20   44 1 
    42   20   45 1 
    43   21   46 1 
    44   21   47 1 
    45   22   23 1 
    46   22   30 2 
    47   23   24 1 
    48   23   25 1 
    49   23   48 1 
    50   24   25 1 
    51   24   49 1 
    52   24   50 1 
    53   25   51 1 
    54   25   52 1 
    55   26   27 ar
    56   26   32 1 
    57   27   28 ar
    58   27   53 1 
    59   28   54 1 
@<TRIPOS>SUBSTRUCTURE
1 MOL         1
@<TRIPOS>MOLECULE
query molecule
   55    59     1     0     0
SMALL
NO_CHARGE

@<TRIPOS>ATOM
      1 N         -44.7727  -50.8382  -19.2715 N.am      1 MOL    -0.2945
      2 N         -42.7318  -50.3409  -17.3825 N.am      1 MOL    -0.2983
      3 N         -47.8061  -45.2858  -21.8054 N.ar      1 MOL    -0.1750
      4 N         -48.8880  -44.5899  -22.1334 N.ar      1 MOL    -0.2425
      5 C         -48.9675  -43.8642  -23.3361 C.ar      1 MOL     0.2725
      6 C         -47.8164  -43.7862  -24.1452 C.ar      1 MOL     0.0496
      7 C         -47.7943  -43.0172  -25.3128 C.ar      1 MOL     0.0138
      8 C         -46.6365  -42.9553  -26.0918 C.ar      1 MOL     0.0008
      9 C         -45.4939  -43.6602  -25.7107 C.ar      1 MOL     0.0007
     10 C         -45.5034  -44.4248  -24.5450 C.ar      1 MOL     0.0103
     11 C         -46.6525  -44.5033  -23.7428 C.ar      1 MOL     0.0106
     12 C         -46.6751  -45.2753  -22.5676 C.ar      1 MOL     0.0736
     13 C         -45.4876  -46.0801  -22.1445 C.3       1 MOL     0.0925
     14 C         -45.7949  -47.5311  -22.1942 C.ar      1 MOL    -0.0406
     15 C         -45.7015  -48.2763  -21.0169 C.ar      1 MOL     0.0196
     16 C         -46.0060  -49.6375  -21.0076 C.ar      1 MOL     0.0723
     17 C         -45.9398  -50.3653  -19.7350 C.2       1 MOL     0.2495
     18 C         -44.7626  -51.6675  -18.0705 C.3       1 MOL     0.1268
     19 C         -44.0116  -50.9059  -16.9466 C.3       1 MOL     0.1265
     20 C         -42.6428  -49.7610  -18.7347 C.3       1 MOL     0.1265
     21 C         -43.4616  -50.5410  -19.8059 C.3       1 MOL     0.1268
     22 C         -41.8112  -49.8564  -16.4864 C.2       1 MOL     0.2187
     23 C         -42.1320  -49.8787  -15.0379 C.3       1 MOL     0.0752
     24 C         -40.9401  -50.1537  -14.1896 C.3       1 MOL     0.0134
     25 C         -41.9647  -51.2219  -14.4199 C.3       1 MOL     0.0134
     26 C         -46.3958  -50.2619  -22.1882 C.ar      1 MOL     0.1355
     27 C         -46.4776  -49.5335  -23.3777 C.ar      1 MOL     0.0392
     28 C         -46.1756  -48.1670  -23.3807 C.ar      1 MOL     0.0066
     29 O         -50.0622  -43.3627  -23.6296 O.2       1 MOL    -0.2658
     30 O         -40.7564  -49.3127  -16.8497 O.2       1 MOL    -0.2753
     31 O         -47.0077  -50.4916  -19.1324 O.2       1 MOL    -0.2699
     32 F         -46.7018  -51.5806  -22.1931 F         1 MOL    -0.2047
     33 H         -48.6719  -42.4640  -25.6134 H         1 MOL     0.0625
     34 H         -46.6217  -42.3616  -26.9945 H         1 MOL     0.0618
     35 H         -44.6018  -43.6173  -26.3190 H         1 MOL     0.0618
     36 H         -44.6133  -44.9677  -24.2567 H         1 MOL     0.0624
     37 H         -45.2217  -45.8069  -21.1085 H         1 MOL     0.0377
     38 H         -44.6492  -45.8698  -22.8320 H         1 MOL     0.0377
     39 H         -45.3982  -47.7871  -20.1016 H         1 MOL     0.0629
     40 H         -44.2497  -52.6282  -18.3067 H         1 MOL     0.0480
     41 H         -45.8094  -51.8952  -17.7701 H         1 MOL     0.0480
     42 H         -43.8592  -51.5265  -16.0380 H         1 MOL     0.0480
     43 H         -44.6697  -50.0454  -16.6599 H         1 MOL     0.0480
     44 H         -41.5740  -49.6578  -19.0268 H         1 MOL     0.0480
     45 H         -43.0762  -48.7287  -18.6796 H         1 MOL     0.0480
     46 H         -42.9548  -51.5050  -20.0474 H         1 MOL     0.0480
     47 H         -43.5645  -49.9561  -20.7458 H         1 MOL     0.0480
     48 H         -42.8909  -49.2053  -14.7294 H         1 MOL     0.0394
     49 H         -40.9264  -49.6872  -13.2123 H         1 MOL     0.0273
     50 H         -39.9933  -50.2748  -14.7016 H         1 MOL     0.0273
     51 H         -42.6097  -51.4557  -13.5807 H         1 MOL     0.0273
     52 H         -41.6827  -52.0366  -15.0741 H         1 MOL     0.0273
     53 H         -46.7725  -50.0203  -24.2952 H         1 MOL     0.0646
     54 H         -46.2385  -47.6009  -24.2990 H         1 MOL     0.0621
     55 H         -49.7050  -44.5285  -21.5447 H         1 MOL     0.1921
@<TRIPOS>BOND
     1    1   18 1 
     2    1   21 1 
     3    1   17 am
     4    2   20 1 
     5    2   22 am
     6    2   19 1 
     7    3    4 ar
     8    3   12 ar
     9    4   55 1 
    10    4    5 ar
    11    5    6 ar
    12    5   29 2 
    13    6    7 ar
    14    6   11 ar
    15    7    8 ar
    16    7   33 1 
    17    8    9 ar
    18    8   34 1 
    19    9   10 ar
    20    9   35 1 
    21   10   11 ar
    22   10   36 1 
    23   11   12 ar
    24   12   13 1 
    25   13   14 1 
    26   13   37 1 
    27   13   38 1 
    28   14   15 ar
    29   14   28 ar
    30   15   16 ar
    31   15   39 1 
    32   16   17 1 
    33   16   26 ar
    34   17   31 2 
    35   18   19 1 
    36   18   40 1 
    37   18   41 1 
    38   19   42 1 
    39   19   43 1 
    40   20   21 1 
    41   20   44 1 
    42   20   45 1 
    43   21   46 1 
    44   21   47 1 
    45   22   23 1 
    46   22   30 2 
    47   23   24 1 
    48   23   25 1 
    49   23   48 1 
    50   24   25 1 
    51   24   49 1 
    52   24   50 1 
    53   25   51 1 
    54   25   52 1 
    55   26   27 ar
    56   26   32 1 
    57   27   28 ar
    58   27   53 1 
    59   28   54 1 
@<TRIPOS>SUBSTRUCTURE
1 MOL         1
@<TRIPOS>MOLECULE
query molecule
   55    59     1     0     0
SMALL
NO_CHARGE

@<TRIPOS>ATOM
      1 N         -28.3374  -72.3013   16.0464 N.am      1 MOL    -0.2945
      2 N         -26.8897  -73.2962   18.2864 N.am      1 MOL    -0.2983
      3 N         -23.8510  -74.0557   13.3829 N.ar      1 MOL    -0.1750
      4 N         -22.7185  -73.6248   13.9252 N.ar      1 MOL    -0.2425
      5 C         -21.9021  -72.6956   13.2479 C.ar      1 MOL     0.2725
      6 C         -22.2624  -72.3257   11.9367 C.ar      1 MOL     0.0496
      7 C         -21.4300  -71.5177   11.1701 C.ar      1 MOL     0.0138
      8 C         -21.7854  -71.1294    9.8793 C.ar      1 MOL     0.0008
      9 C         -22.9987  -71.5592    9.3453 C.ar      1 MOL     0.0007
     10 C         -23.8353  -72.3911   10.0896 C.ar      1 MOL     0.0103
     11 C         -23.4866  -72.7988   11.3886 C.ar      1 MOL     0.0106
     12 C         -24.3003  -73.6484   12.1592 C.ar      1 MOL     0.0736
     13 C         -25.6405  -74.1303   11.6894 C.3       1 MOL     0.0925
     14 C         -26.6851  -73.1271   12.0326 C.ar      1 MOL    -0.0406
     15 C         -27.3375  -73.1423   13.2731 C.ar      1 MOL     0.0196
     16 C         -28.2475  -72.1290   13.6047 C.ar      1 MOL     0.0723
     17 C         -29.0040  -72.1323   14.8800 C.2       1 MOL     0.2495
     18 C         -29.0696  -72.7490   17.2282 C.3       1 MOL     0.1268
     19 C         -28.2419  -73.7787   18.0557 C.3       1 MOL     0.1265
     20 C         -26.1475  -72.9026   17.0914 C.3       1 MOL     0.1265
     21 C         -26.9488  -71.9060   16.2272 C.3       1 MOL     0.1268
     22 C         -26.2349  -73.3227   19.4782 C.2       1 MOL     0.2187
     23 C         -26.9068  -73.9130   20.6620 C.3       1 MOL     0.0752
     24 C         -25.9802  -74.7835   21.4440 C.3       1 MOL     0.0134
     25 C         -27.0357  -75.3955   20.5732 C.3       1 MOL     0.0134
     26 C         -28.4578  -71.0914   12.6970 C.ar      1 MOL     0.1355
     27 C         -27.8908  -71.1199   11.4278 C.ar      1 MOL     0.0392
     28 C         -27.0042  -72.1372   11.0936 C.ar      1 MOL     0.0066
     29 O         -20.9316  -72.2223   13.8603 O.2       1 MOL    -0.2658
     30 O         -25.1036  -72.8291   19.6221 O.2       1 MOL    -0.2753
     31 O         -30.2403  -72.0427   14.8082 O.2       1 MOL    -0.2699
     32 F         -29.2068  -70.0233   13.0646 F         1 MOL    -0.2047
     33 H         -20.4895  -71.1840   11.5873 H         1 MOL     0.0625
     34 H         -21.1226  -70.5015    9.3021 H         1 MOL     0.0618
     35 H         -23.2867  -71.2471    8.3503 H         1 MOL     0.0618
     36 H         -24.7683  -72.7286    9.6593 H         1 MOL     0.0624
     37 H         -25.8736  -75.0845   12.1904 H         1 MOL     0.0377
     38 H         -25.6067  -74.2552   10.5935 H         1 MOL     0.0377
     39 H         -27.1319  -73.9356   13.9771 H         1 MOL     0.0629
     40 H         -30.0511  -73.1711   16.9173 H         1 MOL     0.0480
     41 H         -29.2704  -71.8540   17.8674 H         1 MOL     0.0480
     42 H         -28.1780  -74.7422   17.4958 H         1 MOL     0.0480
     43 H         -28.7308  -73.9827   19.0355 H         1 MOL     0.0480
     44 H         -25.9471  -73.8228   16.4918 H         1 MOL     0.0480
     45 H         -25.1672  -72.4691   17.3928 H         1 MOL     0.0480
     46 H         -26.4747  -71.7623   15.2298 H         1 MOL     0.0480
     47 H         -26.9482  -70.9122   16.7439 H         1 MOL     0.0480
     48 H         -27.6366  -73.3105   21.1370 H         1 MOL     0.0394
     49 H         -26.1435  -74.8494   22.5128 H         1 MOL     0.0273
     50 H         -24.9597  -74.8617   21.0891 H         1 MOL     0.0273
     51 H         -27.8785  -75.8475   21.0828 H         1 MOL     0.0273
     52 H         -26.7036  -75.8606   19.6532 H         1 MOL     0.0273
     53 H         -28.1191  -70.3448   10.7125 H         1 MOL     0.0646
     54 H         -26.5432  -72.1532   10.1171 H         1 MOL     0.0621
     55 H         -22.3892  -73.9397   14.8209 H         1 MOL     0.1921
@<TRIPOS>BOND
     1    1   18 1 
     2    1   21 1 
     3    1   17 am
     4    2   20 1 
     5    2   22 am
     6    2   19 1 
     7    3    4 ar
     8    3   12 ar
     9    4   55 1 
    10    4    5 ar
    11    5    6 ar
    12    5   29 2 
    13    6    7 ar
    14    6   11 ar
    15    7    8 ar
    16    7   33 1 
    17    8    9 ar
    18    8   34 1 
    19    9   10 ar
    20    9   35 1 
    21   10   11 ar
    22   10   36 1 
    23   11   12 ar
    24   12   13 1 
    25   13   14 1 
    26   13   37 1 
    27   13   38 1 
    28   14   15 ar
    29   14   28 ar
    30   15   16 ar
    31   15   39 1 
    32   16   17 1 
    33   16   26 ar
    34   17   31 2 
    35   18   19 1 
    36   18   40 1 
    37   18   41 1 
    38   19   42 1 
    39   19   43 1 
    40   20   21 1 
    41   20   44 1 
    42   20   45 1 
    43   21   46 1 
    44   21   47 1 
    45   22   23 1 
    46   22   30 2 
    47   23   24 1 
    48   23   25 1 
    49   23   48 1 
    50   24   25 1 
    51   24   49 1 
    52   24   50 1 
    53   25   51 1 
    54   25   52 1 
    55   26   27 ar
    56   26   32 1 
    57   27   28 ar
    58   27   53 1 
    59   28   54 1 
@<TRIPOS>SUBSTRUCTURE
1 MOL         1
@<TRIPOS>MOLECULE
query molecule
   55    59     1     0     0
SMALL
NO_CHARGE

@<TRIPOS>ATOM
      1 N         -33.9718  -46.9216  -19.1947 N.am      1 MOL    -0.2945
      2 N         -31.1552  -46.6568  -19.0313 N.am      1 MOL    -0.2983
      3 N         -38.8716  -50.9652  -23.3095 N.ar      1 MOL    -0.1750
      4 N         -40.1008  -50.6781  -23.7220 N.ar      1 MOL    -0.2425
      5 C         -40.3749  -49.4816  -24.4199 C.ar      1 MOL     0.2725
      6 C         -39.3125  -48.5780  -24.6384 C.ar      1 MOL     0.0496
      7 C         -39.5181  -47.3743  -25.3175 C.ar      1 MOL     0.0138
      8 C         -38.4580  -46.4886  -25.5023 C.ar      1 MOL     0.0008
      9 C         -37.1924  -46.7917  -25.0029 C.ar      1 MOL     0.0007
     10 C         -36.9738  -47.9908  -24.3301 C.ar      1 MOL     0.0103
     11 C         -38.0165  -48.9104  -24.1507 C.ar      1 MOL     0.0106
     12 C         -37.8070  -50.1371  -23.5025 C.ar      1 MOL     0.0736
     13 C         -36.4681  -50.5611  -23.0115 C.3       1 MOL     0.0925
     14 C         -36.2379  -50.2403  -21.5825 C.ar      1 MOL    -0.0406
     15 C         -35.9099  -48.9437  -21.1770 C.ar      1 MOL     0.0196
     16 C         -35.5634  -48.6630  -19.8433 C.ar      1 MOL     0.0723
     17 C         -35.2355  -47.2486  -19.5531 C.2       1 MOL     0.2495
     18 C         -33.3311  -45.7577  -19.8107 C.3       1 MOL     0.1268
     19 C         -31.8349  -46.0419  -20.1594 C.3       1 MOL     0.1265
     20 C         -31.7782  -47.8838  -18.5361 C.3       1 MOL     0.1265
     21 C         -33.2508  -47.6068  -18.1377 C.3       1 MOL     0.1268
     22 C         -29.9813  -46.2570  -18.4793 C.2       1 MOL     0.2187
     23 C         -29.2208  -45.1566  -19.1151 C.3       1 MOL     0.0752
     24 C         -28.4806  -44.3573  -18.0941 C.3       1 MOL     0.0134
     25 C         -29.6969  -43.7923  -18.7635 C.3       1 MOL     0.0134
     26 C         -35.5637  -49.7059  -18.9312 C.ar      1 MOL     0.1355
     27 C         -35.9601  -50.9911  -19.2984 C.ar      1 MOL     0.0392
     28 C         -36.3033  -51.2600  -20.6271 C.ar      1 MOL     0.0066
     29 O         -41.5380  -49.2873  -24.8075 O.2       1 MOL    -0.2658
     30 O         -29.4921  -46.8224  -17.4855 O.2       1 MOL    -0.2753
     31 O         -36.0895  -46.4086  -19.8589 O.2       1 MOL    -0.2699
     32 F         -35.1837  -49.5277  -17.6464 F         1 MOL    -0.2047
     33 H         -40.4984  -47.1288  -25.6989 H         1 MOL     0.0625
     34 H         -38.6179  -45.5593  -26.0289 H         1 MOL     0.0618
     35 H         -36.3777  -46.0956  -25.1323 H         1 MOL     0.0618
     36 H         -35.9904  -48.2136  -23.9388 H         1 MOL     0.0624
     37 H         -35.6961  -50.0431  -23.6117 H         1 MOL     0.0377
     38 H         -36.3791  -51.6565  -23.1392 H         1 MOL     0.0377
     39 H         -35.9062  -48.1412  -21.9022 H         1 MOL     0.0629
     40 H         -33.3643  -44.9173  -19.0721 H         1 MOL     0.0480
     41 H         -33.9120  -45.4422  -20.7051 H         1 MOL     0.0480
     42 H         -31.3034  -45.1076  -20.4485 H         1 MOL     0.0480
     43 H         -31.7875  -46.7460  -21.0248 H         1 MOL     0.0480
     44 H         -31.1871  -48.2840  -17.6842 H         1 MOL     0.0480
     45 H         -31.7551  -48.6395  -19.3590 H         1 MOL     0.0480
     46 H         -33.2601  -46.9556  -17.2304 H         1 MOL     0.0480
     47 H         -33.7807  -48.5535  -17.8869 H         1 MOL     0.0480
     48 H         -28.7902  -45.3786  -20.0588 H         1 MOL     0.0394
     49 H         -27.5240  -43.9483  -18.3931 H         1 MOL     0.0273
     50 H         -28.5985  -44.6550  -17.0590 H         1 MOL     0.0273
     51 H         -29.5286  -43.0182  -19.5018 H         1 MOL     0.0273
     52 H         -30.6056  -43.7313  -18.1766 H         1 MOL     0.0273
     53 H         -35.9999  -51.7821  -18.5646 H         1 MOL     0.0646
     54 H         -36.6031  -52.2557  -20.9185 H         1 MOL     0.0621
     55 H         -40.8802  -51.2903  -23.5553 H         1 MOL     0.1921
@<TRIPOS>BOND
     1    1   18 1 
     2    1   21 1 
     3    1   17 am
     4    2   20 1 
     5    2   22 am
     6    2   19 1 
     7    3    4 ar
     8    3   12 ar
     9    4   55 1 
    10    4    5 ar
    11    5    6 ar
    12    5   29 2 
    13    6    7 ar
    14    6   11 ar
    15    7    8 ar
    16    7   33 1 
    17    8    9 ar
    18    8   34 1 
    19    9   10 ar
    20    9   35 1 
    21   10   11 ar
    22   10   36 1 
    23   11   12 ar
    24   12   13 1 
    25   13   14 1 
    26   13   37 1 
    27   13   38 1 
    28   14   15 ar
    29   14   28 ar
    30   15   16 ar
    31   15   39 1 
    32   16   17 1 
    33   16   26 ar
    34   17   31 2 
    35   18   19 1 
    36   18   40 1 
    37   18   41 1 
    38   19   42 1 
    39   19   43 1 
    40   20   21 1 
    41   20   44 1 
    42   20   45 1 
    43   21   46 1 
    44   21   47 1 
    45   22   23 1 
    46   22   30 2 
    47   23   24 1 
    48   23   25 1 
    49   23   48 1 
    50   24   25 1 
    51   24   49 1 
    52   24   50 1 
    53   25   51 1 
    54   25   52 1 
    55   26   27 ar
    56   26   32 1 
    57   27   28 ar
    58   27   53 1 
    59   28   54 1 
@<TRIPOS>SUBSTRUCTURE
1 MOL         1
@<TRIPOS>MOLECULE
query molecule
   55    59     1     0     0
SMALL
NO_CHARGE

@<TRIPOS>ATOM
      1 N         -49.5366  -51.6023   26.3969 N.am      1 MOL    -0.2945
      2 N         -50.4503  -50.8848   23.7673 N.am      1 MOL    -0.2983
      3 N         -46.9984  -57.2771   24.7183 N.ar      1 MOL    -0.1750
      4 N         -46.2971  -57.7226   23.6795 N.ar      1 MOL    -0.2425
      5 C         -45.0382  -58.3322   23.8785 C.ar      1 MOL     0.2725
      6 C         -44.5719  -58.4724   25.2003 C.ar      1 MOL     0.0496
      7 C         -43.3834  -59.1506   25.4676 C.ar      1 MOL     0.0138
      8 C         -42.9456  -59.3150   26.7840 C.ar      1 MOL     0.0008
      9 C         -43.6894  -58.7870   27.8397 C.ar      1 MOL     0.0007
     10 C         -44.8755  -58.1053   27.5829 C.ar      1 MOL     0.0103
     11 C         -45.3450  -57.9407   26.2710 C.ar      1 MOL     0.0106
     12 C         -46.5552  -57.2757   26.0071 C.ar      1 MOL     0.0736
     13 C         -47.3715  -56.6067   27.0746 C.3       1 MOL     0.0925
     14 C         -47.0057  -55.1828   27.3331 C.ar      1 MOL    -0.0406
     15 C         -47.9877  -54.1767   27.2828 C.ar      1 MOL     0.0196
     16 C         -47.6728  -52.8220   27.4939 C.ar      1 MOL     0.0723
     17 C         -48.6731  -51.7259   27.4305 C.2       1 MOL     0.2495
     18 C         -50.2678  -50.3445   26.1997 C.3       1 MOL     0.1268
     19 C         -50.1613  -49.8307   24.7215 C.3       1 MOL     0.1265
     20 C         -49.7461  -52.1332   24.0009 C.3       1 MOL     0.1265
     21 C         -49.8758  -52.6460   25.4547 C.3       1 MOL     0.1268
     22 C         -50.9888  -50.7304   22.5278 C.2       1 MOL     0.2187
     23 C         -51.4924  -49.3970   22.1335 C.3       1 MOL     0.0752
     24 C         -52.7475  -48.9867   22.8199 C.3       1 MOL     0.0134
     25 C         -52.7926  -49.4923   21.4092 C.3       1 MOL     0.0134
     26 C         -46.3378  -52.5015   27.7957 C.ar      1 MOL     0.1355
     27 C         -45.3600  -53.4907   27.8749 C.ar      1 MOL     0.0392
     28 C         -45.6901  -54.8188   27.6383 C.ar      1 MOL     0.0066
     29 O         -44.4084  -58.7212   22.8780 O.2       1 MOL    -0.2658
     30 O         -50.9994  -51.6560   21.6969 O.2       1 MOL    -0.2753
     31 O         -48.6095  -50.8824   28.3391 O.2       1 MOL    -0.2699
     32 F         -45.9607  -51.2155   28.0044 F         1 MOL    -0.2047
     33 H         -42.7943  -59.5517   24.6537 H         1 MOL     0.0625
     34 H         -42.0244  -59.8440   26.9856 H         1 MOL     0.0618
     35 H         -43.3460  -58.9097   28.8561 H         1 MOL     0.0618
     36 H         -45.4440  -57.6979   28.4073 H         1 MOL     0.0624
     37 H         -47.2293  -57.1663   28.0195 H         1 MOL     0.0377
     38 H         -48.4373  -56.6411   26.7743 H         1 MOL     0.0377
     39 H         -49.0132  -54.4461   27.0648 H         1 MOL     0.0629
     40 H         -49.8905  -49.5827   26.9180 H         1 MOL     0.0480
     41 H         -51.3441  -50.5362   26.4341 H         1 MOL     0.0480
     42 H         -49.1138  -49.4858   24.5386 H         1 MOL     0.0480
     43 H         -50.8408  -48.9710   24.5359 H         1 MOL     0.0480
     44 H         -48.6617  -51.9616   23.7842 H         1 MOL     0.0480
     45 H         -50.1116  -52.9012   23.2809 H         1 MOL     0.0480
     46 H         -49.2041  -53.5194   25.6271 H         1 MOL     0.0480
     47 H         -50.9224  -52.9756   25.6519 H         1 MOL     0.0480
     48 H         -50.7507  -48.6918   21.8541 H         1 MOL     0.0394
     49 H         -52.9069  -47.9201   22.9453 H         1 MOL     0.0273
     50 H         -53.1419  -49.6384   23.5869 H         1 MOL     0.0273
     51 H         -52.9635  -48.7557   20.6322 H         1 MOL     0.0273
     52 H         -53.2098  -50.4793   21.2623 H         1 MOL     0.0273
     53 H         -44.3426  -53.2210   28.1178 H         1 MOL     0.0646
     54 H         -44.9252  -55.5796   27.6934 H         1 MOL     0.0621
     55 H         -46.6205  -57.6525   22.7279 H         1 MOL     0.1921
@<TRIPOS>BOND
     1    1   18 1 
     2    1   21 1 
     3    1   17 am
     4    2   20 1 
     5    2   22 am
     6    2   19 1 
     7    3    4 ar
     8    3   12 ar
     9    4   55 1 
    10    4    5 ar
    11    5    6 ar
    12    5   29 2 
    13    6    7 ar
    14    6   11 ar
    15    7    8 ar
    16    7   33 1 
    17    8    9 ar
    18    8   34 1 
    19    9   10 ar
    20    9   35 1 
    21   10   11 ar
    22   10   36 1 
    23   11   12 ar
    24   12   13 1 
    25   13   14 1 
    26   13   37 1 
    27   13   38 1 
    28   14   15 ar
    29   14   28 ar
    30   15   16 ar
    31   15   39 1 
    32   16   17 1 
    33   16   26 ar
    34   17   31 2 
    35   18   19 1 
    36   18   40 1 
    37   18   41 1 
    38   19   42 1 
    39   19   43 1 
    40   20   21 1 
    41   20   44 1 
    42   20   45 1 
    43   21   46 1 
    44   21   47 1 
    45   22   23 1 
    46   22   30 2 
    47   23   24 1 
    48   23   25 1 
    49   23   48 1 
    50   24   25 1 
    51   24   49 1 
    52   24   50 1 
    53   25   51 1 
    54   25   52 1 
    55   26   27 ar
    56   26   32 1 
    57   27   28 ar
    58   27   53 1 
    59   28   54 1 
@<TRIPOS>SUBSTRUCTURE
1 MOL         1
@<TRIPOS>MOLECULE
query molecule
   55    59     1     0     0
SMALL
NO_CHARGE

@<TRIPOS>ATOM
      1 N         -46.8233  -68.1003   -5.4601 N.am      1 MOL    -0.2945
      2 N         -45.0455  -66.6608   -3.7772 N.am      1 MOL    -0.2983
      3 N         -50.5827  -66.9825  -10.1209 N.ar      1 MOL    -0.1750
      4 N         -51.8886  -67.0534   -9.8537 N.ar      1 MOL    -0.2425
      5 C         -52.6233  -68.2218  -10.1394 C.ar      1 MOL     0.2725
      6 C         -51.9828  -69.2928  -10.7890 C.ar      1 MOL     0.0496
      7 C         -52.6866  -70.4458  -11.1469 C.ar      1 MOL     0.0138
      8 C         -52.0334  -71.4995  -11.7881 C.ar      1 MOL     0.0008
      9 C         -50.6704  -71.4033  -12.0756 C.ar      1 MOL     0.0007
     10 C         -49.9645  -70.2531  -11.7256 C.ar      1 MOL     0.0103
     11 C         -50.5978  -69.1787  -11.0826 C.ar      1 MOL     0.0106
     12 C         -49.9041  -68.0105  -10.7091 C.ar      1 MOL     0.0736
     13 C         -48.4385  -67.8944  -10.9657 C.3       1 MOL     0.0925
     14 C         -47.5778  -68.5230   -9.9377 C.ar      1 MOL    -0.0406
     15 C         -47.8818  -68.5253   -8.5739 C.ar      1 MOL     0.0196
     16 C         -47.0027  -69.1231   -7.6632 C.ar      1 MOL     0.0723
     17 C         -47.3192  -69.0998   -6.2227 C.2       1 MOL     0.2495
     18 C         -46.9977  -68.1665   -4.0115 C.3       1 MOL     0.1268
     19 C         -45.6564  -67.8836   -3.2774 C.3       1 MOL     0.1265
     20 C         -44.8801  -66.5637   -5.2290 C.3       1 MOL     0.1265
     21 C         -46.1785  -66.9121   -6.0033 C.3       1 MOL     0.1268
     22 C         -44.3801  -65.7695   -2.9933 C.2       1 MOL     0.2187
     23 C         -44.2822  -66.0152   -1.5335 C.3       1 MOL     0.0752
     24 C         -45.5782  -65.8352   -0.8179 C.3       1 MOL     0.0134
     25 C         -44.5143  -64.7847   -0.7222 C.3       1 MOL     0.0134
     26 C         -45.8331  -69.7320   -8.1126 C.ar      1 MOL     0.1355
     27 C         -45.5249  -69.7440   -9.4721 C.ar      1 MOL     0.0392
     28 C         -46.3935  -69.1368  -10.3814 C.ar      1 MOL     0.0066
     29 O         -53.8081  -68.2703   -9.7575 O.2       1 MOL    -0.2658
     30 O         -43.7955  -64.7859   -3.4744 O.2       1 MOL    -0.2753
     31 O         -47.9873  -70.0403   -5.7856 O.2       1 MOL    -0.2699
     32 F         -44.9739  -70.3162   -7.2415 F         1 MOL    -0.2047
     33 H         -53.7412  -70.5248  -10.9234 H         1 MOL     0.0625
     34 H         -52.5808  -72.3892  -12.0633 H         1 MOL     0.0618
     35 H         -50.1622  -72.2193  -12.5660 H         1 MOL     0.0618
     36 H         -48.9085  -70.1860  -11.9515 H         1 MOL     0.0624
     37 H         -48.1723  -66.8246  -11.0434 H         1 MOL     0.0377
     38 H         -48.2282  -68.4052  -11.9294 H         1 MOL     0.0377
     39 H         -48.7927  -68.0639   -8.2218 H         1 MOL     0.0629
     40 H         -47.4052  -69.1626   -3.7318 H         1 MOL     0.0480
     41 H         -47.7459  -67.3919   -3.7166 H         1 MOL     0.0480
     42 H         -44.9460  -68.7275   -3.4485 H         1 MOL     0.0480
     43 H         -45.8136  -67.7845   -2.1790 H         1 MOL     0.0480
     44 H         -44.0857  -67.2952   -5.5257 H         1 MOL     0.0480
     45 H         -44.5064  -65.5489   -5.4931 H         1 MOL     0.0480
     46 H         -45.9724  -67.0649   -7.0866 H         1 MOL     0.0480
     47 H         -46.8908  -66.0579   -5.9020 H         1 MOL     0.0480
     48 H         -43.5698  -66.7446   -1.2385 H         1 MOL     0.0394
     49 H         -45.7277  -66.4554    0.0593 H         1 MOL     0.0273
     50 H         -46.4460  -65.6040   -1.4207 H         1 MOL     0.0273
     51 H         -43.9838  -64.7228    0.2224 H         1 MOL     0.0273
     52 H         -44.6960  -63.8597   -1.2535 H         1 MOL     0.0273
     53 H         -44.6193  -70.2193   -9.8164 H         1 MOL     0.0646
     54 H         -46.1502  -69.1400  -11.4342 H         1 MOL     0.0621
     55 H         -52.4015  -66.2896   -9.4519 H         1 MOL     0.1921
@<TRIPOS>BOND
     1    1   18 1 
     2    1   21 1 
     3    1   17 am
     4    2   20 1 
     5    2   22 am
     6    2   19 1 
     7    3    4 ar
     8    3   12 ar
     9    4   55 1 
    10    4    5 ar
    11    5    6 ar
    12    5   29 2 
    13    6    7 ar
    14    6   11 ar
    15    7    8 ar
    16    7   33 1 
    17    8    9 ar
    18    8   34 1 
    19    9   10 ar
    20    9   35 1 
    21   10   11 ar
    22   10   36 1 
    23   11   12 ar
    24   12   13 1 
    25   13   14 1 
    26   13   37 1 
    27   13   38 1 
    28   14   15 ar
    29   14   28 ar
    30   15   16 ar
    31   15   39 1 
    32   16   17 1 
    33   16   26 ar
    34   17   31 2 
    35   18   19 1 
    36   18   40 1 
    37   18   41 1 
    38   19   42 1 
    39   19   43 1 
    40   20   21 1 
    41   20   44 1 
    42   20   45 1 
    43   21   46 1 
    44   21   47 1 
    45   22   23 1 
    46   22   30 2 
    47   23   24 1 
    48   23   25 1 
    49   23   48 1 
    50   24   25 1 
    51   24   49 1 
    52   24   50 1 
    53   25   51 1 
    54   25   52 1 
    55   26   27 ar
    56   26   32 1 
    57   27   28 ar
    58   27   53 1 
    59   28   54 1 
@<TRIPOS>SUBSTRUCTURE
1 MOL         1
@<TRIPOS>MOLECULE
query molecule
   55    59     1     0     0
SMALL
NO_CHARGE

@<TRIPOS>ATOM
      1 N         -20.3559  -30.0682    6.1399 N.am      1 MOL    -0.2945
      2 N         -22.7971  -31.5004    5.7978 N.am      1 MOL    -0.2983
      3 N         -16.3176  -32.1340   10.4612 N.ar      1 MOL    -0.1750
      4 N         -16.5545  -33.2169   11.1898 N.ar      1 MOL    -0.2425
      5 C         -15.7913  -34.3912   11.0316 C.ar      1 MOL     0.2725
      6 C         -14.6986  -34.3534   10.1550 C.ar      1 MOL     0.0496
      7 C         -13.8283  -35.4479   10.0194 C.ar      1 MOL     0.0138
      8 C         -12.7573  -35.3998    9.1242 C.ar      1 MOL     0.0008
      9 C         -12.5453  -34.2594    8.3491 C.ar      1 MOL     0.0007
     10 C         -13.3912  -33.1594    8.4813 C.ar      1 MOL     0.0103
     11 C         -14.4716  -33.1774    9.3772 C.ar      1 MOL     0.0106
     12 C         -15.3299  -32.0732    9.5240 C.ar      1 MOL     0.0736
     13 C         -15.1928  -30.8327    8.7030 C.3       1 MOL     0.0925
     14 C         -15.9881  -30.9124    7.4498 C.ar      1 MOL    -0.0406
     15 C         -17.2028  -30.2246    7.3267 C.ar      1 MOL     0.0196
     16 C         -17.9164  -30.2773    6.1226 C.ar      1 MOL     0.0723
     17 C         -19.1508  -29.4889    5.9537 C.2       1 MOL     0.2495
     18 C         -21.5407  -29.3675    5.6468 C.3       1 MOL     0.1268
     19 C         -22.5348  -30.3472    4.9518 C.3       1 MOL     0.1265
     20 C         -21.6090  -32.2341    6.2383 C.3       1 MOL     0.1265
     21 C         -20.5606  -31.2911    6.8993 C.3       1 MOL     0.1268
     22 C         -24.0365  -31.9536    6.1291 C.2       1 MOL     0.2187
     23 C         -25.2288  -31.4070    5.4275 C.3       1 MOL     0.0752
     24 C         -26.1096  -32.5051    4.9237 C.3       1 MOL     0.0134
     25 C         -25.2451  -31.7402    3.9713 C.3       1 MOL     0.0134
     26 C         -17.4350  -31.0439    5.0615 C.ar      1 MOL     0.1355
     27 C         -16.2297  -31.7311    5.1787 C.ar      1 MOL     0.0392
     28 C         -15.5048  -31.6616    6.3682 C.ar      1 MOL     0.0066
     29 O         -16.1573  -35.4053   11.6430 O.2       1 MOL    -0.2658
     30 O         -24.2123  -32.7832    7.0369 O.2       1 MOL    -0.2753
     31 O         -18.9986  -28.3279    5.5573 O.2       1 MOL    -0.2699
     32 F         -18.1303  -31.1182    3.9014 F         1 MOL    -0.2047
     33 H         -13.9895  -36.3326   10.6180 H         1 MOL     0.0625
     34 H         -12.0941  -36.2467    9.0303 H         1 MOL     0.0618
     35 H         -11.7242  -34.2271    7.6483 H         1 MOL     0.0618
     36 H         -13.2133  -32.2763    7.8822 H         1 MOL     0.0624
     37 H         -14.1286  -30.7022    8.4334 H         1 MOL     0.0377
     38 H         -15.5499  -29.9710    9.2946 H         1 MOL     0.0377
     39 H         -17.5849  -29.6432    8.1528 H         1 MOL     0.0629
     40 H         -21.2245  -28.5578    4.9503 H         1 MOL     0.0480
     41 H         -22.0478  -28.8895    6.5200 H         1 MOL     0.0480
     42 H         -22.0853  -30.7097    3.9964 H         1 MOL     0.0480
     43 H         -23.4926  -29.8372    4.7117 H         1 MOL     0.0480
     44 H         -21.1465  -32.7049    5.3352 H         1 MOL     0.0480
     45 H         -21.9105  -33.0512    6.9305 H         1 MOL     0.0480
     46 H         -19.5826  -31.8009    7.0454 H         1 MOL     0.0480
     47 H         -20.9462  -30.9975    7.9082 H         1 MOL     0.0480
     48 H         -25.6301  -30.5027    5.8013 H         1 MOL     0.0394
     49 H         -27.1733  -32.3116    4.8519 H         1 MOL     0.0273
     50 H         -25.8031  -33.5225    5.1403 H         1 MOL     0.0273
     51 H         -25.7445  -31.0425    3.3091 H         1 MOL     0.0273
     52 H         -24.3676  -32.2439    3.5863 H         1 MOL     0.0273
     53 H         -15.8549  -32.3123    4.3493 H         1 MOL     0.0646
     54 H         -14.5638  -32.1866    6.4590 H         1 MOL     0.0621
     55 H         -17.2800  -33.2487   11.8859 H         1 MOL     0.1921
@<TRIPOS>BOND
     1    1   18 1 
     2    1   21 1 
     3    1   17 am
     4    2   20 1 
     5    2   22 am
     6    2   19 1 
     7    3    4 ar
     8    3   12 ar
     9    4   55 1 
    10    4    5 ar
    11    5    6 ar
    12    5   29 2 
    13    6    7 ar
    14    6   11 ar
    15    7    8 ar
    16    7   33 1 
    17    8    9 ar
    18    8   34 1 
    19    9   10 ar
    20    9   35 1 
    21   10   11 ar
    22   10   36 1 
    23   11   12 ar
    24   12   13 1 
    25   13   14 1 
    26   13   37 1 
    27   13   38 1 
    28   14   15 ar
    29   14   28 ar
    30   15   16 ar
    31   15   39 1 
    32   16   17 1 
    33   16   26 ar
    34   17   31 2 
    35   18   19 1 
    36   18   40 1 
    37   18   41 1 
    38   19   42 1 
    39   19   43 1 
    40   20   21 1 
    41   20   44 1 
    42   20   45 1 
    43   21   46 1 
    44   21   47 1 
    45   22   23 1 
    46   22   30 2 
    47   23   24 1 
    48   23   25 1 
    49   23   48 1 
    50   24   25 1 
    51   24   49 1 
    52   24   50 1 
    53   25   51 1 
    54   25   52 1 
    55   26   27 ar
    56   26   32 1 
    57   27   28 ar
    58   27   53 1 
    59   28   54 1 
@<TRIPOS>SUBSTRUCTURE
1 MOL         1
@<TRIPOS>MOLECULE
query molecule
   55    59     1     0     0
SMALL
NO_CHARGE

@<TRIPOS>ATOM
      1 N         -20.1070  -37.3965    3.5832 N.am      1 MOL    -0.2945
      2 N         -19.5299  -39.9509    4.2217 N.am      1 MOL    -0.2983
      3 N         -15.5364  -38.5282    0.1418 N.ar      1 MOL    -0.1750
      4 N         -14.7619  -39.4001    0.7839 N.ar      1 MOL    -0.2425
      5 C         -15.1575  -40.7467    0.9242 C.ar      1 MOL     0.2725
      6 C         -16.4020  -41.1466    0.3979 C.ar      1 MOL     0.0496
      7 C         -16.8554  -42.4636    0.5432 C.ar      1 MOL     0.0138
      8 C         -18.0823  -42.8502   -0.0001 C.ar      1 MOL     0.0008
      9 C         -18.8630  -41.9221   -0.6912 C.ar      1 MOL     0.0007
     10 C         -18.4196  -40.6053   -0.8367 C.ar      1 MOL     0.0103
     11 C         -17.1934  -40.1871   -0.2963 C.ar      1 MOL     0.0106
     12 C         -16.7283  -38.8641   -0.4309 C.ar      1 MOL     0.0736
     13 C         -17.5011  -37.8459   -1.2007 C.3       1 MOL     0.0925
     14 C         -18.2023  -36.8403   -0.3713 C.ar      1 MOL    -0.0406
     15 C         -18.9841  -37.1902    0.7344 C.ar      1 MOL     0.0196
     16 C         -19.6830  -36.2145    1.4618 C.ar      1 MOL     0.0723
     17 C         -20.5616  -36.5948    2.5924 C.2       1 MOL     0.2495
     18 C         -21.0732  -38.0305    4.4874 C.3       1 MOL     0.1268
     19 C         -20.5428  -39.3742    5.0878 C.3       1 MOL     0.1265
     20 C         -18.3547  -39.1241    3.9394 C.3       1 MOL     0.1265
     21 C         -18.6985  -37.6067    3.8733 C.3       1 MOL     0.1268
     22 C         -19.5973  -41.1902    3.6613 C.2       1 MOL     0.2187
     23 C         -20.7799  -42.0389    3.9570 C.3       1 MOL     0.0752
     24 C         -20.4540  -43.0115    5.0419 C.3       1 MOL     0.0134
     25 C         -20.5748  -43.4736    3.6189 C.3       1 MOL     0.0134
     26 C         -19.5658  -34.8731    1.0813 C.ar      1 MOL     0.1355
     27 C         -18.7780  -34.5073   -0.0115 C.ar      1 MOL     0.0392
     28 C         -18.1022  -35.4900   -0.7389 C.ar      1 MOL     0.0066
     29 O         -14.3733  -41.5306    1.4908 O.2       1 MOL    -0.2658
     30 O         -18.7167  -41.6135    2.8978 O.2       1 MOL    -0.2753
     31 O         -21.7307  -36.1900    2.5300 O.2       1 MOL    -0.2699
     32 F         -20.2165  -33.9029    1.7682 F         1 MOL    -0.2047
     33 H         -16.2505  -43.1839    1.0751 H         1 MOL     0.0625
     34 H         -18.4256  -43.8680    0.1142 H         1 MOL     0.0618
     35 H         -19.8094  -42.2225   -1.1163 H         1 MOL     0.0618
     36 H         -19.0310  -39.8952   -1.3770 H         1 MOL     0.0624
     37 H         -18.2633  -38.3777   -1.8051 H         1 MOL     0.0377
     38 H         -16.8006  -37.3109   -1.8707 H         1 MOL     0.0377
     39 H         -19.0616  -38.2275    1.0289 H         1 MOL     0.0629
     40 H         -22.0129  -38.2066    3.9082 H         1 MOL     0.0480
     41 H         -21.3166  -37.3231    5.3154 H         1 MOL     0.0480
     42 H         -21.3639  -40.1022    5.2574 H         1 MOL     0.0480
     43 H         -20.0582  -39.1597    6.0724 H         1 MOL     0.0480
     44 H         -17.9232  -39.4630    2.9666 H         1 MOL     0.0480
     45 H         -17.5880  -39.2951    4.7304 H         1 MOL     0.0480
     46 H         -18.0739  -37.0746    3.1226 H         1 MOL     0.0480
     47 H         -18.4932  -37.1482    4.8739 H         1 MOL     0.0480
     48 H         -21.7272  -41.5712    3.9058 H         1 MOL     0.0394
     49 H         -21.2522  -43.3038    5.7122 H         1 MOL     0.0273
     50 H         -19.4487  -42.9674    5.4463 H         1 MOL     0.0273
     51 H         -21.4493  -44.0658    3.3817 H         1 MOL     0.0273
     52 H         -19.6555  -43.7200    3.0999 H         1 MOL     0.0273
     53 H         -18.6951  -33.4690   -0.2977 H         1 MOL     0.0646
     54 H         -17.5050  -35.2084   -1.5940 H         1 MOL     0.0621
     55 H         -13.8793  -39.1386    1.1897 H         1 MOL     0.1921
@<TRIPOS>BOND
     1    1   18 1 
     2    1   21 1 
     3    1   17 am
     4    2   20 1 
     5    2   22 am
     6    2   19 1 
     7    3    4 ar
     8    3   12 ar
     9    4   55 1 
    10    4    5 ar
    11    5    6 ar
    12    5   29 2 
    13    6    7 ar
    14    6   11 ar
    15    7    8 ar
    16    7   33 1 
    17    8    9 ar
    18    8   34 1 
    19    9   10 ar
    20    9   35 1 
    21   10   11 ar
    22   10   36 1 
    23   11   12 ar
    24   12   13 1 
    25   13   14 1 
    26   13   37 1 
    27   13   38 1 
    28   14   15 ar
    29   14   28 ar
    30   15   16 ar
    31   15   39 1 
    32   16   17 1 
    33   16   26 ar
    34   17   31 2 
    35   18   19 1 
    36   18   40 1 
    37   18   41 1 
    38   19   42 1 
    39   19   43 1 
    40   20   21 1 
    41   20   44 1 
    42   20   45 1 
    43   21   46 1 
    44   21   47 1 
    45   22   23 1 
    46   22   30 2 
    47   23   24 1 
    48   23   25 1 
    49   23   48 1 
    50   24   25 1 
    51   24   49 1 
    52   24   50 1 
    53   25   51 1 
    54   25   52 1 
    55   26   27 ar
    56   26   32 1 
    57   27   28 ar
    58   27   53 1 
    59   28   54 1 
@<TRIPOS>SUBSTRUCTURE
1 MOL         1
@<TRIPOS>MOLECULE
query molecule
   55    59     1     0     0
SMALL
NO_CHARGE

@<TRIPOS>ATOM
      1 N         -14.0476  -71.6971   -1.2445 N.am      1 MOL    -0.2945
      2 N         -13.4807  -74.4378   -0.7993 N.am      1 MOL    -0.2983
      3 N         -12.2642  -65.6493   -1.5332 N.ar      1 MOL    -0.1750
      4 N         -13.0986  -64.7136   -1.1018 N.ar      1 MOL    -0.2425
      5 C         -13.7797  -63.8796   -2.0138 C.ar      1 MOL     0.2725
      6 C         -13.5154  -64.0364   -3.3924 C.ar      1 MOL     0.0496
      7 C         -14.1228  -63.2023   -4.3371 C.ar      1 MOL     0.0138
      8 C         -13.8327  -63.3400   -5.6918 C.ar      1 MOL     0.0008
      9 C         -12.9313  -64.3164   -6.1158 C.ar      1 MOL     0.0007
     10 C         -12.3192  -65.1577   -5.1839 C.ar      1 MOL     0.0103
     11 C         -12.5960  -65.0418   -3.8128 C.ar      1 MOL     0.0106
     12 C         -11.9931  -65.8670   -2.8518 C.ar      1 MOL     0.0736
     13 C         -11.0740  -66.9895   -3.2072 C.3       1 MOL     0.0925
     14 C         -11.8801  -68.2139   -3.4643 C.ar      1 MOL    -0.0406
     15 C         -12.7363  -68.7457   -2.4893 C.ar      1 MOL     0.0196
     16 C         -13.5008  -69.8813   -2.7744 C.ar      1 MOL     0.0723
     17 C         -14.3792  -70.4773   -1.7407 C.2       1 MOL     0.2495
     18 C         -15.0794  -72.5519   -0.6700 C.3       1 MOL     0.1268
     19 C         -14.8614  -74.0525   -1.0342 C.3       1 MOL     0.1265
     20 C         -12.4737  -73.6255   -1.4785 C.3       1 MOL     0.1265
     21 C         -12.6570  -72.1226   -1.1384 C.3       1 MOL     0.1268
     22 C         -13.0812  -75.5419   -0.1156 C.2       1 MOL     0.2187
     23 C         -14.1027  -76.4829    0.4112 C.3       1 MOL     0.0752
     24 C         -14.4942  -76.1627    1.8164 C.3       1 MOL     0.0134
     25 C         -13.5710  -77.3003    1.5401 C.3       1 MOL     0.0134
     26 C         -13.4276  -70.4654   -4.0410 C.ar      1 MOL     0.1355
     27 C         -12.5702  -69.9495   -5.0114 C.ar      1 MOL     0.0392
     28 C         -11.7870  -68.8309   -4.7197 C.ar      1 MOL     0.0066
     29 O         -14.5766  -63.0468   -1.5556 O.2       1 MOL    -0.2658
     30 O         -11.8847  -75.8425    0.0266 O.2       1 MOL    -0.2753
     31 O         -15.4186  -69.8776   -1.4605 O.2       1 MOL    -0.2699
     32 F         -14.1900  -71.5448   -4.3407 F         1 MOL    -0.2047
     33 H         -14.8205  -62.4438   -4.0100 H         1 MOL     0.0625
     34 H         -14.3097  -62.6935   -6.4145 H         1 MOL     0.0618
     35 H         -12.7064  -64.4209   -7.1672 H         1 MOL     0.0618
     36 H         -11.6193  -65.9074   -5.5254 H         1 MOL     0.0624
     37 H         -10.3884  -67.1771   -2.3655 H         1 MOL     0.0377
     38 H         -10.5190  -66.7260   -4.1230 H         1 MOL     0.0377
     39 H         -12.8030  -68.2779   -1.5174 H         1 MOL     0.0629
     40 H         -16.0796  -72.2049   -1.0119 H         1 MOL     0.0480
     41 H         -15.0363  -72.4418    0.4405 H         1 MOL     0.0480
     42 H         -15.0975  -74.2282   -2.1098 H         1 MOL     0.0480
     43 H         -15.5260  -74.7112   -0.4264 H         1 MOL     0.0480
     44 H         -12.5919  -73.7803   -2.5784 H         1 MOL     0.0480
     45 H         -11.4588  -73.9780   -1.1897 H         1 MOL     0.0480
     46 H         -12.0253  -71.4824   -1.7949 H         1 MOL     0.0480
     47 H         -12.3314  -71.9563   -0.0824 H         1 MOL     0.0480
     48 H         -14.7950  -76.8755   -0.2907 H         1 MOL     0.0394
     49 H         -15.5005  -76.4125    2.1261 H         1 MOL     0.0273
     50 H         -14.0549  -75.2714    2.2517 H         1 MOL     0.0273
     51 H         -13.9895  -78.2855    1.6777 H         1 MOL     0.0273
     52 H         -12.5347  -77.1491    1.8026 H         1 MOL     0.0273
     53 H         -12.5145  -70.4140   -5.9847 H         1 MOL     0.0646
     54 H         -11.1147  -68.4359   -5.4671 H         1 MOL     0.0621
     55 H         -13.2783  -64.5589   -0.1252 H         1 MOL     0.1921
@<TRIPOS>BOND
     1    1   18 1 
     2    1   21 1 
     3    1   17 am
     4    2   20 1 
     5    2   22 am
     6    2   19 1 
     7    3    4 ar
     8    3   12 ar
     9    4   55 1 
    10    4    5 ar
    11    5    6 ar
    12    5   29 2 
    13    6    7 ar
    14    6   11 ar
    15    7    8 ar
    16    7   33 1 
    17    8    9 ar
    18    8   34 1 
    19    9   10 ar
    20    9   35 1 
    21   10   11 ar
    22   10   36 1 
    23   11   12 ar
    24   12   13 1 
    25   13   14 1 
    26   13   37 1 
    27   13   38 1 
    28   14   15 ar
    29   14   28 ar
    30   15   16 ar
    31   15   39 1 
    32   16   17 1 
    33   16   26 ar
    34   17   31 2 
    35   18   19 1 
    36   18   40 1 
    37   18   41 1 
    38   19   42 1 
    39   19   43 1 
    40   20   21 1 
    41   20   44 1 
    42   20   45 1 
    43   21   46 1 
    44   21   47 1 
    45   22   23 1 
    46   22   30 2 
    47   23   24 1 
    48   23   25 1 
    49   23   48 1 
    50   24   25 1 
    51   24   49 1 
    52   24   50 1 
    53   25   51 1 
    54   25   52 1 
    55   26   27 ar
    56   26   32 1 
    57   27   28 ar
    58   27   53 1 
    59   28   54 1 
@<TRIPOS>SUBSTRUCTURE
1 MOL         1
@<TRIPOS>MOLECULE
query molecule
   55    59     1     0     0
SMALL
NO_CHARGE

@<TRIPOS>ATOM
      1 N         -12.4446  -37.9303    8.6170 N.am      1 MOL    -0.2945
      2 N         -14.2181  -40.0908    9.1533 N.am      1 MOL    -0.2983
      3 N         -14.9052  -30.8704   10.7546 N.ar      1 MOL    -0.1750
      4 N         -15.3412  -30.2598   11.8523 N.ar      1 MOL    -0.2425
      5 C         -15.9789  -30.9923   12.8726 C.ar      1 MOL     0.2725
      6 C         -16.1028  -32.3882   12.7200 C.ar      1 MOL     0.0496
      7 C         -16.6808  -33.1671   13.7279 C.ar      1 MOL     0.0138
      8 C         -16.8046  -34.5462   13.5713 C.ar      1 MOL     0.0008
      9 C         -16.3487  -35.1529   12.4024 C.ar      1 MOL     0.0007
     10 C         -15.7670  -34.3906   11.3913 C.ar      1 MOL     0.0103
     11 C         -15.6290  -33.0005   11.5220 C.ar      1 MOL     0.0106
     12 C         -15.0500  -32.2090   10.5182 C.ar      1 MOL     0.0736
     13 C         -14.5782  -32.7403    9.1985 C.3       1 MOL     0.0925
     14 C         -13.3151  -33.5168    9.2762 C.ar      1 MOL    -0.0406
     15 C         -13.2258  -34.7608    8.6281 C.ar      1 MOL     0.0196
     16 C         -12.0445  -35.5104    8.6959 C.ar      1 MOL     0.0723
     17 C         -11.9351  -36.8210    8.0278 C.2       1 MOL     0.2495
     18 C         -12.1497  -39.2413    8.0390 C.3       1 MOL     0.1268
     19 C         -13.4216  -40.1367    7.9375 C.3       1 MOL     0.1265
     20 C         -14.4995  -38.7619    9.6968 C.3       1 MOL     0.1265
     21 C         -13.2213  -37.9041    9.8408 C.3       1 MOL     0.1268
     22 C         -14.9557  -41.1262    9.6418 C.2       1 MOL     0.2187
     23 C         -14.8651  -42.4449    8.9713 C.3       1 MOL     0.0752
     24 C         -15.8997  -42.5410    7.8992 C.3       1 MOL     0.0134
     25 C         -16.0689  -43.2920    9.1882 C.3       1 MOL     0.0134
     26 C         -10.9482  -35.0006    9.3932 C.ar      1 MOL     0.1355
     27 C         -11.0268  -33.7640   10.0318 C.ar      1 MOL     0.0392
     28 C         -12.2061  -33.0252    9.9706 C.ar      1 MOL     0.0066
     29 O         -16.4114  -30.3628   13.8572 O.2       1 MOL    -0.2658
     30 O         -15.6950  -40.9996   10.6337 O.2       1 MOL    -0.2753
     31 O         -11.3333  -36.8314    6.9630 O.2       1 MOL    -0.2699
     32 F          -9.7945  -35.7060    9.4578 F         1 MOL    -0.2047
     33 H         -17.0371  -32.6963   14.6341 H         1 MOL     0.0625
     34 H         -17.2537  -35.1434   14.3474 H         1 MOL     0.0618
     35 H         -16.4435  -36.2188   12.2763 H         1 MOL     0.0618
     36 H         -15.4125  -34.8707   10.4881 H         1 MOL     0.0624
     37 H         -14.3976  -31.8673    8.5391 H         1 MOL     0.0377
     38 H         -15.3732  -33.3784    8.7817 H         1 MOL     0.0377
     39 H         -14.0733  -35.1484    8.0752 H         1 MOL     0.0629
     40 H         -11.4107  -39.7467    8.7077 H         1 MOL     0.0480
     41 H         -11.6707  -39.1077    7.0443 H         1 MOL     0.0480
     42 H         -13.1509  -41.1932    7.7082 H         1 MOL     0.0480
     43 H         -14.0606  -39.7588    7.1031 H         1 MOL     0.0480
     44 H         -15.0374  -38.8685   10.6659 H         1 MOL     0.0480
     45 H         -15.1900  -38.2518    8.9744 H         1 MOL     0.0480
     46 H         -12.5880  -38.3075   10.6658 H         1 MOL     0.0480
     47 H         -13.4798  -36.8494   10.0895 H         1 MOL     0.0480
     48 H         -13.8979  -42.8500    8.8384 H         1 MOL     0.0394
     49 H         -15.6735  -43.1395    7.0264 H         1 MOL     0.0273
     50 H         -16.5557  -41.6871    7.7690 H         1 MOL     0.0273
     51 H         -15.9438  -44.3664    9.1407 H         1 MOL     0.0273
     52 H         -16.8130  -42.9097    9.8759 H         1 MOL     0.0273
     53 H         -10.1801  -33.3806   10.5776 H         1 MOL     0.0646
     54 H         -12.2732  -32.0702   10.4646 H         1 MOL     0.0621
     55 H         -15.2354  -29.2713   11.9995 H         1 MOL     0.1921
@<TRIPOS>BOND
     1    1   18 1 
     2    1   21 1 
     3    1   17 am
     4    2   20 1 
     5    2   22 am
     6    2   19 1 
     7    3    4 ar
     8    3   12 ar
     9    4   55 1 
    10    4    5 ar
    11    5    6 ar
    12    5   29 2 
    13    6    7 ar
    14    6   11 ar
    15    7    8 ar
    16    7   33 1 
    17    8    9 ar
    18    8   34 1 
    19    9   10 ar
    20    9   35 1 
    21   10   11 ar
    22   10   36 1 
    23   11   12 ar
    24   12   13 1 
    25   13   14 1 
    26   13   37 1 
    27   13   38 1 
    28   14   15 ar
    29   14   28 ar
    30   15   16 ar
    31   15   39 1 
    32   16   17 1 
    33   16   26 ar
    34   17   31 2 
    35   18   19 1 
    36   18   40 1 
    37   18   41 1 
    38   19   42 1 
    39   19   43 1 
    40   20   21 1 
    41   20   44 1 
    42   20   45 1 
    43   21   46 1 
    44   21   47 1 
    45   22   23 1 
    46   22   30 2 
    47   23   24 1 
    48   23   25 1 
    49   23   48 1 
    50   24   25 1 
    51   24   49 1 
    52   24   50 1 
    53   25   51 1 
    54   25   52 1 
    55   26   27 ar
    56   26   32 1 
    57   27   28 ar
    58   27   53 1 
    59   28   54 1 
@<TRIPOS>SUBSTRUCTURE
1 MOL         1
@<TRIPOS>MOLECULE
query molecule
   55    59     1     0     0
SMALL
NO_CHARGE

@<TRIPOS>ATOM
      1 N         -41.3861  -40.3620   22.3203 N.am      1 MOL    -0.2945
      2 N         -43.4968  -39.7377   20.5243 N.am      1 MOL    -0.2983
      3 N         -42.2920  -45.9116   27.3915 N.ar      1 MOL    -0.1750
      4 N         -43.0301  -46.9875   27.1440 N.ar      1 MOL    -0.2425
      5 C         -44.3111  -46.8785   26.5568 C.ar      1 MOL     0.2725
      6 C         -44.7736  -45.5965   26.1957 C.ar      1 MOL     0.0496
      7 C         -46.0201  -45.4307   25.5847 C.ar      1 MOL     0.0138
      8 C         -46.4596  -44.1569   25.2222 C.ar      1 MOL     0.0008
      9 C         -45.6565  -43.0419   25.4668 C.ar      1 MOL     0.0007
     10 C         -44.4121  -43.1980   26.0779 C.ar      1 MOL     0.0103
     11 C         -43.9421  -44.4670   26.4515 C.ar      1 MOL     0.0106
     12 C         -42.6808  -44.6471   27.0489 C.ar      1 MOL     0.0736
     13 C         -41.7415  -43.5105   27.3191 C.3       1 MOL     0.0925
     14 C         -40.9707  -43.1431   26.0983 C.ar      1 MOL    -0.0406
     15 C         -41.2575  -41.9390   25.4342 C.ar      1 MOL     0.0196
     16 C         -40.5709  -41.5944   24.2640 C.ar      1 MOL     0.0723
     17 C         -40.8777  -40.3261   23.5687 C.2       1 MOL     0.2495
     18 C         -41.2017  -39.2467   21.4033 C.3       1 MOL     0.1268
     19 C         -42.5774  -38.6830   20.9381 C.3       1 MOL     0.1265
     20 C         -43.5731  -40.9434   21.3553 C.3       1 MOL     0.1265
     21 C         -42.1719  -41.4589   21.7907 C.3       1 MOL     0.1268
     22 C         -44.5181  -39.5344   19.6375 C.2       1 MOL     0.2187
     23 C         -44.5108  -38.2899   18.8235 C.3       1 MOL     0.0752
     24 C         -45.6003  -37.3393   19.1764 C.3       1 MOL     0.0134
     25 C         -45.7193  -38.2011   17.9521 C.3       1 MOL     0.0134
     26 C         -39.5842  -42.4479   23.7674 C.ar      1 MOL     0.1355
     27 C         -39.2737  -43.6342   24.4325 C.ar      1 MOL     0.0392
     28 C         -39.9649  -43.9819   25.5992 C.ar      1 MOL     0.0066
     29 O         -44.9613  -47.9218   26.3816 O.2       1 MOL    -0.2658
     30 O         -45.4281  -40.3662   19.4865 O.2       1 MOL    -0.2753
     31 O         -40.5625  -39.2819   24.1494 O.2       1 MOL    -0.2699
     32 F         -38.9139  -42.1228   22.6361 F         1 MOL    -0.2047
     33 H         -46.6440  -46.2912   25.3919 H         1 MOL     0.0625
     34 H         -47.4246  -44.0332   24.7526 H         1 MOL     0.0618
     35 H         -45.9989  -42.0573   25.1837 H         1 MOL     0.0618
     36 H         -43.7968  -42.3273   26.2624 H         1 MOL     0.0624
     37 H         -41.0310  -43.8211   28.1070 H         1 MOL     0.0377
     38 H         -42.3250  -42.6329   27.6498 H         1 MOL     0.0377
     39 H         -42.0182  -41.2805   25.8303 H         1 MOL     0.0629
     40 H         -40.6463  -39.6311   20.5113 H         1 MOL     0.0480
     41 H         -40.5709  -38.4701   21.8854 H         1 MOL     0.0480
     42 H         -42.4583  -37.9443   20.1151 H         1 MOL     0.0480
     43 H         -43.0355  -38.1528   21.8102 H         1 MOL     0.0480
     44 H         -44.1400  -41.7277   20.8050 H         1 MOL     0.0480
     45 H         -44.1516  -40.6820   22.2756 H         1 MOL     0.0480
     46 H         -41.6290  -41.8873   20.9148 H         1 MOL     0.0480
     47 H         -42.2655  -42.2546   22.5616 H         1 MOL     0.0480
     48 H         -43.5627  -37.9634   18.4819 H         1 MOL     0.0394
     49 H         -45.4373  -36.2855   18.9847 H         1 MOL     0.0273
     50 H         -46.2118  -37.6013   20.0310 H         1 MOL     0.0273
     51 H         -45.6185  -37.7121   16.9942 H         1 MOL     0.0273
     52 H         -46.4178  -39.0293   18.0220 H         1 MOL     0.0273
     53 H         -38.5004  -44.2821   24.0484 H         1 MOL     0.0646
     54 H         -39.7266  -44.9020   26.1129 H         1 MOL     0.0621
     55 H         -42.7111  -47.9219   27.3400 H         1 MOL     0.1921
@<TRIPOS>BOND
     1    1   18 1 
     2    1   21 1 
     3    1   17 am
     4    2   20 1 
     5    2   22 am
     6    2   19 1 
     7    3    4 ar
     8    3   12 ar
     9    4   55 1 
    10    4    5 ar
    11    5    6 ar
    12    5   29 2 
    13    6    7 ar
    14    6   11 ar
    15    7    8 ar
    16    7   33 1 
    17    8    9 ar
    18    8   34 1 
    19    9   10 ar
    20    9   35 1 
    21   10   11 ar
    22   10   36 1 
    23   11   12 ar
    24   12   13 1 
    25   13   14 1 
    26   13   37 1 
    27   13   38 1 
    28   14   15 ar
    29   14   28 ar
    30   15   16 ar
    31   15   39 1 
    32   16   17 1 
    33   16   26 ar
    34   17   31 2 
    35   18   19 1 
    36   18   40 1 
    37   18   41 1 
    38   19   42 1 
    39   19   43 1 
    40   20   21 1 
    41   20   44 1 
    42   20   45 1 
    43   21   46 1 
    44   21   47 1 
    45   22   23 1 
    46   22   30 2 
    47   23   24 1 
    48   23   25 1 
    49   23   48 1 
    50   24   25 1 
    51   24   49 1 
    52   24   50 1 
    53   25   51 1 
    54   25   52 1 
    55   26   27 ar
    56   26   32 1 
    57   27   28 ar
    58   27   53 1 
    59   28   54 1 
@<TRIPOS>SUBSTRUCTURE
1 MOL         1
@<TRIPOS>MOLECULE
query molecule
   55    59     1     0     0
SMALL
NO_CHARGE

@<TRIPOS>ATOM
      1 N         -48.3738  -67.6180    5.5623 N.am      1 MOL    -0.2945
      2 N         -50.5457  -69.4442    5.2427 N.am      1 MOL    -0.2983
      3 N         -45.0808  -68.1920    0.6873 N.ar      1 MOL    -0.1750
      4 N         -44.0704  -68.9022    0.1974 N.ar      1 MOL    -0.2425
      5 C         -43.3486  -68.4562   -0.9339 C.ar      1 MOL     0.2725
      6 C         -43.7339  -67.2345   -1.5310 C.ar      1 MOL     0.0496
      7 C         -43.0682  -66.7220   -2.6483 C.ar      1 MOL     0.0138
      8 C         -43.4950  -65.5329   -3.2380 C.ar      1 MOL     0.0008
      9 C         -44.5857  -64.8363   -2.7212 C.ar      1 MOL     0.0007
     10 C         -45.2459  -65.3205   -1.5960 C.ar      1 MOL     0.0103
     11 C         -44.8309  -66.5131   -0.9845 C.ar      1 MOL     0.0106
     12 C         -45.4782  -67.0008    0.1580 C.ar      1 MOL     0.0736
     13 C         -46.5866  -66.2287    0.7898 C.3       1 MOL     0.0925
     14 C         -46.2229  -65.8591    2.1710 C.ar      1 MOL    -0.0406
     15 C         -46.7470  -66.6486    3.2027 C.ar      1 MOL     0.0196
     16 C         -46.5130  -66.3288    4.5420 C.ar      1 MOL     0.0723
     17 C         -47.1083  -67.1420    5.6280 C.2       1 MOL     0.2495
     18 C         -48.8805  -68.3683    6.7185 C.3       1 MOL     0.1268
     19 C         -49.5623  -69.7044    6.2820 C.3       1 MOL     0.1265
     20 C         -50.0132  -68.7492    4.0771 C.3       1 MOL     0.1265
     21 C         -49.3480  -67.4038    4.5090 C.3       1 MOL     0.1268
     22 C         -51.8554  -69.8059    5.2696 C.2       1 MOL     0.2187
     23 C         -52.4168  -70.4252    6.4955 C.3       1 MOL     0.0752
     24 C         -53.7474  -69.8462    6.8474 C.3       1 MOL     0.0134
     25 C         -52.5370  -69.4693    7.6354 C.3       1 MOL     0.0134
     26 C         -45.6812  -65.2331    4.8228 C.ar      1 MOL     0.1355
     27 C         -45.1222  -64.4595    3.7935 C.ar      1 MOL     0.0392
     28 C         -45.4025  -64.7710    2.4605 C.ar      1 MOL     0.0066
     29 O         -42.4170  -69.1701   -1.3448 O.2       1 MOL    -0.2658
     30 O         -52.5993  -69.6658    4.2913 O.2       1 MOL    -0.2753
     31 O         -46.3698  -67.3532    6.6006 O.2       1 MOL    -0.2699
     32 F         -45.3985  -64.8869    6.1022 F         1 MOL    -0.2047
     33 H         -42.2203  -67.2514   -3.0527 H         1 MOL     0.0625
     34 H         -42.9802  -65.1477   -4.1063 H         1 MOL     0.0618
     35 H         -44.9250  -63.9252   -3.1879 H         1 MOL     0.0618
     36 H         -46.0883  -64.7806   -1.1872 H         1 MOL     0.0624
     37 H         -47.4885  -66.8633    0.8246 H         1 MOL     0.0377
     38 H         -46.7707  -65.3136    0.2027 H         1 MOL     0.0377
     39 H         -47.3418  -67.5099    2.9445 H         1 MOL     0.0629
     40 H         -49.6476  -67.7343    7.2314 H         1 MOL     0.0480
     41 H         -48.0507  -68.5449    7.4363 H         1 MOL     0.0480
     42 H         -50.0646  -70.1928    7.1481 H         1 MOL     0.0480
     43 H         -48.7976  -70.4101    5.8816 H         1 MOL     0.0480
     44 H         -50.8254  -68.5906    3.3345 H         1 MOL     0.0480
     45 H         -49.2381  -69.3987    3.6027 H         1 MOL     0.0480
     46 H         -50.1517  -66.7363    4.9177 H         1 MOL     0.0480
     47 H         -48.8740  -66.8848    3.6502 H         1 MOL     0.0480
     48 H         -52.2017  -71.4520    6.6366 H         1 MOL     0.0394
     49 H         -54.4506  -70.4909    7.3633 H         1 MOL     0.0273
     50 H         -54.1541  -69.0845    6.1954 H         1 MOL     0.0273
     51 H         -52.4299  -69.8894    8.6264 H         1 MOL     0.0273
     52 H         -52.1371  -68.4754    7.4686 H         1 MOL     0.0273
     53 H         -44.4823  -63.6231    4.0336 H         1 MOL     0.0646
     54 H         -44.9895  -64.1640    1.6635 H         1 MOL     0.0621
     55 H         -43.7825  -69.7750    0.6052 H         1 MOL     0.1921
@<TRIPOS>BOND
     1    1   18 1 
     2    1   21 1 
     3    1   17 am
     4    2   20 1 
     5    2   22 am
     6    2   19 1 
     7    3    4 ar
     8    3   12 ar
     9    4   55 1 
    10    4    5 ar
    11    5    6 ar
    12    5   29 2 
    13    6    7 ar
    14    6   11 ar
    15    7    8 ar
    16    7   33 1 
    17    8    9 ar
    18    8   34 1 
    19    9   10 ar
    20    9   35 1 
    21   10   11 ar
    22   10   36 1 
    23   11   12 ar
    24   12   13 1 
    25   13   14 1 
    26   13   37 1 
    27   13   38 1 
    28   14   15 ar
    29   14   28 ar
    30   15   16 ar
    31   15   39 1 
    32   16   17 1 
    33   16   26 ar
    34   17   31 2 
    35   18   19 1 
    36   18   40 1 
    37   18   41 1 
    38   19   42 1 
    39   19   43 1 
    40   20   21 1 
    41   20   44 1 
    42   20   45 1 
    43   21   46 1 
    44   21   47 1 
    45   22   23 1 
    46   22   30 2 
    47   23   24 1 
    48   23   25 1 
    49   23   48 1 
    50   24   25 1 
    51   24   49 1 
    52   24   50 1 
    53   25   51 1 
    54   25   52 1 
    55   26   27 ar
    56   26   32 1 
    57   27   28 ar
    58   27   53 1 
    59   28   54 1 
@<TRIPOS>SUBSTRUCTURE
1 MOL         1
@<TRIPOS>MOLECULE
query molecule
   55    59     1     0     0
SMALL
NO_CHARGE

@<TRIPOS>ATOM
      1 N         -35.6046  -57.1957  -14.5149 N.am      1 MOL    -0.2945
      2 N         -35.3054  -54.4813  -13.7413 N.am      1 MOL    -0.2983
      3 N         -33.3746  -63.2049  -17.8927 N.ar      1 MOL    -0.1750
      4 N         -32.9244  -64.2856  -17.2632 N.ar      1 MOL    -0.2425
      5 C         -33.7908  -65.1617  -16.5822 C.ar      1 MOL     0.2725
      6 C         -35.1678  -64.8758  -16.6014 C.ar      1 MOL     0.0496
      7 C         -36.0833  -65.7161  -15.9633 C.ar      1 MOL     0.0138
      8 C         -37.4468  -65.4213  -16.0029 C.ar      1 MOL     0.0008
      9 C         -37.9038  -64.2818  -16.6720 C.ar      1 MOL     0.0007
     10 C         -36.9975  -63.4380  -17.3116 C.ar      1 MOL     0.0103
     11 C         -35.6213  -63.7148  -17.2953 C.ar      1 MOL     0.0106
     12 C         -34.6953  -62.8778  -17.9449 C.ar      1 MOL     0.0736
     13 C         -35.1147  -61.6517  -18.6879 C.3       1 MOL     0.0925
     14 C         -34.6480  -60.4058  -18.0300 C.ar      1 MOL    -0.0406
     15 C         -35.1833  -60.0026  -16.8043 C.ar      1 MOL     0.0196
     16 C         -34.7722  -58.8069  -16.1807 C.ar      1 MOL     0.0723
     17 C         -35.4209  -58.4813  -14.8875 C.2       1 MOL     0.2495
     18 C         -35.6382  -56.8590  -13.0932 C.3       1 MOL     0.1268
     19 C         -34.9137  -55.5115  -12.7920 C.3       1 MOL     0.1265
     20 C         -35.2074  -54.8325  -15.1572 C.3       1 MOL     0.1265
     21 C         -35.9752  -56.1495  -15.4556 C.3       1 MOL     0.1268
     22 C         -35.6095  -53.1954  -13.4169 C.2       1 MOL     0.2187
     23 C         -35.6558  -52.8225  -11.9816 C.3       1 MOL     0.0752
     24 C         -36.9808  -52.2669  -11.5916 C.3       1 MOL     0.0134
     25 C         -35.8083  -51.3520  -11.7898 C.3       1 MOL     0.0134
     26 C         -33.7790  -58.0493  -16.7987 C.ar      1 MOL     0.1355
     27 C         -33.2437  -58.4340  -18.0319 C.ar      1 MOL     0.0392
     28 C         -33.6791  -59.6102  -18.6501 C.ar      1 MOL     0.0066
     29 O         -33.2910  -66.1328  -15.9983 O.2       1 MOL    -0.2658
     30 O         -35.8342  -52.3394  -14.2890 O.2       1 MOL    -0.2753
     31 O         -35.7256  -59.4309  -14.1503 O.2       1 MOL    -0.2699
     32 F         -33.2859  -56.9299  -16.2116 F         1 MOL    -0.2047
     33 H         -35.7401  -66.5954  -15.4423 H         1 MOL     0.0625
     34 H         -38.1553  -66.0680  -15.5006 H         1 MOL     0.0618
     35 H         -38.9605  -64.0553  -16.6913 H         1 MOL     0.0618
     36 H         -37.3614  -62.5618  -17.8283 H         1 MOL     0.0624
     37 H         -36.2197  -61.6278  -18.7348 H         1 MOL     0.0377
     38 H         -34.6884  -61.6973  -19.7067 H         1 MOL     0.0377
     39 H         -35.9285  -60.6256  -16.3289 H         1 MOL     0.0629
     40 H         -35.2102  -57.6985  -12.5010 H         1 MOL     0.0480
     41 H         -36.7123  -56.7495  -12.8002 H         1 MOL     0.0480
     42 H         -33.8093  -55.6670  -12.8831 H         1 MOL     0.0480
     43 H         -35.1221  -55.1632  -11.7559 H         1 MOL     0.0480
     44 H         -34.1292  -54.9739  -15.4113 H         1 MOL     0.0480
     45 H         -35.5990  -53.9945  -15.7754 H         1 MOL     0.0480
     46 H         -35.7856  -56.5079  -16.4928 H         1 MOL     0.0480
     47 H         -37.0724  -55.9704  -15.3515 H         1 MOL     0.0480
     48 H         -35.0736  -53.4152  -11.3239 H         1 MOL     0.0394
     49 H         -37.2939  -52.4187  -10.5640 H         1 MOL     0.0273
     50 H         -37.7488  -52.2659  -12.3549 H         1 MOL     0.0273
     51 H         -35.3716  -50.9092  -10.9058 H         1 MOL     0.0273
     52 H         -35.8178  -50.7576  -12.6980 H         1 MOL     0.0273
     53 H         -32.4836  -57.8296  -18.5027 H         1 MOL     0.0646
     54 H         -33.2678  -59.9002  -19.6077 H         1 MOL     0.0621
     55 H         -31.9474  -64.5069  -17.2318 H         1 MOL     0.1921
@<TRIPOS>BOND
     1    1   18 1 
     2    1   21 1 
     3    1   17 am
     4    2   20 1 
     5    2   22 am
     6    2   19 1 
     7    3    4 ar
     8    3   12 ar
     9    4   55 1 
    10    4    5 ar
    11    5    6 ar
    12    5   29 2 
    13    6    7 ar
    14    6   11 ar
    15    7    8 ar
    16    7   33 1 
    17    8    9 ar
    18    8   34 1 
    19    9   10 ar
    20    9   35 1 
    21   10   11 ar
    22   10   36 1 
    23   11   12 ar
    24   12   13 1 
    25   13   14 1 
    26   13   37 1 
    27   13   38 1 
    28   14   15 ar
    29   14   28 ar
    30   15   16 ar
    31   15   39 1 
    32   16   17 1 
    33   16   26 ar
    34   17   31 2 
    35   18   19 1 
    36   18   40 1 
    37   18   41 1 
    38   19   42 1 
    39   19   43 1 
    40   20   21 1 
    41   20   44 1 
    42   20   45 1 
    43   21   46 1 
    44   21   47 1 
    45   22   23 1 
    46   22   30 2 
    47   23   24 1 
    48   23   25 1 
    49   23   48 1 
    50   24   25 1 
    51   24   49 1 
    52   24   50 1 
    53   25   51 1 
    54   25   52 1 
    55   26   27 ar
    56   26   32 1 
    57   27   28 ar
    58   27   53 1 
    59   28   54 1 
@<TRIPOS>SUBSTRUCTURE
1 MOL         1
@<TRIPOS>MOLECULE
query molecule
   55    59     1     0     0
SMALL
NO_CHARGE

@<TRIPOS>ATOM
      1 N         -15.2848  -64.5671  -14.4576 N.am      1 MOL    -0.2945
      2 N         -14.7698  -62.5430  -16.3621 N.am      1 MOL    -0.2983
      3 N         -13.9587  -62.1013   -9.1442 N.ar      1 MOL    -0.1750
      4 N         -14.6398  -61.4055   -8.2408 N.ar      1 MOL    -0.2425
      5 C         -14.5893  -61.7526   -6.8712 C.ar      1 MOL     0.2725
      6 C         -13.8314  -62.8849   -6.4974 C.ar      1 MOL     0.0496
      7 C         -13.8310  -63.3229   -5.1695 C.ar      1 MOL     0.0138
      8 C         -13.0758  -64.4404   -4.8059 C.ar      1 MOL     0.0008
      9 C         -12.3072  -65.1069   -5.7639 C.ar      1 MOL     0.0007
     10 C         -12.3150  -64.6766   -7.0914 C.ar      1 MOL     0.0103
     11 C         -13.0898  -63.5804   -7.4946 C.ar      1 MOL     0.0106
     12 C         -13.1581  -63.1643   -8.8360 C.ar      1 MOL     0.0736
     13 C         -12.3950  -63.8298   -9.9357 C.3       1 MOL     0.0925
     14 C         -13.1643  -64.9150  -10.5993 C.ar      1 MOL    -0.0406
     15 C         -13.9957  -64.6544  -11.6965 C.ar      1 MOL     0.0196
     16 C         -14.7119  -65.6877  -12.3248 C.ar      1 MOL     0.0723
     17 C         -15.6135  -65.4452  -13.4766 C.2       1 MOL     0.2495
     18 C         -16.3435  -64.1556  -15.3909 C.3       1 MOL     0.1268
     19 C         -16.1432  -62.7099  -15.9347 C.3       1 MOL     0.1265
     20 C         -13.7937  -62.7162  -15.2911 C.3       1 MOL     0.1265
     21 C         -13.9115  -64.1758  -14.7531 C.3       1 MOL     0.1268
     22 C         -14.3160  -62.5545  -17.6463 C.2       1 MOL     0.2187
     23 C         -15.2786  -62.8945  -18.7243 C.3       1 MOL     0.0752
     24 C         -15.2674  -64.3798  -18.8894 C.3       1 MOL     0.0134
     25 C         -14.6681  -63.4855  -19.9391 C.3       1 MOL     0.0134
     26 C         -14.5822  -66.9905  -11.8223 C.ar      1 MOL     0.1355
     27 C         -13.7488  -67.2642  -10.7365 C.ar      1 MOL     0.0392
     28 C         -13.0390  -66.2286  -10.1298 C.ar      1 MOL     0.0066
     29 O         -15.1965  -61.0312   -6.0644 O.2       1 MOL    -0.2658
     30 O         -13.1444  -62.2875  -17.9377 O.2       1 MOL    -0.2753
     31 O         -16.6932  -66.0570  -13.4699 O.2       1 MOL    -0.2699
     32 F         -15.2613  -68.0207  -12.3829 F         1 MOL    -0.2047
     33 H         -14.4069  -62.7993   -4.4246 H         1 MOL     0.0625
     34 H         -13.0792  -64.7858   -3.7823 H         1 MOL     0.0618
     35 H         -11.7058  -65.9566   -5.4770 H         1 MOL     0.0618
     36 H         -11.7157  -65.2010   -7.8243 H         1 MOL     0.0624
     37 H         -11.4717  -64.2657   -9.5102 H         1 MOL     0.0377
     38 H         -12.1421  -63.0666  -10.6960 H         1 MOL     0.0377
     39 H         -14.0865  -63.6430  -12.0691 H         1 MOL     0.0629
     40 H         -17.3292  -64.2514  -14.8802 H         1 MOL     0.0480
     41 H         -16.3355  -64.8658  -16.2540 H         1 MOL     0.0480
     42 H         -16.3463  -61.9791  -15.1121 H         1 MOL     0.0480
     43 H         -16.8405  -62.4831  -16.7725 H         1 MOL     0.0480
     44 H         -13.9980  -61.9756  -14.4852 H         1 MOL     0.0480
     45 H         -12.7734  -62.5255  -15.6934 H         1 MOL     0.0480
     46 H         -13.2782  -64.3333  -13.8520 H         1 MOL     0.0480
     47 H         -13.5342  -64.8618  -15.5544 H         1 MOL     0.0480
     48 H         -16.2031  -62.3616  -18.7378 H         1 MOL     0.0394
     49 H         -16.2078  -64.8579  -19.1274 H         1 MOL     0.0273
     50 H         -14.5547  -64.9503  -18.3008 H         1 MOL     0.0273
     51 H         -15.2319  -63.4097  -20.8630 H         1 MOL     0.0273
     52 H         -13.5886  -63.4717  -20.0215 H         1 MOL     0.0273
     53 H         -13.6562  -68.2751  -10.3680 H         1 MOL     0.0646
     54 H         -12.3891  -66.4424   -9.2939 H         1 MOL     0.0621
     55 H         -15.2139  -60.6170   -8.4847 H         1 MOL     0.1921
@<TRIPOS>BOND
     1    1   18 1 
     2    1   21 1 
     3    1   17 am
     4    2   20 1 
     5    2   22 am
     6    2   19 1 
     7    3    4 ar
     8    3   12 ar
     9    4   55 1 
    10    4    5 ar
    11    5    6 ar
    12    5   29 2 
    13    6    7 ar
    14    6   11 ar
    15    7    8 ar
    16    7   33 1 
    17    8    9 ar
    18    8   34 1 
    19    9   10 ar
    20    9   35 1 
    21   10   11 ar
    22   10   36 1 
    23   11   12 ar
    24   12   13 1 
    25   13   14 1 
    26   13   37 1 
    27   13   38 1 
    28   14   15 ar
    29   14   28 ar
    30   15   16 ar
    31   15   39 1 
    32   16   17 1 
    33   16   26 ar
    34   17   31 2 
    35   18   19 1 
    36   18   40 1 
    37   18   41 1 
    38   19   42 1 
    39   19   43 1 
    40   20   21 1 
    41   20   44 1 
    42   20   45 1 
    43   21   46 1 
    44   21   47 1 
    45   22   23 1 
    46   22   30 2 
    47   23   24 1 
    48   23   25 1 
    49   23   48 1 
    50   24   25 1 
    51   24   49 1 
    52   24   50 1 
    53   25   51 1 
    54   25   52 1 
    55   26   27 ar
    56   26   32 1 
    57   27   28 ar
    58   27   53 1 
    59   28   54 1 
@<TRIPOS>SUBSTRUCTURE
1 MOL         1
@<TRIPOS>MOLECULE
query molecule
   55    59     1     0     0
SMALL
NO_CHARGE

@<TRIPOS>ATOM
      1 N         -65.7619  -42.4844   -9.4568 N.am      1 MOL    -0.2945
      2 N         -64.8405  -45.1470   -9.1726 N.am      1 MOL    -0.2983
      3 N         -62.6322  -42.2285   -5.4969 N.ar      1 MOL    -0.1750
      4 N         -61.9735  -43.3463   -5.7746 N.ar      1 MOL    -0.2425
      5 C         -62.4309  -44.5737   -5.2645 C.ar      1 MOL     0.2725
      6 C         -63.5261  -44.5831   -4.3782 C.ar      1 MOL     0.0496
      7 C         -63.9789  -45.7678   -3.7941 C.ar      1 MOL     0.0138
      8 C         -65.0078  -45.7460   -2.8552 C.ar      1 MOL     0.0008
      9 C         -65.6141  -44.5387   -2.5081 C.ar      1 MOL     0.0007
     10 C         -65.2020  -43.3495   -3.1131 C.ar      1 MOL     0.0103
     11 C         -64.1589  -43.3455   -4.0522 C.ar      1 MOL     0.0106
     12 C         -63.7196  -42.1678   -4.6744 C.ar      1 MOL     0.0736
     13 C         -64.4056  -40.8486   -4.4792 C.3       1 MOL     0.0925
     14 C         -64.7609  -40.2686   -5.8074 C.ar      1 MOL    -0.0406
     15 C         -65.4489  -41.0320   -6.7631 C.ar      1 MOL     0.0196
     16 C         -65.7129  -40.5108   -8.0330 C.ar      1 MOL     0.0723
     17 C         -66.3853  -41.3609   -9.0378 C.2       1 MOL     0.2495
     18 C         -66.5561  -43.5718  -10.0156 C.3       1 MOL     0.1268
     19 C         -66.2695  -44.8664   -9.2024 C.3       1 MOL     0.1265
     20 C         -63.9587  -44.0487   -8.7583 C.3       1 MOL     0.1265
     21 C         -64.3219  -42.6953   -9.4414 C.3       1 MOL     0.1268
     22 C         -64.3179  -46.4034   -9.1779 C.2       1 MOL     0.2187
     23 C         -65.2232  -47.5728   -9.0926 C.3       1 MOL     0.0752
     24 C         -64.7799  -48.6297  -10.0471 C.3       1 MOL     0.0134
     25 C         -66.0550  -47.8827  -10.2769 C.3       1 MOL     0.0134
     26 C         -65.3360  -39.2057   -8.3326 C.ar      1 MOL     0.1355
     27 C         -64.6753  -38.4245   -7.3824 C.ar      1 MOL     0.0392
     28 C         -64.3852  -38.9555   -6.1194 C.ar      1 MOL     0.0066
     29 O         -61.8167  -45.6003   -5.6192 O.2       1 MOL    -0.2658
     30 O         -63.0904  -46.6005   -9.1472 O.2       1 MOL    -0.2753
     31 O         -67.5359  -41.0513   -9.3601 O.2       1 MOL    -0.2699
     32 F         -65.6021  -38.6852   -9.5539 F         1 MOL    -0.2047
     33 H         -63.5140  -46.7080   -4.0554 H         1 MOL     0.0625
     34 H         -65.3338  -46.6637   -2.3882 H         1 MOL     0.0618
     35 H         -66.4033  -44.5231   -1.7707 H         1 MOL     0.0618
     36 H         -65.6901  -42.4217   -2.8492 H         1 MOL     0.0624
     37 H         -63.7183  -40.1599   -3.9599 H         1 MOL     0.0377
     38 H         -65.3283  -41.0025   -3.8954 H         1 MOL     0.0377
     39 H         -65.7632  -42.0370   -6.5180 H         1 MOL     0.0629
     40 H         -66.2560  -43.7182  -11.0805 H         1 MOL     0.0480
     41 H         -67.6334  -43.3008   -9.9906 H         1 MOL     0.0480
     42 H         -66.8010  -45.7393   -9.6462 H         1 MOL     0.0480
     43 H         -66.6277  -44.7402   -8.1534 H         1 MOL     0.0480
     44 H         -62.8996  -44.3316   -8.9503 H         1 MOL     0.0480
     45 H         -64.0801  -43.9240   -7.6524 H         1 MOL     0.0480
     46 H         -63.9639  -42.7133  -10.4994 H         1 MOL     0.0480
     47 H         -63.8269  -41.8407   -8.9278 H         1 MOL     0.0480
     48 H         -65.4958  -47.8567   -8.1034 H         1 MOL     0.0394
     49 H         -64.8743  -49.6625   -9.7424 H         1 MOL     0.0273
     50 H         -63.9773  -48.3774  -10.7322 H         1 MOL     0.0273
     51 H         -66.9710  -48.4353  -10.0956 H         1 MOL     0.0273
     52 H         -66.0793  -47.1324  -11.0565 H         1 MOL     0.0273
     53 H         -64.3870  -37.4131   -7.6268 H         1 MOL     0.0646
     54 H         -63.8679  -38.3520   -5.3879 H         1 MOL     0.0621
     55 H         -61.1295  -43.3633   -6.3216 H         1 MOL     0.1921
@<TRIPOS>BOND
     1    1   18 1 
     2    1   21 1 
     3    1   17 am
     4    2   20 1 
     5    2   22 am
     6    2   19 1 
     7    3    4 ar
     8    3   12 ar
     9    4   55 1 
    10    4    5 ar
    11    5    6 ar
    12    5   29 2 
    13    6    7 ar
    14    6   11 ar
    15    7    8 ar
    16    7   33 1 
    17    8    9 ar
    18    8   34 1 
    19    9   10 ar
    20    9   35 1 
    21   10   11 ar
    22   10   36 1 
    23   11   12 ar
    24   12   13 1 
    25   13   14 1 
    26   13   37 1 
    27   13   38 1 
    28   14   15 ar
    29   14   28 ar
    30   15   16 ar
    31   15   39 1 
    32   16   17 1 
    33   16   26 ar
    34   17   31 2 
    35   18   19 1 
    36   18   40 1 
    37   18   41 1 
    38   19   42 1 
    39   19   43 1 
    40   20   21 1 
    41   20   44 1 
    42   20   45 1 
    43   21   46 1 
    44   21   47 1 
    45   22   23 1 
    46   22   30 2 
    47   23   24 1 
    48   23   25 1 
    49   23   48 1 
    50   24   25 1 
    51   24   49 1 
    52   24   50 1 
    53   25   51 1 
    54   25   52 1 
    55   26   27 ar
    56   26   32 1 
    57   27   28 ar
    58   27   53 1 
    59   28   54 1 
@<TRIPOS>SUBSTRUCTURE
1 MOL         1
@<TRIPOS>MOLECULE
query molecule
   55    59     1     0     0
SMALL
NO_CHARGE

@<TRIPOS>ATOM
      1 N         -48.3589  -62.9680    7.9827 N.am      1 MOL    -0.2945
      2 N         -46.9980  -61.1468    9.7298 N.am      1 MOL    -0.2983
      3 N         -46.7364  -66.2715    2.5704 N.ar      1 MOL    -0.1750
      4 N         -47.0382  -66.0197    1.3018 N.ar      1 MOL    -0.2425
      5 C         -46.2277  -65.1548    0.5273 C.ar      1 MOL     0.2725
      6 C         -45.0893  -64.5732    1.1328 C.ar      1 MOL     0.0496
      7 C         -44.2266  -63.7315    0.4157 C.ar      1 MOL     0.0138
      8 C         -43.1224  -63.1498    1.0372 C.ar      1 MOL     0.0008
      9 C         -42.8592  -63.4122    2.3808 C.ar      1 MOL     0.0007
     10 C         -43.7009  -64.2588    3.1030 C.ar      1 MOL     0.0103
     11 C         -44.8212  -64.8575    2.5030 C.ar      1 MOL     0.0106
     12 C         -45.6694  -65.7264    3.2214 C.ar      1 MOL     0.0736
     13 C         -45.3783  -66.0660    4.6469 C.3       1 MOL     0.0925
     14 C         -46.5786  -66.2104    5.4989 C.ar      1 MOL    -0.0406
     15 C         -47.1935  -65.0998    6.0856 C.ar      1 MOL     0.0196
     16 C         -48.3026  -65.2299    6.9359 C.ar      1 MOL     0.0723
     17 C         -48.9963  -64.0812    7.5669 C.2       1 MOL     0.2495
     18 C         -49.1313  -62.0434    8.8237 C.3       1 MOL     0.1268
     19 C         -48.3293  -61.6019   10.0837 C.3       1 MOL     0.1265
     20 C         -46.2166  -62.0699    8.9051 C.3       1 MOL     0.1265
     21 C         -47.0185  -62.5348    7.6493 C.3       1 MOL     0.1268
     22 C         -46.4122  -60.0051   10.1839 C.2       1 MOL     0.2187
     23 C         -47.1547  -59.1174   11.1164 C.3       1 MOL     0.0752
     24 C         -46.2789  -58.7511   12.2707 C.3       1 MOL     0.0134
     25 C         -47.4088  -59.7145   12.4553 C.3       1 MOL     0.0134
     26 C         -48.7760  -66.5353    7.1763 C.ar      1 MOL     0.1355
     27 C         -48.1830  -67.6524    6.5859 C.ar      1 MOL     0.0392
     28 C         -47.0847  -67.4909    5.7447 C.ar      1 MOL     0.0066
     29 O         -46.5659  -64.9395   -0.6481 O.2       1 MOL    -0.2658
     30 O         -45.2957  -59.6387    9.7871 O.2       1 MOL    -0.2753
     31 O         -50.2152  -64.2308    7.7587 O.2       1 MOL    -0.2699
     32 F         -49.8280  -66.7555    7.9980 F         1 MOL    -0.2047
     33 H         -44.4262  -63.5236   -0.6260 H         1 MOL     0.0625
     34 H         -42.4685  -62.4960    0.4788 H         1 MOL     0.0618
     35 H         -42.0046  -62.9621    2.8629 H         1 MOL     0.0618
     36 H         -43.4833  -64.4615    4.1435 H         1 MOL     0.0624
     37 H         -44.7481  -65.2610    5.0732 H         1 MOL     0.0377
     38 H         -44.8263  -67.0265    4.6664 H         1 MOL     0.0377
     39 H         -46.8002  -64.1117    5.8781 H         1 MOL     0.0629
     40 H         -50.0832  -62.5405    9.1267 H         1 MOL     0.0480
     41 H         -49.3913  -61.1460    8.2141 H         1 MOL     0.0480
     42 H         -48.2196  -62.4741   10.7744 H         1 MOL     0.0480
     43 H         -48.8588  -60.7944   10.6371 H         1 MOL     0.0480
     44 H         -45.9662  -62.9619    9.5306 H         1 MOL     0.0480
     45 H         -45.2590  -61.5820    8.6123 H         1 MOL     0.0480
     46 H         -46.4857  -63.3633    7.1278 H         1 MOL     0.0480
     47 H         -47.0988  -61.6792    6.9357 H         1 MOL     0.0480
     48 H         -47.8038  -58.4064   10.6758 H         1 MOL     0.0394
     49 H         -46.4061  -57.7702   12.7165 H         1 MOL     0.0273
     50 H         -45.2820  -59.1746   12.2744 H         1 MOL     0.0273
     51 H         -48.2520  -59.3449   13.0254 H         1 MOL     0.0273
     52 H         -47.1538  -60.7613   12.5681 H         1 MOL     0.0273
     53 H         -48.5728  -68.6390    6.7853 H         1 MOL     0.0646
     54 H         -46.6213  -68.3544    5.2904 H         1 MOL     0.0621
     55 H         -47.8422  -66.4325    0.8541 H         1 MOL     0.1921
@<TRIPOS>BOND
     1    1   18 1 
     2    1   21 1 
     3    1   17 am
     4    2   20 1 
     5    2   22 am
     6    2   19 1 
     7    3    4 ar
     8    3   12 ar
     9    4   55 1 
    10    4    5 ar
    11    5    6 ar
    12    5   29 2 
    13    6    7 ar
    14    6   11 ar
    15    7    8 ar
    16    7   33 1 
    17    8    9 ar
    18    8   34 1 
    19    9   10 ar
    20    9   35 1 
    21   10   11 ar
    22   10   36 1 
    23   11   12 ar
    24   12   13 1 
    25   13   14 1 
    26   13   37 1 
    27   13   38 1 
    28   14   15 ar
    29   14   28 ar
    30   15   16 ar
    31   15   39 1 
    32   16   17 1 
    33   16   26 ar
    34   17   31 2 
    35   18   19 1 
    36   18   40 1 
    37   18   41 1 
    38   19   42 1 
    39   19   43 1 
    40   20   21 1 
    41   20   44 1 
    42   20   45 1 
    43   21   46 1 
    44   21   47 1 
    45   22   23 1 
    46   22   30 2 
    47   23   24 1 
    48   23   25 1 
    49   23   48 1 
    50   24   25 1 
    51   24   49 1 
    52   24   50 1 
    53   25   51 1 
    54   25   52 1 
    55   26   27 ar
    56   26   32 1 
    57   27   28 ar
    58   27   53 1 
    59   28   54 1 
@<TRIPOS>SUBSTRUCTURE
1 MOL         1
@<TRIPOS>MOLECULE
query molecule
   55    59     1     0     0
SMALL
NO_CHARGE

@<TRIPOS>ATOM
      1 N         -15.3693  -64.8027  -14.4371 N.am      1 MOL    -0.2945
      2 N         -15.0100  -62.8139  -16.4253 N.am      1 MOL    -0.2983
      3 N         -13.5176  -63.6660   -7.8340 N.ar      1 MOL    -0.1750
      4 N         -14.2720  -63.1007   -6.8910 N.ar      1 MOL    -0.2425
      5 C         -14.7243  -61.7751   -7.0247 C.ar      1 MOL     0.2725
      6 C         -14.4698  -61.0989   -8.2372 C.ar      1 MOL     0.0496
      7 C         -14.9581  -59.8085   -8.4489 C.ar      1 MOL     0.0138
      8 C         -14.6440  -59.1254   -9.6213 C.ar      1 MOL     0.0008
      9 C         -13.8873  -59.7498  -10.6136 C.ar      1 MOL     0.0007
     10 C         -13.4301  -61.0552  -10.4300 C.ar      1 MOL     0.0103
     11 C         -13.6972  -61.7515   -9.2406 C.ar      1 MOL     0.0106
     12 C         -13.2219  -63.0558   -9.0171 C.ar      1 MOL     0.0736
     13 C         -12.3972  -63.7756  -10.0363 C.3       1 MOL     0.0925
     14 C         -13.1391  -64.9191  -10.6284 C.ar      1 MOL    -0.0406
     15 C         -14.0164  -64.7303  -11.7047 C.ar      1 MOL     0.0196
     16 C         -14.7049  -65.8122  -12.2758 C.ar      1 MOL     0.0723
     17 C         -15.6463  -65.6401  -13.4074 C.2       1 MOL     0.2495
     18 C         -16.4579  -64.4929  -15.3717 C.3       1 MOL     0.1268
     19 C         -16.3608  -63.0536  -15.9622 C.3       1 MOL     0.1265
     20 C         -13.9982  -62.9100  -15.3711 C.3       1 MOL     0.1265
     21 C         -14.0245  -64.3544  -14.7788 C.3       1 MOL     0.1268
     22 C         -14.5878  -62.8431  -17.7232 C.2       1 MOL     0.2187
     23 C         -15.5592  -63.2548  -18.7653 C.3       1 MOL     0.0752
     24 C         -15.5493  -64.7613  -18.8699 C.3       1 MOL     0.0134
     25 C         -14.9344  -63.9221  -19.9529 C.3       1 MOL     0.0134
     26 C         -14.5034  -67.0916  -11.7342 C.ar      1 MOL     0.1355
     27 C         -13.6318  -67.2909  -10.6616 C.ar      1 MOL     0.0392
     28 C         -12.9498  -66.2055  -10.1089 C.ar      1 MOL     0.0066
     29 O         -15.3033  -61.2477   -6.0561 O.2       1 MOL    -0.2658
     30 O         -13.4281  -62.5669  -18.0435 O.2       1 MOL    -0.2753
     31 O         -16.7071  -66.2808  -13.3418 O.2       1 MOL    -0.2699
     32 F         -15.1522  -68.1678  -12.2430 F         1 MOL    -0.2047
     33 H         -15.5636  -59.3352   -7.6930 H         1 MOL     0.0625
     34 H         -14.9967  -58.1150   -9.7626 H         1 MOL     0.0618
     35 H         -13.6557  -59.2174  -11.5241 H         1 MOL     0.0618
     36 H         -12.8526  -61.5313  -11.2096 H         1 MOL     0.0624
     37 H         -11.4867  -64.1649   -9.5430 H         1 MOL     0.0377
     38 H         -12.1299  -63.0711  -10.8424 H         1 MOL     0.0377
     39 H         -14.1644  -63.7365  -12.1033 H         1 MOL     0.0629
     40 H         -17.4334  -64.6334  -14.8514 H         1 MOL     0.0480
     41 H         -16.4119  -65.2232  -16.2161 H         1 MOL     0.0480
     42 H         -16.5877  -62.3048  -15.1622 H         1 MOL     0.0480
     43 H         -17.0781  -62.9013  -16.7914 H         1 MOL     0.0480
     44 H         -14.2283  -62.1581  -14.5825 H         1 MOL     0.0480
     45 H         -12.9970  -62.6756  -15.7974 H         1 MOL     0.0480
     46 H         -13.3652  -64.4478  -13.8871 H         1 MOL     0.0480
     47 H         -13.6302  -65.0494  -15.5638 H         1 MOL     0.0480
     48 H         -16.4543  -62.7229  -18.8297 H         1 MOL     0.0394
     49 H         -16.5031  -65.2275  -19.0848 H         1 MOL     0.0273
     50 H         -14.8611  -65.2994  -18.2324 H         1 MOL     0.0273
     51 H         -15.4938  -63.8627  -20.8800 H         1 MOL     0.0273
     52 H         -13.8541  -63.9162  -20.0224 H         1 MOL     0.0273
     53 H         -13.4843  -68.2827  -10.2622 H         1 MOL     0.0646
     54 H         -12.2742  -66.3589   -9.2810 H         1 MOL     0.0621
     55 H         -14.5821  -63.5931   -6.0701 H         1 MOL     0.1921
@<TRIPOS>BOND
     1    1   18 1 
     2    1   21 1 
     3    1   17 am
     4    2   20 1 
     5    2   22 am
     6    2   19 1 
     7    3    4 ar
     8    3   12 ar
     9    4   55 1 
    10    4    5 ar
    11    5    6 ar
    12    5   29 2 
    13    6    7 ar
    14    6   11 ar
    15    7    8 ar
    16    7   33 1 
    17    8    9 ar
    18    8   34 1 
    19    9   10 ar
    20    9   35 1 
    21   10   11 ar
    22   10   36 1 
    23   11   12 ar
    24   12   13 1 
    25   13   14 1 
    26   13   37 1 
    27   13   38 1 
    28   14   15 ar
    29   14   28 ar
    30   15   16 ar
    31   15   39 1 
    32   16   17 1 
    33   16   26 ar
    34   17   31 2 
    35   18   19 1 
    36   18   40 1 
    37   18   41 1 
    38   19   42 1 
    39   19   43 1 
    40   20   21 1 
    41   20   44 1 
    42   20   45 1 
    43   21   46 1 
    44   21   47 1 
    45   22   23 1 
    46   22   30 2 
    47   23   24 1 
    48   23   25 1 
    49   23   48 1 
    50   24   25 1 
    51   24   49 1 
    52   24   50 1 
    53   25   51 1 
    54   25   52 1 
    55   26   27 ar
    56   26   32 1 
    57   27   28 ar
    58   27   53 1 
    59   28   54 1 
@<TRIPOS>SUBSTRUCTURE
1 MOL         1
@<TRIPOS>MOLECULE
query molecule
   55    59     1     0     0
SMALL
NO_CHARGE

@<TRIPOS>ATOM
      1 N         -30.4361  -44.9848   22.9070 N.am      1 MOL    -0.2945
      2 N         -30.3353  -47.7559   23.6668 N.am      1 MOL    -0.2983
      3 N         -31.5421  -37.7724   23.4155 N.ar      1 MOL    -0.1750
      4 N         -30.6433  -36.8294   23.1875 N.ar      1 MOL    -0.2425
      5 C         -29.4902  -36.7350   23.9938 C.ar      1 MOL     0.2725
      6 C         -29.3583  -37.6486   25.0629 C.ar      1 MOL     0.0496
      7 C         -28.2587  -37.5798   25.9237 C.ar      1 MOL     0.0138
      8 C         -28.1550  -38.4607   27.0008 C.ar      1 MOL     0.0008
      9 C         -29.1435  -39.4227   27.2149 C.ar      1 MOL     0.0007
     10 C         -30.2382  -39.5074   26.3530 C.ar      1 MOL     0.0103
     11 C         -30.3747  -38.6273   25.2665 C.ar      1 MOL     0.0106
     12 C         -31.4939  -38.6770   24.4262 C.ar      1 MOL     0.0736
     13 C         -32.6255  -39.6235   24.6258 C.3       1 MOL     0.0925
     14 C         -32.6456  -40.7824   23.7053 C.ar      1 MOL    -0.0406
     15 C         -31.5614  -41.6515   23.6101 C.ar      1 MOL     0.0196
     16 C         -31.5850  -42.7885   22.7726 C.ar      1 MOL     0.0723
     17 C         -30.3828  -43.6343   22.8656 C.2       1 MOL     0.2495
     18 C         -29.1698  -45.7051   22.8990 C.3       1 MOL     0.1268
     19 C         -29.1209  -46.9731   23.7943 C.3       1 MOL     0.1265
     20 C         -31.5806  -47.0104   23.8220 C.3       1 MOL     0.1265
     21 C         -31.6439  -45.7776   22.8887 C.3       1 MOL     0.1268
     22 C         -30.3794  -49.1154   23.7741 C.2       1 MOL     0.2187
     23 C         -29.1234  -49.8231   24.1213 C.3       1 MOL     0.0752
     24 C         -28.4903  -50.4360   22.9202 C.3       1 MOL     0.0134
     25 C         -29.1731  -51.2930   23.9438 C.3       1 MOL     0.0134
     26 C         -32.7075  -42.9905   21.9794 C.ar      1 MOL     0.1355
     27 C         -33.8190  -42.1407   22.0747 C.ar      1 MOL     0.0392
     28 C         -33.7871  -41.0415   22.9388 C.ar      1 MOL     0.0066
     29 O         -28.6583  -35.8607   23.7210 O.2       1 MOL    -0.2658
     30 O         -31.4399  -49.7489   23.6423 O.2       1 MOL    -0.2753
     31 O         -29.3121  -43.0109   22.9570 O.2       1 MOL    -0.2699
     32 F         -32.7745  -44.0100   21.0890 F         1 MOL    -0.2047
     33 H         -27.4923  -36.8360   25.7602 H         1 MOL     0.0625
     34 H         -27.3098  -38.3949   27.6703 H         1 MOL     0.0618
     35 H         -29.0615  -40.1003   28.0521 H         1 MOL     0.0618
     36 H         -30.9980  -40.2561   26.5298 H         1 MOL     0.0624
     37 H         -33.5689  -39.0562   24.4921 H         1 MOL     0.0377
     38 H         -32.5671  -40.0102   25.6621 H         1 MOL     0.0377
     39 H         -30.6795  -41.4560   24.2069 H         1 MOL     0.0629
     40 H         -28.3523  -45.0048   23.2070 H         1 MOL     0.0480
     41 H         -28.9481  -46.0170   21.8480 H         1 MOL     0.0480
     42 H         -29.0001  -46.6865   24.8656 H         1 MOL     0.0480
     43 H         -28.2473  -47.6092   23.5128 H         1 MOL     0.0480
     44 H         -31.6387  -46.6756   24.8854 H         1 MOL     0.0480
     45 H         -32.4420  -47.6890   23.6252 H         1 MOL     0.0480
     46 H         -32.5016  -45.1173   23.1589 H         1 MOL     0.0480
     47 H         -31.8107  -46.1337   21.8419 H         1 MOL     0.0480
     48 H         -28.5436  -49.3900   24.8978 H         1 MOL     0.0394
     49 H         -27.4062  -50.4579   22.9059 H         1 MOL     0.0273
     50 H         -28.9976  -50.2893   21.9756 H         1 MOL     0.0273
     51 H         -28.5418  -51.8880   24.5935 H         1 MOL     0.0273
     52 H         -30.1275  -51.7219   23.6605 H         1 MOL     0.0273
     53 H         -34.7021  -42.3231   21.4780 H         1 MOL     0.0646
     54 H         -34.6405  -40.3828   23.0112 H         1 MOL     0.0621
     55 H         -30.7287  -36.1567   22.4458 H         1 MOL     0.1921
@<TRIPOS>BOND
     1    1   18 1 
     2    1   21 1 
     3    1   17 am
     4    2   20 1 
     5    2   22 am
     6    2   19 1 
     7    3    4 ar
     8    3   12 ar
     9    4   55 1 
    10    4    5 ar
    11    5    6 ar
    12    5   29 2 
    13    6    7 ar
    14    6   11 ar
    15    7    8 ar
    16    7   33 1 
    17    8    9 ar
    18    8   34 1 
    19    9   10 ar
    20    9   35 1 
    21   10   11 ar
    22   10   36 1 
    23   11   12 ar
    24   12   13 1 
    25   13   14 1 
    26   13   37 1 
    27   13   38 1 
    28   14   15 ar
    29   14   28 ar
    30   15   16 ar
    31   15   39 1 
    32   16   17 1 
    33   16   26 ar
    34   17   31 2 
    35   18   19 1 
    36   18   40 1 
    37   18   41 1 
    38   19   42 1 
    39   19   43 1 
    40   20   21 1 
    41   20   44 1 
    42   20   45 1 
    43   21   46 1 
    44   21   47 1 
    45   22   23 1 
    46   22   30 2 
    47   23   24 1 
    48   23   25 1 
    49   23   48 1 
    50   24   25 1 
    51   24   49 1 
    52   24   50 1 
    53   25   51 1 
    54   25   52 1 
    55   26   27 ar
    56   26   32 1 
    57   27   28 ar
    58   27   53 1 
    59   28   54 1 
@<TRIPOS>SUBSTRUCTURE
1 MOL         1
@<TRIPOS>MOLECULE
query molecule
   55    59     1     0     0
SMALL
NO_CHARGE

@<TRIPOS>ATOM
      1 N         -49.5164  -49.5103  -23.6178 N.am      1 MOL    -0.2945
      2 N         -48.8420  -52.1471  -24.4674 N.am      1 MOL    -0.2983
      3 N         -43.4285  -45.5587  -21.3709 N.ar      1 MOL    -0.1750
      4 N         -42.5317  -44.6711  -21.7750 N.ar      1 MOL    -0.2425
      5 C         -41.6303  -44.9777  -22.8141 C.ar      1 MOL     0.2725
      6 C         -41.7116  -46.2551  -23.4106 C.ar      1 MOL     0.0496
      7 C         -40.8074  -46.6467  -24.4042 C.ar      1 MOL     0.0138
      8 C         -40.8990  -47.9170  -24.9764 C.ar      1 MOL     0.0008
      9 C         -41.9039  -48.7975  -24.5716 C.ar      1 MOL     0.0007
     10 C         -42.8139  -48.4167  -23.5848 C.ar      1 MOL     0.0103
     11 C         -42.7301  -47.1549  -22.9785 C.ar      1 MOL     0.0106
     12 C         -43.6238  -46.7676  -21.9688 C.ar      1 MOL     0.0736
     13 C         -44.7715  -47.6289  -21.5404 C.3       1 MOL     0.0925
     14 C         -46.0996  -47.1230  -22.0021 C.ar      1 MOL    -0.0406
     15 C         -47.1660  -48.0280  -22.1281 C.ar      1 MOL     0.0196
     16 C         -48.4201  -47.5908  -22.5649 C.ar      1 MOL     0.0723
     17 C         -49.5557  -48.5270  -22.6971 C.2       1 MOL     0.2495
     18 C         -50.5740  -50.5130  -23.6797 C.3       1 MOL     0.1268
     19 C         -49.9717  -51.9393  -23.5655 C.3       1 MOL     0.1265
     20 C         -47.8607  -51.0635  -24.6010 C.3       1 MOL     0.1265
     21 C         -48.5067  -49.6487  -24.6503 C.3       1 MOL     0.1268
     22 C         -48.4218  -53.4013  -24.8278 C.2       1 MOL     0.2187
     23 C         -49.1758  -54.5777  -24.3242 C.3       1 MOL     0.0752
     24 C         -49.1983  -55.7224  -25.2738 C.3       1 MOL     0.0134
     25 C         -50.3999  -54.8354  -25.1351 C.3       1 MOL     0.0134
     26 C         -48.6033  -46.2409  -22.8639 C.ar      1 MOL     0.1355
     27 C         -47.5693  -45.3269  -22.7420 C.ar      1 MOL     0.0392
     28 C         -46.3254  -45.7715  -22.3118 C.ar      1 MOL     0.0066
     29 O         -40.8085  -44.1094  -23.1432 O.2       1 MOL    -0.2658
     30 O         -47.3944  -53.5919  -25.4990 O.2       1 MOL    -0.2753
     31 O         -50.4929  -48.3540  -21.9094 O.2       1 MOL    -0.2699
     32 F         -49.8091  -45.7838  -23.2657 F         1 MOL    -0.2047
     33 H         -40.0321  -45.9670  -24.7262 H         1 MOL     0.0625
     34 H         -40.1924  -48.2205  -25.7348 H         1 MOL     0.0618
     35 H         -41.9792  -49.7760  -25.0235 H         1 MOL     0.0618
     36 H         -43.5924  -49.1035  -23.2828 H         1 MOL     0.0624
     37 H         -44.7833  -47.6772  -20.4349 H         1 MOL     0.0377
     38 H         -44.6238  -48.6444  -21.9573 H         1 MOL     0.0377
     39 H         -47.0258  -49.0743  -21.8877 H         1 MOL     0.0629
     40 H         -51.0945  -50.4060  -24.6629 H         1 MOL     0.0480
     41 H         -51.3178  -50.3219  -22.8753 H         1 MOL     0.0480
     42 H         -50.7416  -52.7208  -23.7591 H         1 MOL     0.0480
     43 H         -49.6020  -52.0782  -22.5195 H         1 MOL     0.0480
     44 H         -47.2293  -51.2483  -25.5002 H         1 MOL     0.0480
     45 H         -47.1916  -51.1041  -23.7051 H         1 MOL     0.0480
     46 H         -49.0014  -49.4971  -25.6403 H         1 MOL     0.0480
     47 H         -47.7387  -48.8530  -24.5251 H         1 MOL     0.0480
     48 H         -49.1603  -54.7211  -23.2739 H         1 MOL     0.0394
     49 H         -49.2740  -56.7130  -24.8405 H         1 MOL     0.0273
     50 H         -48.6259  -55.6217  -26.1875 H         1 MOL     0.0273
     51 H         -51.2512  -55.2545  -24.6101 H         1 MOL     0.0273
     52 H         -50.6020  -54.1650  -25.9595 H         1 MOL     0.0273
     53 H         -47.7251  -44.2867  -22.9762 H         1 MOL     0.0646
     54 H         -45.5087  -45.0664  -22.2143 H         1 MOL     0.0621
     55 H         -42.4593  -43.7581  -21.3671 H         1 MOL     0.1921
@<TRIPOS>BOND
     1    1   18 1 
     2    1   21 1 
     3    1   17 am
     4    2   20 1 
     5    2   22 am
     6    2   19 1 
     7    3    4 ar
     8    3   12 ar
     9    4   55 1 
    10    4    5 ar
    11    5    6 ar
    12    5   29 2 
    13    6    7 ar
    14    6   11 ar
    15    7    8 ar
    16    7   33 1 
    17    8    9 ar
    18    8   34 1 
    19    9   10 ar
    20    9   35 1 
    21   10   11 ar
    22   10   36 1 
    23   11   12 ar
    24   12   13 1 
    25   13   14 1 
    26   13   37 1 
    27   13   38 1 
    28   14   15 ar
    29   14   28 ar
    30   15   16 ar
    31   15   39 1 
    32   16   17 1 
    33   16   26 ar
    34   17   31 2 
    35   18   19 1 
    36   18   40 1 
    37   18   41 1 
    38   19   42 1 
    39   19   43 1 
    40   20   21 1 
    41   20   44 1 
    42   20   45 1 
    43   21   46 1 
    44   21   47 1 
    45   22   23 1 
    46   22   30 2 
    47   23   24 1 
    48   23   25 1 
    49   23   48 1 
    50   24   25 1 
    51   24   49 1 
    52   24   50 1 
    53   25   51 1 
    54   25   52 1 
    55   26   27 ar
    56   26   32 1 
    57   27   28 ar
    58   27   53 1 
    59   28   54 1 
@<TRIPOS>SUBSTRUCTURE
1 MOL         1
@<TRIPOS>MOLECULE
query molecule
   55    59     1     0     0
SMALL
NO_CHARGE

@<TRIPOS>ATOM
      1 N         -14.8547  -32.8242   -2.3822 N.am      1 MOL    -0.2945
      2 N         -12.2796  -33.3052   -3.4895 N.am      1 MOL    -0.2983
      3 N         -17.3100  -38.9545    1.7866 N.ar      1 MOL    -0.1750
      4 N         -17.4510  -39.8134    2.7905 N.ar      1 MOL    -0.2425
      5 C         -18.3620  -39.5657    3.8425 C.ar      1 MOL     0.2725
      6 C         -19.1207  -38.3762    3.7948 C.ar      1 MOL     0.0496
      7 C         -20.0512  -38.0803    4.7940 C.ar      1 MOL     0.0138
      8 C         -20.7720  -36.8888    4.7413 C.ar      1 MOL     0.0008
      9 C         -20.5696  -35.9790    3.7043 C.ar      1 MOL     0.0007
     10 C         -19.6554  -36.2733    2.6936 C.ar      1 MOL     0.0103
     11 C         -18.9310  -37.4766    2.7043 C.ar      1 MOL     0.0106
     12 C         -18.0332  -37.8048    1.6736 C.ar      1 MOL     0.0736
     13 C         -17.8613  -36.9698    0.4555 C.3       1 MOL     0.0925
     14 C         -17.0349  -35.7560    0.5861 C.ar      1 MOL    -0.0406
     15 C         -16.9356  -34.9355   -0.5502 C.ar      1 MOL     0.0196
     16 C         -16.1684  -33.7512   -0.5273 C.ar      1 MOL     0.0723
     17 C         -16.0683  -33.0160   -1.8090 C.2       1 MOL     0.2495
     18 C         -14.7293  -32.9196   -3.8367 C.3       1 MOL     0.1268
     19 C         -13.4530  -33.7100   -4.2475 C.3       1 MOL     0.1265
     20 C         -12.4347  -33.2659   -2.0372 C.3       1 MOL     0.1265
     21 C         -13.6699  -32.4174   -1.6503 C.3       1 MOL     0.1268
     22 C         -11.0239  -33.1853   -3.9965 C.2       1 MOL     0.2187
     23 C         -10.8222  -33.3285   -5.4583 C.3       1 MOL     0.0752
     24 C         -11.0612  -34.7328   -5.9075 C.3       1 MOL     0.0134
     25 C          -9.6700  -34.2025   -5.7996 C.3       1 MOL     0.0134
     26 C         -15.5697  -33.3721    0.6663 C.ar      1 MOL     0.1355
     27 C         -15.6481  -34.1904    1.7927 C.ar      1 MOL     0.0392
     28 C         -16.3672  -35.3809    1.7480 C.ar      1 MOL     0.0066
     29 O         -18.4345  -40.4017    4.7570 O.2       1 MOL    -0.2658
     30 O         -10.0484  -32.8990   -3.2846 O.2       1 MOL    -0.2753
     31 O         -17.1326  -32.7799   -2.3946 O.2       1 MOL    -0.2699
     32 F         -14.8987  -32.2027    0.7899 F         1 MOL    -0.2047
     33 H         -20.2088  -38.7730    5.6068 H         1 MOL     0.0625
     34 H         -21.4956  -36.6637    5.5117 H         1 MOL     0.0618
     35 H         -21.1122  -35.0468    3.6812 H         1 MOL     0.0618
     36 H         -19.4958  -35.5642    1.8908 H         1 MOL     0.0624
     37 H         -18.8721  -36.6450    0.1310 H         1 MOL     0.0377
     38 H         -17.4096  -37.6013   -0.3371 H         1 MOL     0.0377
     39 H         -17.4457  -35.2187   -1.4627 H         1 MOL     0.0629
     40 H         -14.6592  -31.8880   -4.2556 H         1 MOL     0.0480
     41 H         -15.6387  -33.4040   -4.2610 H         1 MOL     0.0480
     42 H         -13.2374  -33.6109   -5.3341 H         1 MOL     0.0480
     43 H         -13.6166  -34.7980   -4.0471 H         1 MOL     0.0480
     44 H         -11.5064  -32.8587   -1.5777 H         1 MOL     0.0480
     45 H         -12.5800  -34.3128   -1.6777 H         1 MOL     0.0480
     46 H         -13.4785  -31.3400   -1.8706 H         1 MOL     0.0480
     47 H         -13.8778  -32.5128   -0.5600 H         1 MOL     0.0480
     48 H         -11.0819  -32.4847   -6.0440 H         1 MOL     0.0394
     49 H         -11.4934  -34.8497   -6.8924 H         1 MOL     0.0273
     50 H         -11.3946  -35.4160   -5.1355 H         1 MOL     0.0273
     51 H          -9.1812  -34.0199   -6.7481 H         1 MOL     0.0273
     52 H          -9.0699  -34.5843   -4.9862 H         1 MOL     0.0273
     53 H         -15.1479  -33.8939    2.7037 H         1 MOL     0.0646
     54 H         -16.4142  -36.0102    2.6241 H         1 MOL     0.0621
     55 H         -16.9245  -40.6678    2.8436 H         1 MOL     0.1921
@<TRIPOS>BOND
     1    1   18 1 
     2    1   21 1 
     3    1   17 am
     4    2   20 1 
     5    2   22 am
     6    2   19 1 
     7    3    4 ar
     8    3   12 ar
     9    4   55 1 
    10    4    5 ar
    11    5    6 ar
    12    5   29 2 
    13    6    7 ar
    14    6   11 ar
    15    7    8 ar
    16    7   33 1 
    17    8    9 ar
    18    8   34 1 
    19    9   10 ar
    20    9   35 1 
    21   10   11 ar
    22   10   36 1 
    23   11   12 ar
    24   12   13 1 
    25   13   14 1 
    26   13   37 1 
    27   13   38 1 
    28   14   15 ar
    29   14   28 ar
    30   15   16 ar
    31   15   39 1 
    32   16   17 1 
    33   16   26 ar
    34   17   31 2 
    35   18   19 1 
    36   18   40 1 
    37   18   41 1 
    38   19   42 1 
    39   19   43 1 
    40   20   21 1 
    41   20   44 1 
    42   20   45 1 
    43   21   46 1 
    44   21   47 1 
    45   22   23 1 
    46   22   30 2 
    47   23   24 1 
    48   23   25 1 
    49   23   48 1 
    50   24   25 1 
    51   24   49 1 
    52   24   50 1 
    53   25   51 1 
    54   25   52 1 
    55   26   27 ar
    56   26   32 1 
    57   27   28 ar
    58   27   53 1 
    59   28   54 1 
@<TRIPOS>SUBSTRUCTURE
1 MOL         1
@<TRIPOS>MOLECULE
query molecule
   55    59     1     0     0
SMALL
NO_CHARGE

@<TRIPOS>ATOM
      1 N         -47.5451  -33.4968   10.6947 N.am      1 MOL    -0.2945
      2 N         -46.7279  -35.7632    9.1576 N.am      1 MOL    -0.2983
      3 N         -53.1480  -32.3364   10.1219 N.ar      1 MOL    -0.1750
      4 N         -53.7834  -32.8468    9.0726 N.ar      1 MOL    -0.2425
      5 C         -55.0137  -33.5206    9.2326 C.ar      1 MOL     0.2725
      6 C         -55.5426  -33.6434   10.5367 C.ar      1 MOL     0.0496
      7 C         -56.7564  -34.3018   10.7583 C.ar      1 MOL     0.0138
      8 C         -57.2447  -34.4643   12.0560 C.ar      1 MOL     0.0008
      9 C         -56.5272  -33.9626   13.1438 C.ar      1 MOL     0.0007
     10 C         -55.3251  -33.2812   12.9349 C.ar      1 MOL     0.0103
     11 C         -54.8134  -33.1039   11.6374 C.ar      1 MOL     0.0106
     12 C         -53.6044  -32.4255   11.4046 C.ar      1 MOL     0.0736
     13 C         -52.8096  -31.8048   12.5114 C.3       1 MOL     0.0925
     14 C         -51.5910  -32.6034   12.7830 C.ar      1 MOL    -0.0406
     15 C         -50.3781  -32.3145   12.1403 C.ar      1 MOL     0.0196
     16 C         -49.2410  -33.0852   12.3986 C.ar      1 MOL     0.0723
     17 C         -47.9155  -32.8202   11.8055 C.2       1 MOL     0.2495
     18 C         -46.1246  -33.6955   10.4216 C.3       1 MOL     0.1268
     19 C         -45.8308  -35.1977   10.1535 C.3       1 MOL     0.1265
     20 C         -48.1544  -35.5067    9.3551 C.3       1 MOL     0.1265
     21 C         -48.4613  -34.0150    9.6950 C.3       1 MOL     0.1268
     22 C         -46.3204  -36.7763    8.3387 C.2       1 MOL     0.2187
     23 C         -44.8607  -37.0330    8.1805 C.3       1 MOL     0.0752
     24 C         -44.1724  -36.0162    7.3363 C.3       1 MOL     0.0134
     25 C         -44.5526  -37.3493    6.7548 C.3       1 MOL     0.0134
     26 C         -49.3215  -34.1584   13.2809 C.ar      1 MOL     0.1355
     27 C         -50.5142  -34.4271   13.9167 C.ar      1 MOL     0.0392
     28 C         -51.6484  -33.6587   13.6922 C.ar      1 MOL     0.0066
     29 O         -55.5652  -33.9811    8.2187 O.2       1 MOL    -0.2658
     30 O         -47.1167  -37.5280    7.7541 O.2       1 MOL    -0.2753
     31 O         -47.1477  -32.1253   12.4820 O.2       1 MOL    -0.2699
     32 F         -48.2460  -34.9388   13.5320 F         1 MOL    -0.2047
     33 H         -57.3091  -34.6966    9.9194 H         1 MOL     0.0625
     34 H         -58.1770  -34.9847   12.2187 H         1 MOL     0.0618
     35 H         -56.9030  -34.1000   14.1473 H         1 MOL     0.0618
     36 H         -54.7820  -32.8895   13.7854 H         1 MOL     0.0624
     37 H         -53.4292  -31.7809   13.4247 H         1 MOL     0.0377
     38 H         -52.5129  -30.7850   12.2119 H         1 MOL     0.0377
     39 H         -50.3308  -31.4918   11.4448 H         1 MOL     0.0629
     40 H         -45.5404  -33.3427   11.3038 H         1 MOL     0.0480
     41 H         -45.8305  -33.0816    9.5415 H         1 MOL     0.0480
     42 H         -45.9909  -35.7634   11.1092 H         1 MOL     0.0480
     43 H         -44.7761  -35.3658    9.8467 H         1 MOL     0.0480
     44 H         -48.5090  -36.1428   10.2022 H         1 MOL     0.0480
     45 H         -48.7100  -35.8183    8.4400 H         1 MOL     0.0480
     46 H         -49.5077  -33.8812   10.0467 H         1 MOL     0.0480
     47 H         -48.3315  -33.3988    8.7701 H         1 MOL     0.0480
     48 H         -44.3715  -37.5171    8.9837 H         1 MOL     0.0394
     49 H         -43.1092  -35.8637    7.4778 H         1 MOL     0.0273
     50 H         -44.7490  -35.1577    7.0081 H         1 MOL     0.0273
     51 H         -43.7645  -38.0661    6.5787 H         1 MOL     0.0273
     52 H         -45.4055  -37.3513    6.0849 H         1 MOL     0.0273
     53 H         -50.5603  -35.2570   14.6136 H         1 MOL     0.0646
     54 H         -52.5666  -33.8791   14.2132 H         1 MOL     0.0621
     55 H         -53.4234  -32.7738    8.1374 H         1 MOL     0.1921
@<TRIPOS>BOND
     1    1   18 1 
     2    1   21 1 
     3    1   17 am
     4    2   20 1 
     5    2   22 am
     6    2   19 1 
     7    3    4 ar
     8    3   12 ar
     9    4   55 1 
    10    4    5 ar
    11    5    6 ar
    12    5   29 2 
    13    6    7 ar
    14    6   11 ar
    15    7    8 ar
    16    7   33 1 
    17    8    9 ar
    18    8   34 1 
    19    9   10 ar
    20    9   35 1 
    21   10   11 ar
    22   10   36 1 
    23   11   12 ar
    24   12   13 1 
    25   13   14 1 
    26   13   37 1 
    27   13   38 1 
    28   14   15 ar
    29   14   28 ar
    30   15   16 ar
    31   15   39 1 
    32   16   17 1 
    33   16   26 ar
    34   17   31 2 
    35   18   19 1 
    36   18   40 1 
    37   18   41 1 
    38   19   42 1 
    39   19   43 1 
    40   20   21 1 
    41   20   44 1 
    42   20   45 1 
    43   21   46 1 
    44   21   47 1 
    45   22   23 1 
    46   22   30 2 
    47   23   24 1 
    48   23   25 1 
    49   23   48 1 
    50   24   25 1 
    51   24   49 1 
    52   24   50 1 
    53   25   51 1 
    54   25   52 1 
    55   26   27 ar
    56   26   32 1 
    57   27   28 ar
    58   27   53 1 
    59   28   54 1 
@<TRIPOS>SUBSTRUCTURE
1 MOL         1
@<TRIPOS>MOLECULE
query molecule
   55    59     1     0     0
SMALL
NO_CHARGE

@<TRIPOS>ATOM
      1 N         -59.8420  -72.4644    1.0842 N.am      1 MOL    -0.2945
      2 N         -57.2341  -72.2066   -0.0918 N.am      1 MOL    -0.2983
      3 N         -63.8940  -71.3343   -4.1095 N.ar      1 MOL    -0.1750
      4 N         -63.6978  -70.2479   -4.8567 N.ar      1 MOL    -0.2425
      5 C         -62.4133  -69.9559   -5.3437 C.ar      1 MOL     0.2725
      6 C         -61.3408  -70.8067   -5.0387 C.ar      1 MOL     0.0496
      7 C         -60.0546  -70.5339   -5.5186 C.ar      1 MOL     0.0138
      8 C         -59.0046  -71.3998   -5.2123 C.ar      1 MOL     0.0008
      9 C         -59.2369  -72.5334   -4.4277 C.ar      1 MOL     0.0007
     10 C         -60.5227  -72.8012   -3.9491 C.ar      1 MOL     0.0103
     11 C         -61.5981  -71.9538   -4.2412 C.ar      1 MOL     0.0106
     12 C         -62.9034  -72.2085   -3.7831 C.ar      1 MOL     0.0736
     13 C         -63.2179  -73.4253   -2.9738 C.3       1 MOL     0.0925
     14 C         -63.3178  -73.1356   -1.5228 C.ar      1 MOL    -0.0406
     15 C         -62.1748  -73.1904   -0.7195 C.ar      1 MOL     0.0196
     16 C         -62.2363  -72.9247    0.6556 C.ar      1 MOL     0.0723
     17 C         -61.0233  -72.9676    1.5078 C.2       1 MOL     0.2495
     18 C         -58.6466  -72.7060    1.8891 C.3       1 MOL     0.1268
     19 C         -57.4135  -73.1133    1.0302 C.3       1 MOL     0.1265
     20 C         -58.4303  -71.9597   -0.9045 C.3       1 MOL     0.1265
     21 C         -59.6579  -71.5613   -0.0400 C.3       1 MOL     0.1268
     22 C         -56.0329  -71.8812   -0.6436 C.2       1 MOL     0.2187
     23 C         -54.7962  -72.5314   -0.1564 C.3       1 MOL     0.0752
     24 C         -54.3387  -72.1544    1.2030 C.3       1 MOL     0.0134
     25 C         -53.7070  -71.5192    0.0010 C.3       1 MOL     0.0134
     26 C         -63.4853  -72.6331    1.2220 C.ar      1 MOL     0.1355
     27 C         -64.6351  -72.5813    0.4308 C.ar      1 MOL     0.0392
     28 C         -64.5525  -72.8264   -0.9430 C.ar      1 MOL     0.0066
     29 O         -62.2740  -68.9392   -6.0489 O.2       1 MOL    -0.2658
     30 O         -55.9505  -71.1200   -1.6242 O.2       1 MOL    -0.2753
     31 O         -61.1506  -73.5206    2.6105 O.2       1 MOL    -0.2699
     32 F         -63.6013  -72.3956    2.5533 F         1 MOL    -0.2047
     33 H         -59.8699  -69.6593   -6.1282 H         1 MOL     0.0625
     34 H         -58.0104  -71.1990   -5.5816 H         1 MOL     0.0618
     35 H         -58.4242  -73.2040   -4.1925 H         1 MOL     0.0618
     36 H         -60.6909  -73.6811   -3.3446 H         1 MOL     0.0624
     37 H         -62.4088  -74.1651   -3.1242 H         1 MOL     0.0377
     38 H         -64.1831  -73.8401   -3.3199 H         1 MOL     0.0377
     39 H         -61.2255  -73.4472   -1.1707 H         1 MOL     0.0629
     40 H         -58.8696  -73.4832    2.6542 H         1 MOL     0.0480
     41 H         -58.4085  -71.7601    2.4347 H         1 MOL     0.0480
     42 H         -57.5696  -74.1413    0.6256 H         1 MOL     0.0480
     43 H         -56.4853  -73.1229    1.6459 H         1 MOL     0.0480
     44 H         -58.6676  -72.9103   -1.4438 H         1 MOL     0.0480
     45 H         -58.2038  -71.1870   -1.6733 H         1 MOL     0.0480
     46 H         -60.5877  -71.5607   -0.6551 H         1 MOL     0.0480
     47 H         -59.5054  -70.5345    0.3655 H         1 MOL     0.0480
     48 H         -54.5766  -73.4710   -0.5978 H         1 MOL     0.0394
     49 H         -53.7187  -72.8824    1.7177 H         1 MOL     0.0273
     50 H         -54.9977  -71.5462    1.8033 H         1 MOL     0.0273
     51 H         -52.7083  -71.8254   -0.2741 H         1 MOL     0.0273
     52 H         -53.9758  -70.4816   -0.1680 H         1 MOL     0.0273
     53 H         -65.5909  -72.3476    0.8763 H         1 MOL     0.0646
     54 H         -65.4403  -72.7782   -1.5553 H         1 MOL     0.0621
     55 H         -64.4397  -69.6172   -5.0945 H         1 MOL     0.1921
@<TRIPOS>BOND
     1    1   18 1 
     2    1   21 1 
     3    1   17 am
     4    2   20 1 
     5    2   22 am
     6    2   19 1 
     7    3    4 ar
     8    3   12 ar
     9    4   55 1 
    10    4    5 ar
    11    5    6 ar
    12    5   29 2 
    13    6    7 ar
    14    6   11 ar
    15    7    8 ar
    16    7   33 1 
    17    8    9 ar
    18    8   34 1 
    19    9   10 ar
    20    9   35 1 
    21   10   11 ar
    22   10   36 1 
    23   11   12 ar
    24   12   13 1 
    25   13   14 1 
    26   13   37 1 
    27   13   38 1 
    28   14   15 ar
    29   14   28 ar
    30   15   16 ar
    31   15   39 1 
    32   16   17 1 
    33   16   26 ar
    34   17   31 2 
    35   18   19 1 
    36   18   40 1 
    37   18   41 1 
    38   19   42 1 
    39   19   43 1 
    40   20   21 1 
    41   20   44 1 
    42   20   45 1 
    43   21   46 1 
    44   21   47 1 
    45   22   23 1 
    46   22   30 2 
    47   23   24 1 
    48   23   25 1 
    49   23   48 1 
    50   24   25 1 
    51   24   49 1 
    52   24   50 1 
    53   25   51 1 
    54   25   52 1 
    55   26   27 ar
    56   26   32 1 
    57   27   28 ar
    58   27   53 1 
    59   28   54 1 
@<TRIPOS>SUBSTRUCTURE
1 MOL         1
@<TRIPOS>MOLECULE
query molecule
   55    59     1     0     0
SMALL
NO_CHARGE

@<TRIPOS>ATOM
      1 N         -55.3835  -69.1077  -15.3860 N.am      1 MOL    -0.2945
      2 N         -54.4713  -67.9545  -12.9381 N.am      1 MOL    -0.2983
      3 N         -57.1713  -64.7392  -17.2037 N.ar      1 MOL    -0.1750
      4 N         -58.2329  -64.1490  -16.6654 N.ar      1 MOL    -0.2425
      5 C         -59.0677  -63.3082  -17.4375 C.ar      1 MOL     0.2725
      6 C         -58.7395  -63.1111  -18.7980 C.ar      1 MOL     0.0496
      7 C         -59.5165  -62.2998  -19.6299 C.ar      1 MOL     0.0138
      8 C         -59.1465  -62.0946  -20.9583 C.ar      1 MOL     0.0008
      9 C         -58.0023  -62.6973  -21.4773 C.ar      1 MOL     0.0007
     10 C         -57.2297  -63.5260  -20.6693 C.ar      1 MOL     0.0103
     11 C         -57.5856  -63.7493  -19.3308 C.ar      1 MOL     0.0106
     12 C         -56.8241  -64.5944  -18.5134 C.ar      1 MOL     0.0736
     13 C         -55.6495  -65.3282  -19.0665 C.3       1 MOL     0.0925
     14 C         -55.9123  -66.7800  -19.0633 C.ar      1 MOL    -0.0406
     15 C         -55.9947  -67.4116  -17.8158 C.ar      1 MOL     0.0196
     16 C         -56.1696  -68.7940  -17.7204 C.ar      1 MOL     0.0723
     17 C         -56.2103  -69.4610  -16.3980 C.2       1 MOL     0.2495
     18 C         -55.4736  -69.8708  -14.1346 C.3       1 MOL     0.1268
     19 C         -55.5507  -68.9280  -12.8914 C.3       1 MOL     0.1265
     20 C         -54.4310  -67.1658  -14.1635 C.3       1 MOL     0.1265
     21 C         -54.3344  -68.1060  -15.4068 C.3       1 MOL     0.1268
     22 C         -53.5573  -67.7233  -11.9592 C.2       1 MOL     0.2187
     23 C         -53.5402  -68.5918  -10.7564 C.3       1 MOL     0.0752
     24 C         -52.1595  -69.0588  -10.4319 C.3       1 MOL     0.0134
     25 C         -53.1393  -69.9986  -11.0524 C.3       1 MOL     0.0134
     26 C         -56.3283  -69.5223  -18.9103 C.ar      1 MOL     0.1355
     27 C         -56.2839  -68.8907  -20.1631 C.ar      1 MOL     0.0392
     28 C         -56.0664  -67.5125  -20.2383 C.ar      1 MOL     0.0066
     29 O         -60.0426  -62.7828  -16.8719 O.2       1 MOL    -0.2658
     30 O         -52.7498  -66.7881  -12.0175 O.2       1 MOL    -0.2753
     31 O         -57.0498  -70.3654  -16.2838 O.2       1 MOL    -0.2699
     32 F         -56.5240  -70.8631  -18.8819 F         1 MOL    -0.2047
     33 H         -60.4063  -61.8327  -19.2388 H         1 MOL     0.0625
     34 H         -59.7479  -61.4594  -21.5926 H         1 MOL     0.0618
     35 H         -57.7082  -62.5249  -22.5005 H         1 MOL     0.0618
     36 H         -56.3449  -64.0012  -21.0688 H         1 MOL     0.0624
     37 H         -54.7725  -65.1312  -18.4266 H         1 MOL     0.0377
     38 H         -55.4667  -64.9918  -20.1006 H         1 MOL     0.0377
     39 H         -55.9158  -66.8100  -16.9245 H         1 MOL     0.0629
     40 H         -54.5487  -70.4953  -14.0445 H         1 MOL     0.0480
     41 H         -56.3448  -70.5591  -14.1839 H         1 MOL     0.0480
     42 H         -55.4759  -69.5133  -11.9466 H         1 MOL     0.0480
     43 H         -56.5233  -68.3829  -12.8855 H         1 MOL     0.0480
     44 H         -53.5815  -66.4498  -14.1180 H         1 MOL     0.0480
     45 H         -55.3749  -66.5726  -14.2324 H         1 MOL     0.0480
     46 H         -53.3498  -68.6416  -15.3596 H         1 MOL     0.0480
     47 H         -54.3701  -67.5354  -16.3579 H         1 MOL     0.0480
     48 H         -54.2379  -68.3484   -9.9986 H         1 MOL     0.0394
     49 H         -51.9315  -69.2532   -9.3896 H         1 MOL     0.0273
     50 H         -51.3505  -68.7192  -11.0650 H         1 MOL     0.0273
     51 H         -53.5728  -70.7632  -10.4220 H         1 MOL     0.0273
     52 H         -52.9866  -70.2412  -12.0982 H         1 MOL     0.0273
     53 H         -56.4121  -69.4712  -21.0649 H         1 MOL     0.0646
     54 H         -56.0110  -67.0244  -21.2041 H         1 MOL     0.0621
     55 H         -58.4820  -64.2735  -15.6992 H         1 MOL     0.1921
@<TRIPOS>BOND
     1    1   18 1 
     2    1   21 1 
     3    1   17 am
     4    2   20 1 
     5    2   22 am
     6    2   19 1 
     7    3    4 ar
     8    3   12 ar
     9    4   55 1 
    10    4    5 ar
    11    5    6 ar
    12    5   29 2 
    13    6    7 ar
    14    6   11 ar
    15    7    8 ar
    16    7   33 1 
    17    8    9 ar
    18    8   34 1 
    19    9   10 ar
    20    9   35 1 
    21   10   11 ar
    22   10   36 1 
    23   11   12 ar
    24   12   13 1 
    25   13   14 1 
    26   13   37 1 
    27   13   38 1 
    28   14   15 ar
    29   14   28 ar
    30   15   16 ar
    31   15   39 1 
    32   16   17 1 
    33   16   26 ar
    34   17   31 2 
    35   18   19 1 
    36   18   40 1 
    37   18   41 1 
    38   19   42 1 
    39   19   43 1 
    40   20   21 1 
    41   20   44 1 
    42   20   45 1 
    43   21   46 1 
    44   21   47 1 
    45   22   23 1 
    46   22   30 2 
    47   23   24 1 
    48   23   25 1 
    49   23   48 1 
    50   24   25 1 
    51   24   49 1 
    52   24   50 1 
    53   25   51 1 
    54   25   52 1 
    55   26   27 ar
    56   26   32 1 
    57   27   28 ar
    58   27   53 1 
    59   28   54 1 
@<TRIPOS>SUBSTRUCTURE
1 MOL         1
@<TRIPOS>MOLECULE
query molecule
   55    59     1     0     0
SMALL
NO_CHARGE

@<TRIPOS>ATOM
      1 N         -39.8705  -32.2123   11.3878 N.am      1 MOL    -0.2945
      2 N         -39.5667  -34.9126   12.2403 N.am      1 MOL    -0.2983
      3 N         -41.0931  -33.5892    7.1420 N.ar      1 MOL    -0.1750
      4 N         -42.0792  -34.4559    7.2918 N.ar      1 MOL    -0.2425
      5 C         -42.9206  -34.7515    6.2001 C.ar      1 MOL     0.2725
      6 C         -42.6566  -34.1100    4.9678 C.ar      1 MOL     0.0496
      7 C         -43.4334  -34.4136    3.8455 C.ar      1 MOL     0.0138
      8 C         -43.1665  -33.8013    2.6230 C.ar      1 MOL     0.0008
      9 C         -42.1262  -32.8768    2.5159 C.ar      1 MOL     0.0007
     10 C         -41.3545  -32.5577    3.6364 C.ar      1 MOL     0.0103
     11 C         -41.5895  -33.1633    4.8828 C.ar      1 MOL     0.0106
     12 C         -40.7997  -32.8718    6.0202 C.ar      1 MOL     0.0736
     13 C         -39.6746  -31.8844    5.9879 C.3       1 MOL     0.0925
     14 C         -39.4362  -31.0321    7.1837 C.ar      1 MOL    -0.0406
     15 C         -39.8871  -31.3662    8.4608 C.ar      1 MOL     0.0196
     16 C         -39.6420  -30.5632    9.5770 C.ar      1 MOL     0.0723
     17 C         -40.1642  -30.9772   10.8998 C.2       1 MOL     0.2495
     18 C         -40.5892  -32.6854   12.5727 C.3       1 MOL     0.1268
     19 C         -40.8011  -34.2283   12.5802 C.3       1 MOL     0.1265
     20 C         -39.0060  -34.5403   10.9453 C.3       1 MOL     0.1265
     21 C         -38.7484  -33.0086   10.8971 C.3       1 MOL     0.1268
     22 C         -38.9059  -35.7817   13.0467 C.2       1 MOL     0.2187
     23 C         -39.4528  -36.0574   14.3983 C.3       1 MOL     0.0752
     24 C         -39.1259  -34.9683   15.3609 C.3       1 MOL     0.0134
     25 C         -38.3823  -36.2698   15.4120 C.3       1 MOL     0.0134
     26 C         -38.9197  -29.3811    9.4178 C.ar      1 MOL     0.1355
     27 C         -38.4447  -29.0151    8.1559 C.ar      1 MOL     0.0392
     28 C         -38.7032  -29.8355    7.0466 C.ar      1 MOL     0.0066
     29 O         -43.8494  -35.5491    6.3807 O.2       1 MOL    -0.2658
     30 O         -37.8285  -36.3030   12.7218 O.2       1 MOL    -0.2753
     31 O         -40.8882  -30.1638   11.4872 O.2       1 MOL    -0.2699
     32 F         -38.6688  -28.5847   10.4867 F         1 MOL    -0.2047
     33 H         -44.2414  -35.1260    3.9279 H         1 MOL     0.0625
     34 H         -43.7698  -34.0417    1.7600 H         1 MOL     0.0618
     35 H         -41.9223  -32.4075    1.5636 H         1 MOL     0.0618
     36 H         -40.5537  -31.8370    3.5372 H         1 MOL     0.0624
     37 H         -39.8559  -31.2025    5.1278 H         1 MOL     0.0377
     38 H         -38.7393  -32.4553    5.7969 H         1 MOL     0.0377
     39 H         -40.4502  -32.2838    8.5914 H         1 MOL     0.0629
     40 H         -41.5591  -32.1454   12.6608 H         1 MOL     0.0480
     41 H         -39.9737  -32.4220   13.4691 H         1 MOL     0.0480
     42 H         -41.5724  -34.5105   11.8238 H         1 MOL     0.0480
     43 H         -41.1542  -34.5786   13.5766 H         1 MOL     0.0480
     44 H         -39.7326  -34.8330   10.1512 H         1 MOL     0.0480
     45 H         -38.0607  -35.1029   10.7756 H         1 MOL     0.0480
     46 H         -38.4839  -32.6701    9.8695 H         1 MOL     0.0480
     47 H         -37.8744  -32.7885   11.5612 H         1 MOL     0.0480
     48 H         -40.3802  -36.5661   14.4354 H         1 MOL     0.0394
     49 H         -39.8365  -34.7815   16.1567 H         1 MOL     0.0273
     50 H         -38.5808  -34.1157   14.9718 H         1 MOL     0.0273
     51 H         -38.6166  -36.9253   16.2417 H         1 MOL     0.0273
     52 H         -37.3610  -36.2665   15.0511 H         1 MOL     0.0273
     53 H         -37.8809  -28.1008    8.0409 H         1 MOL     0.0646
     54 H         -38.3295  -29.5416    6.0750 H         1 MOL     0.0621
     55 H         -42.2685  -34.9292    8.1566 H         1 MOL     0.1921
@<TRIPOS>BOND
     1    1   18 1 
     2    1   21 1 
     3    1   17 am
     4    2   20 1 
     5    2   22 am
     6    2   19 1 
     7    3    4 ar
     8    3   12 ar
     9    4   55 1 
    10    4    5 ar
    11    5    6 ar
    12    5   29 2 
    13    6    7 ar
    14    6   11 ar
    15    7    8 ar
    16    7   33 1 
    17    8    9 ar
    18    8   34 1 
    19    9   10 ar
    20    9   35 1 
    21   10   11 ar
    22   10   36 1 
    23   11   12 ar
    24   12   13 1 
    25   13   14 1 
    26   13   37 1 
    27   13   38 1 
    28   14   15 ar
    29   14   28 ar
    30   15   16 ar
    31   15   39 1 
    32   16   17 1 
    33   16   26 ar
    34   17   31 2 
    35   18   19 1 
    36   18   40 1 
    37   18   41 1 
    38   19   42 1 
    39   19   43 1 
    40   20   21 1 
    41   20   44 1 
    42   20   45 1 
    43   21   46 1 
    44   21   47 1 
    45   22   23 1 
    46   22   30 2 
    47   23   24 1 
    48   23   25 1 
    49   23   48 1 
    50   24   25 1 
    51   24   49 1 
    52   24   50 1 
    53   25   51 1 
    54   25   52 1 
    55   26   27 ar
    56   26   32 1 
    57   27   28 ar
    58   27   53 1 
    59   28   54 1 
@<TRIPOS>SUBSTRUCTURE
1 MOL         1
@<TRIPOS>MOLECULE
query molecule
   55    59     1     0     0
SMALL
NO_CHARGE

@<TRIPOS>ATOM
      1 N         -23.2345  -73.4637   -3.6199 N.am      1 MOL    -0.2945
      2 N         -21.6342  -71.3640   -2.5740 N.am      1 MOL    -0.2983
      3 N         -27.9426  -70.9216   -5.1580 N.ar      1 MOL    -0.1750
      4 N         -28.0582  -70.0411   -4.1738 N.ar      1 MOL    -0.2425
      5 C         -28.6754  -70.3791   -2.9518 C.ar      1 MOL     0.2725
      6 C         -29.1409  -71.6986   -2.7880 C.ar      1 MOL     0.0496
      7 C         -29.7548  -72.0982   -1.6001 C.ar      1 MOL     0.0138
      8 C         -30.2236  -73.4040   -1.4542 C.ar      1 MOL     0.0008
      9 C         -30.0768  -74.3207   -2.4960 C.ar      1 MOL     0.0007
     10 C         -29.4585  -73.9343   -3.6866 C.ar      1 MOL     0.0103
     11 C         -28.9811  -72.6260   -3.8585 C.ar      1 MOL     0.0106
     12 C         -28.3631  -72.2144   -5.0511 C.ar      1 MOL     0.0736
     13 C         -28.1456  -73.1449   -6.2064 C.3       1 MOL     0.0925
     14 C         -26.6896  -73.3352   -6.4490 C.ar      1 MOL    -0.0406
     15 C         -25.8715  -73.8635   -5.4431 C.ar      1 MOL     0.0196
     16 C         -24.4927  -73.9653   -5.6387 C.ar      1 MOL     0.0723
     17 C         -23.6421  -74.4043   -4.5081 C.2       1 MOL     0.2495
     18 C         -22.2445  -73.7814   -2.5946 C.3       1 MOL     0.1268
     19 C         -21.1019  -72.7112   -2.5753 C.3       1 MOL     0.1265
     20 C         -22.5763  -71.0811   -3.6583 C.3       1 MOL     0.1265
     21 C         -23.7543  -72.0992   -3.6099 C.3       1 MOL     0.1268
     22 C         -21.3922  -70.3734   -1.6790 C.2       1 MOL     0.2187
     23 C         -20.8501  -70.7088   -0.3465 C.3       1 MOL     0.0752
     24 C         -19.8962  -69.6548    0.1175 C.3       1 MOL     0.0134
     25 C         -19.4050  -71.0140   -0.2626 C.3       1 MOL     0.0134
     26 C         -23.9365  -73.6068   -6.8632 C.ar      1 MOL     0.1355
     27 C         -24.7473  -73.1133   -7.8876 C.ar      1 MOL     0.0392
     28 C         -26.1252  -72.9715   -7.6782 C.ar      1 MOL     0.0066
     29 O         -28.7860  -69.4932   -2.0889 O.2       1 MOL    -0.2658
     30 O         -21.7330  -69.1970   -1.8936 O.2       1 MOL    -0.2753
     31 O         -23.3072  -75.5909   -4.4621 O.2       1 MOL    -0.2699
     32 F         -22.6027  -73.7230   -7.0643 F         1 MOL    -0.2047
     33 H         -29.8723  -71.3916   -0.7917 H         1 MOL     0.0625
     34 H         -30.7005  -73.7062   -0.5335 H         1 MOL     0.0618
     35 H         -30.4404  -75.3312   -2.3806 H         1 MOL     0.0618
     36 H         -29.3477  -74.6525   -4.4875 H         1 MOL     0.0624
     37 H         -28.6039  -72.7077   -7.1098 H         1 MOL     0.0377
     38 H         -28.5984  -74.1228   -5.9683 H         1 MOL     0.0377
     39 H         -26.3046  -74.1707   -4.5026 H         1 MOL     0.0629
     40 H         -21.8419  -74.8036   -2.7719 H         1 MOL     0.0480
     41 H         -22.7553  -73.7781   -1.6015 H         1 MOL     0.0480
     42 H         -20.5022  -72.8357   -3.5150 H         1 MOL     0.0480
     43 H         -20.4171  -72.8480   -1.7153 H         1 MOL     0.0480
     44 H         -22.0413  -71.1730   -4.6331 H         1 MOL     0.0480
     45 H         -22.9477  -70.0365   -3.5636 H         1 MOL     0.0480
     46 H         -24.4477  -71.9665   -4.4703 H         1 MOL     0.0480
     47 H         -24.3381  -71.9525   -2.6696 H         1 MOL     0.0480
     48 H         -21.5585  -71.1279    0.3277 H         1 MOL     0.0394
     49 H         -19.9184  -69.4130    1.1719 H         1 MOL     0.0273
     50 H         -19.6551  -68.8593   -0.5792 H         1 MOL     0.0273
     51 H         -19.1160  -71.6698    0.5538 H         1 MOL     0.0273
     52 H         -18.8748  -71.1222   -1.1960 H         1 MOL     0.0273
     53 H         -24.3101  -72.8376   -8.8353 H         1 MOL     0.0646
     54 H         -26.7514  -72.5761   -8.4645 H         1 MOL     0.0621
     55 H         -27.7043  -69.1065   -4.2589 H         1 MOL     0.1921
@<TRIPOS>BOND
     1    1   18 1 
     2    1   21 1 
     3    1   17 am
     4    2   20 1 
     5    2   22 am
     6    2   19 1 
     7    3    4 ar
     8    3   12 ar
     9    4   55 1 
    10    4    5 ar
    11    5    6 ar
    12    5   29 2 
    13    6    7 ar
    14    6   11 ar
    15    7    8 ar
    16    7   33 1 
    17    8    9 ar
    18    8   34 1 
    19    9   10 ar
    20    9   35 1 
    21   10   11 ar
    22   10   36 1 
    23   11   12 ar
    24   12   13 1 
    25   13   14 1 
    26   13   37 1 
    27   13   38 1 
    28   14   15 ar
    29   14   28 ar
    30   15   16 ar
    31   15   39 1 
    32   16   17 1 
    33   16   26 ar
    34   17   31 2 
    35   18   19 1 
    36   18   40 1 
    37   18   41 1 
    38   19   42 1 
    39   19   43 1 
    40   20   21 1 
    41   20   44 1 
    42   20   45 1 
    43   21   46 1 
    44   21   47 1 
    45   22   23 1 
    46   22   30 2 
    47   23   24 1 
    48   23   25 1 
    49   23   48 1 
    50   24   25 1 
    51   24   49 1 
    52   24   50 1 
    53   25   51 1 
    54   25   52 1 
    55   26   27 ar
    56   26   32 1 
    57   27   28 ar
    58   27   53 1 
    59   28   54 1 
@<TRIPOS>SUBSTRUCTURE
1 MOL         1
@<TRIPOS>MOLECULE
query molecule
   55    59     1     0     0
SMALL
NO_CHARGE

@<TRIPOS>ATOM
      1 N         -64.5845  -57.5597  -21.2532 N.am      1 MOL    -0.2945
      2 N         -66.0737  -57.6056  -18.8281 N.am      1 MOL    -0.2983
      3 N         -61.7760  -61.1896  -19.0998 N.ar      1 MOL    -0.1750
      4 N         -61.4057  -61.0847  -17.8254 N.ar      1 MOL    -0.2425
      5 C         -60.2706  -61.7763  -17.3419 C.ar      1 MOL     0.2725
      6 C         -59.5361  -62.5712  -18.2487 C.ar      1 MOL     0.0496
      7 C         -58.4091  -63.2837  -17.8308 C.ar      1 MOL     0.0138
      8 C         -57.6759  -64.0453  -18.7415 C.ar      1 MOL     0.0008
      9 C         -58.0661  -64.1002  -20.0790 C.ar      1 MOL     0.0007
     10 C         -59.1965  -63.4027  -20.5048 C.ar      1 MOL     0.0103
     11 C         -59.9548  -62.6339  -19.6074 C.ar      1 MOL     0.0106
     12 C         -61.1090  -61.9428  -20.0224 C.ar      1 MOL     0.0736
     13 C         -61.6073  -62.0518  -21.4334 C.3       1 MOL     0.0925
     14 C         -61.6604  -60.7395  -22.1160 C.ar      1 MOL    -0.0406
     15 C         -62.8364  -59.9874  -22.0634 C.ar      1 MOL     0.0196
     16 C         -62.9012  -58.7073  -22.6301 C.ar      1 MOL     0.0723
     17 C         -64.1232  -57.8760  -22.4894 C.2       1 MOL     0.2495
     18 C         -65.7028  -56.6296  -21.1004 C.3       1 MOL     0.1268
     19 C         -66.7310  -57.1154  -20.0270 C.3       1 MOL     0.1265
     20 C         -65.0165  -58.5904  -19.0359 C.3       1 MOL     0.1265
     21 C         -63.9665  -58.0206  -20.0213 C.3       1 MOL     0.1268
     22 C         -66.3840  -57.2623  -17.5525 C.2       1 MOL     0.2187
     23 C         -67.3628  -56.1714  -17.3319 C.3       1 MOL     0.0752
     24 C         -68.0533  -56.3460  -16.0198 C.3       1 MOL     0.0134
     25 C         -68.7779  -56.6255  -17.3031 C.3       1 MOL     0.0134
     26 C         -61.7874  -58.2206  -23.3193 C.ar      1 MOL     0.1355
     27 C         -60.6208  -58.9837  -23.4177 C.ar      1 MOL     0.0392
     28 C         -60.5537  -60.2428  -22.8097 C.ar      1 MOL     0.0066
     29 O         -59.9569  -61.6307  -16.1493 O.2       1 MOL    -0.2658
     30 O         -65.8215  -57.7793  -16.5725 O.2       1 MOL    -0.2753
     31 O         -64.6519  -57.4715  -23.5323 O.2       1 MOL    -0.2699
     32 F         -61.8194  -56.9946  -23.8941 F         1 MOL    -0.2047
     33 H         -58.0972  -63.2409  -16.7974 H         1 MOL     0.0625
     34 H         -56.8022  -64.5901  -18.4134 H         1 MOL     0.0618
     35 H         -57.4962  -64.6855  -20.7857 H         1 MOL     0.0618
     36 H         -59.4966  -63.4592  -21.5424 H         1 MOL     0.0624
     37 H         -62.6263  -62.4812  -21.4143 H         1 MOL     0.0377
     38 H         -60.9230  -62.7138  -21.9963 H         1 MOL     0.0377
     39 H         -63.7021  -60.3943  -21.5599 H         1 MOL     0.0629
     40 H         -66.1907  -56.4742  -22.0897 H         1 MOL     0.0480
     41 H         -65.2821  -55.6466  -20.7726 H         1 MOL     0.0480
     42 H         -67.3158  -57.9643  -20.4612 H         1 MOL     0.0480
     43 H         -67.4467  -56.3080  -19.7574 H         1 MOL     0.0480
     44 H         -65.4679  -59.5167  -19.4587 H         1 MOL     0.0480
     45 H         -64.5470  -58.8429  -18.0588 H         1 MOL     0.0480
     46 H         -63.2022  -58.7918  -20.2684 H         1 MOL     0.0480
     47 H         -63.4373  -57.1532  -19.5538 H         1 MOL     0.0480
     48 H         -67.0815  -55.2158  -17.6912 H         1 MOL     0.0394
     49 H         -68.3109  -55.4450  -15.4808 H         1 MOL     0.0273
     50 H         -67.7467  -57.2085  -15.4374 H         1 MOL     0.0273
     51 H         -69.5428  -55.9014  -17.5629 H         1 MOL     0.0273
     52 H         -68.9729  -57.6611  -17.5480 H         1 MOL     0.0273
     53 H         -59.7684  -58.5976  -23.9564 H         1 MOL     0.0646
     54 H         -59.6478  -60.8283  -22.8713 H         1 MOL     0.0621
     55 H         -61.9037  -60.5162  -17.1629 H         1 MOL     0.1921
@<TRIPOS>BOND
     1    1   18 1 
     2    1   21 1 
     3    1   17 am
     4    2   20 1 
     5    2   22 am
     6    2   19 1 
     7    3    4 ar
     8    3   12 ar
     9    4   55 1 
    10    4    5 ar
    11    5    6 ar
    12    5   29 2 
    13    6    7 ar
    14    6   11 ar
    15    7    8 ar
    16    7   33 1 
    17    8    9 ar
    18    8   34 1 
    19    9   10 ar
    20    9   35 1 
    21   10   11 ar
    22   10   36 1 
    23   11   12 ar
    24   12   13 1 
    25   13   14 1 
    26   13   37 1 
    27   13   38 1 
    28   14   15 ar
    29   14   28 ar
    30   15   16 ar
    31   15   39 1 
    32   16   17 1 
    33   16   26 ar
    34   17   31 2 
    35   18   19 1 
    36   18   40 1 
    37   18   41 1 
    38   19   42 1 
    39   19   43 1 
    40   20   21 1 
    41   20   44 1 
    42   20   45 1 
    43   21   46 1 
    44   21   47 1 
    45   22   23 1 
    46   22   30 2 
    47   23   24 1 
    48   23   25 1 
    49   23   48 1 
    50   24   25 1 
    51   24   49 1 
    52   24   50 1 
    53   25   51 1 
    54   25   52 1 
    55   26   27 ar
    56   26   32 1 
    57   27   28 ar
    58   27   53 1 
    59   28   54 1 
@<TRIPOS>SUBSTRUCTURE
1 MOL         1
@<TRIPOS>MOLECULE
query molecule
   55    59     1     0     0
SMALL
NO_CHARGE

@<TRIPOS>ATOM
      1 N         -10.4268  -70.2069   16.4723 N.am      1 MOL    -0.2945
      2 N          -8.1936  -68.9401   15.1425 N.am      1 MOL    -0.2983
      3 N         -12.1290  -65.4390   20.2157 N.ar      1 MOL    -0.1750
      4 N         -12.2853  -64.4277   19.3675 N.ar      1 MOL    -0.2425
      5 C         -11.3240  -64.1622   18.3690 C.ar      1 MOL     0.2725
      6 C         -10.1455  -64.9296   18.3453 C.ar      1 MOL     0.0496
      7 C          -9.1540  -64.6853   17.3923 C.ar      1 MOL     0.0138
      8 C          -7.9693  -65.4188   17.4120 C.ar      1 MOL     0.0008
      9 C          -7.7694  -66.3903   18.3932 C.ar      1 MOL     0.0007
     10 C          -8.7692  -66.6633   19.3282 C.ar      1 MOL     0.0103
     11 C          -9.9821  -65.9585   19.3099 C.ar      1 MOL     0.0106
     12 C         -11.0339  -66.2525   20.1980 C.ar      1 MOL     0.0736
     13 C         -10.9924  -67.4392   21.1105 C.3       1 MOL     0.0925
     14 C         -11.5473  -68.6680   20.4713 C.ar      1 MOL    -0.0406
     15 C         -11.2925  -68.9798   19.1338 C.ar      1 MOL     0.0196
     16 C         -11.8197  -70.1225   18.5202 C.ar      1 MOL     0.0723
     17 C         -11.6221  -70.4072   17.0756 C.2       1 MOL     0.2495
     18 C         -10.3447  -70.2124   15.0102 C.3       1 MOL     0.1268
     19 C          -9.4760  -69.0323   14.4639 C.3       1 MOL     0.1265
     20 C          -8.2502  -68.9947   16.6035 C.3       1 MOL     0.1265
     21 C          -9.1504  -70.1308   17.1606 C.3       1 MOL     0.1268
     22 C          -7.0764  -68.3779   14.5870 C.2       1 MOL     0.2187
     23 C          -7.1207  -67.9275   13.1700 C.3       1 MOL     0.0752
     24 C          -6.6111  -68.9701   12.2368 C.3       1 MOL     0.0134
     25 C          -5.7636  -67.7711   12.5576 C.3       1 MOL     0.0134
     26 C         -12.5857  -70.9889   19.3102 C.ar      1 MOL     0.1355
     27 C         -12.8515  -70.7065   20.6508 C.ar      1 MOL     0.0392
     28 C         -12.3371  -69.5423   21.2286 C.ar      1 MOL     0.0066
     29 O         -11.5798  -63.2828   17.5356 O.2       1 MOL    -0.2658
     30 O          -6.0435  -68.1778   15.2494 O.2       1 MOL    -0.2753
     31 O         -12.6300  -70.7842   16.4561 O.2       1 MOL    -0.2699
     32 F         -13.0816  -72.1297   18.7783 F         1 MOL    -0.2047
     33 H          -9.3029  -63.9222   16.6431 H         1 MOL     0.0625
     34 H          -7.2052  -65.2327   16.6724 H         1 MOL     0.0618
     35 H          -6.8419  -66.9440   18.4207 H         1 MOL     0.0618
     36 H          -8.6086  -67.4330   20.0709 H         1 MOL     0.0624
     37 H         -11.5933  -67.2126   22.0103 H         1 MOL     0.0377
     38 H          -9.9401  -67.6352   21.3870 H         1 MOL     0.0377
     39 H         -10.6829  -68.3080   18.5415 H         1 MOL     0.0629
     40 H         -11.3753  -70.1738   14.5878 H         1 MOL     0.0480
     41 H          -9.8826  -71.1792   14.6933 H         1 MOL     0.0480
     42 H         -10.0205  -68.0712   14.6400 H         1 MOL     0.0480
     43 H          -9.3077  -69.1305   13.3679 H         1 MOL     0.0480
     44 H          -8.6808  -68.0180   16.9464 H         1 MOL     0.0480
     45 H          -7.2143  -69.0598   17.0090 H         1 MOL     0.0480
     46 H          -9.3331  -69.9739   18.2494 H         1 MOL     0.0480
     47 H          -8.6326  -71.1124   17.0390 H         1 MOL     0.0480
     48 H          -7.9250  -67.2864   12.9129 H         1 MOL     0.0394
     49 H          -7.0367  -68.9954   11.2405 H         1 MOL     0.0273
     50 H          -6.2885  -69.9103   12.6660 H         1 MOL     0.0273
     51 H          -5.6602  -67.0207   11.7835 H         1 MOL     0.0273
     52 H          -4.9123  -67.9419   13.2050 H         1 MOL     0.0273
     53 H         -13.4503  -71.3844   21.2402 H         1 MOL     0.0646
     54 H         -12.5460  -69.3195   22.2648 H         1 MOL     0.0621
     55 H         -13.0807  -63.8130   19.4040 H         1 MOL     0.1921
@<TRIPOS>BOND
     1    1   18 1 
     2    1   21 1 
     3    1   17 am
     4    2   20 1 
     5    2   22 am
     6    2   19 1 
     7    3    4 ar
     8    3   12 ar
     9    4   55 1 
    10    4    5 ar
    11    5    6 ar
    12    5   29 2 
    13    6    7 ar
    14    6   11 ar
    15    7    8 ar
    16    7   33 1 
    17    8    9 ar
    18    8   34 1 
    19    9   10 ar
    20    9   35 1 
    21   10   11 ar
    22   10   36 1 
    23   11   12 ar
    24   12   13 1 
    25   13   14 1 
    26   13   37 1 
    27   13   38 1 
    28   14   15 ar
    29   14   28 ar
    30   15   16 ar
    31   15   39 1 
    32   16   17 1 
    33   16   26 ar
    34   17   31 2 
    35   18   19 1 
    36   18   40 1 
    37   18   41 1 
    38   19   42 1 
    39   19   43 1 
    40   20   21 1 
    41   20   44 1 
    42   20   45 1 
    43   21   46 1 
    44   21   47 1 
    45   22   23 1 
    46   22   30 2 
    47   23   24 1 
    48   23   25 1 
    49   23   48 1 
    50   24   25 1 
    51   24   49 1 
    52   24   50 1 
    53   25   51 1 
    54   25   52 1 
    55   26   27 ar
    56   26   32 1 
    57   27   28 ar
    58   27   53 1 
    59   28   54 1 
@<TRIPOS>SUBSTRUCTURE
1 MOL         1
@<TRIPOS>MOLECULE
query molecule
   55    59     1     0     0
SMALL
NO_CHARGE

@<TRIPOS>ATOM
      1 N         -29.5257  -25.0862   18.2893 N.am      1 MOL    -0.2945
      2 N         -31.6861  -23.7302   17.0226 N.am      1 MOL    -0.2983
      3 N         -27.1566  -23.7205   14.1115 N.ar      1 MOL    -0.1750
      4 N         -28.1459  -23.2062   13.3849 N.ar      1 MOL    -0.2425
      5 C         -28.6262  -23.8844   12.2406 C.ar      1 MOL     0.2725
      6 C         -28.0165  -25.1176   11.9013 C.ar      1 MOL     0.0496
      7 C         -28.4315  -25.8276   10.7725 C.ar      1 MOL     0.0138
      8 C         -27.8376  -27.0441   10.4395 C.ar      1 MOL     0.0008
      9 C         -26.8244  -27.5671   11.2408 C.ar      1 MOL     0.0007
     10 C         -26.3983  -26.8702   12.3729 C.ar      1 MOL     0.0103
     11 C         -26.9761  -25.6379   12.7246 C.ar      1 MOL     0.0106
     12 C         -26.5476  -24.9139   13.8531 C.ar      1 MOL     0.0736
     13 C         -25.4406  -25.4036   14.7297 C.3       1 MOL     0.0925
     14 C         -25.8542  -25.9664   16.0372 C.ar      1 MOL    -0.0406
     15 C         -26.8382  -25.3854   16.8346 C.ar      1 MOL     0.0196
     16 C         -27.2339  -25.9621   18.0540 C.ar      1 MOL     0.0723
     17 C         -28.3298  -25.3723   18.8603 C.2       1 MOL     0.2495
     18 C         -30.6153  -24.5561   19.1144 C.3       1 MOL     0.1268
     19 C         -31.3894  -23.3948   18.4063 C.3       1 MOL     0.1265
     20 C         -30.5256  -24.1254   16.2333 C.3       1 MOL     0.1265
     21 C         -29.8593  -25.3653   16.9004 C.3       1 MOL     0.1268
     22 C         -32.9263  -23.8371   16.4813 C.2       1 MOL     0.2187
     23 C         -34.0944  -23.5000   17.3231 C.3       1 MOL     0.0752
     24 C         -35.1511  -22.7736   16.5659 C.3       1 MOL     0.0134
     25 C         -34.2388  -22.0271   17.4957 C.3       1 MOL     0.0134
     26 C         -26.5734  -27.1103   18.4969 C.ar      1 MOL     0.1355
     27 C         -25.5629  -27.6768   17.7295 C.ar      1 MOL     0.0392
     28 C         -25.2115  -27.1247   16.4980 C.ar      1 MOL     0.0066
     29 O         -29.5688  -23.3763   11.6123 O.2       1 MOL    -0.2658
     30 O         -33.1221  -24.2791   15.3407 O.2       1 MOL    -0.2753
     31 O         -28.0939  -25.1875   20.0617 O.2       1 MOL    -0.2699
     32 F         -26.9078  -27.6883   19.6751 F         1 MOL    -0.2047
     33 H         -29.2132  -25.4284   10.1571 H         1 MOL     0.0625
     34 H         -28.1759  -27.5798    9.5640 H         1 MOL     0.0618
     35 H         -26.3687  -28.5087   10.9798 H         1 MOL     0.0618
     36 H         -25.6093  -27.2835   12.9854 H         1 MOL     0.0624
     37 H         -24.7496  -24.5593   14.9192 H         1 MOL     0.0377
     38 H         -24.9037  -26.2037   14.1759 H         1 MOL     0.0377
     39 H         -27.3218  -24.4804   16.5047 H         1 MOL     0.0629
     40 H         -30.2106  -24.2329   20.0997 H         1 MOL     0.0480
     41 H         -31.3341  -25.3931   19.3010 H         1 MOL     0.0480
     42 H         -30.7548  -22.4755   18.4096 H         1 MOL     0.0480
     43 H         -32.3377  -23.1599   18.9396 H         1 MOL     0.0480
     44 H         -29.8072  -23.2744   16.1946 H         1 MOL     0.0480
     45 H         -30.8473  -24.3601   15.1940 H         1 MOL     0.0480
     46 H         -28.9344  -25.6691   16.3592 H         1 MOL     0.0480
     47 H         -30.5678  -26.2286   16.8781 H         1 MOL     0.0480
     48 H         -34.3260  -24.1872   18.0926 H         1 MOL     0.0394
     49 H         -36.1735  -22.9115   16.8977 H         1 MOL     0.0273
     50 H         -34.9849  -22.6195   15.5101 H         1 MOL     0.0273
     51 H         -34.6710  -21.6839   18.4281 H         1 MOL     0.0273
     52 H         -33.4878  -21.3988   17.0328 H         1 MOL     0.0273
     53 H         -25.0557  -28.5717   18.0835 H         1 MOL     0.0646
     54 H         -24.4379  -27.5856   15.9011 H         1 MOL     0.0621
     55 H         -28.5854  -22.3321   13.6142 H         1 MOL     0.1921
@<TRIPOS>BOND
     1    1   18 1 
     2    1   21 1 
     3    1   17 am
     4    2   20 1 
     5    2   22 am
     6    2   19 1 
     7    3    4 ar
     8    3   12 ar
     9    4   55 1 
    10    4    5 ar
    11    5    6 ar
    12    5   29 2 
    13    6    7 ar
    14    6   11 ar
    15    7    8 ar
    16    7   33 1 
    17    8    9 ar
    18    8   34 1 
    19    9   10 ar
    20    9   35 1 
    21   10   11 ar
    22   10   36 1 
    23   11   12 ar
    24   12   13 1 
    25   13   14 1 
    26   13   37 1 
    27   13   38 1 
    28   14   15 ar
    29   14   28 ar
    30   15   16 ar
    31   15   39 1 
    32   16   17 1 
    33   16   26 ar
    34   17   31 2 
    35   18   19 1 
    36   18   40 1 
    37   18   41 1 
    38   19   42 1 
    39   19   43 1 
    40   20   21 1 
    41   20   44 1 
    42   20   45 1 
    43   21   46 1 
    44   21   47 1 
    45   22   23 1 
    46   22   30 2 
    47   23   24 1 
    48   23   25 1 
    49   23   48 1 
    50   24   25 1 
    51   24   49 1 
    52   24   50 1 
    53   25   51 1 
    54   25   52 1 
    55   26   27 ar
    56   26   32 1 
    57   27   28 ar
    58   27   53 1 
    59   28   54 1 
@<TRIPOS>SUBSTRUCTURE
1 MOL         1
@<TRIPOS>MOLECULE
query molecule
   55    59     1     0     0
SMALL
NO_CHARGE

@<TRIPOS>ATOM
      1 N         -16.0331  -42.6313  -13.2284 N.am      1 MOL    -0.2945
      2 N         -14.1535  -42.7211  -11.0871 N.am      1 MOL    -0.2983
      3 N         -22.1146  -42.2677   -9.2254 N.ar      1 MOL    -0.1750
      4 N         -23.2859  -42.0988   -8.6263 N.ar      1 MOL    -0.2425
      5 C         -24.3347  -43.0195   -8.8305 C.ar      1 MOL     0.2725
      6 C         -24.1053  -44.1308   -9.6692 C.ar      1 MOL     0.0496
      7 C         -25.0916  -45.1023   -9.8635 C.ar      1 MOL     0.0138
      8 C         -24.8835  -46.1645  -10.7421 C.ar      1 MOL     0.0008
      9 C         -23.6776  -46.2611  -11.4374 C.ar      1 MOL     0.0007
     10 C         -22.6654  -45.3206  -11.2235 C.ar      1 MOL     0.0103
     11 C         -22.8434  -44.2596  -10.3198 C.ar      1 MOL     0.0106
     12 C         -21.8248  -43.3354  -10.0276 C.ar      1 MOL     0.0736
     13 C         -20.4325  -43.5044  -10.5187 C.3       1 MOL     0.0925
     14 C         -20.0722  -42.7193  -11.7065 C.ar      1 MOL    -0.0406
     15 C         -18.8761  -43.0705  -12.3479 C.ar      1 MOL     0.0196
     16 C         -18.4451  -42.3816  -13.4907 C.ar      1 MOL     0.0723
     17 C         -17.1213  -42.7701  -14.0333 C.2       1 MOL     0.2495
     18 C         -15.0275  -43.6936  -13.2040 C.3       1 MOL     0.1268
     19 C         -14.4879  -43.9637  -11.7574 C.3       1 MOL     0.1265
     20 C         -15.2395  -41.7401  -11.0353 C.3       1 MOL     0.1265
     21 C         -15.7540  -41.4220  -12.4687 C.3       1 MOL     0.1268
     22 C         -13.0157  -42.4595  -10.3959 C.2       1 MOL     0.2187
     23 C         -11.9820  -43.5122  -10.2617 C.3       1 MOL     0.0752
     24 C         -10.6074  -42.9385  -10.4048 C.3       1 MOL     0.0134
     25 C         -11.2047  -43.7632  -11.5054 C.3       1 MOL     0.0134
     26 C         -19.2567  -41.3867  -14.0197 C.ar      1 MOL     0.1355
     27 C         -20.4233  -40.9878  -13.3582 C.ar      1 MOL     0.0392
     28 C         -20.8223  -41.6488  -12.1915 C.ar      1 MOL     0.0066
     29 O         -25.4148  -42.7883   -8.2645 O.2       1 MOL    -0.2658
     30 O         -12.8343  -41.3708   -9.8228 O.2       1 MOL    -0.2753
     31 O         -17.1096  -43.3925  -15.0998 O.2       1 MOL    -0.2699
     32 F         -18.9302  -40.7806  -15.1851 F         1 MOL    -0.2047
     33 H         -26.0307  -45.0237   -9.3337 H         1 MOL     0.0625
     34 H         -25.6567  -46.9054  -10.8859 H         1 MOL     0.0618
     35 H         -23.5272  -47.0702  -12.1388 H         1 MOL     0.0618
     36 H         -21.7310  -45.4141  -11.7615 H         1 MOL     0.0624
     37 H         -20.2834  -44.5755  -10.7683 H         1 MOL     0.0377
     38 H         -19.7463  -43.2214   -9.6947 H         1 MOL     0.0377
     39 H         -18.2678  -43.8719  -11.9499 H         1 MOL     0.0629
     40 H         -14.1715  -43.3690  -13.8445 H         1 MOL     0.0480
     41 H         -15.4662  -44.6161  -13.6493 H         1 MOL     0.0480
     42 H         -13.5928  -44.6247  -11.7866 H         1 MOL     0.0480
     43 H         -15.2744  -44.4757  -11.1501 H         1 MOL     0.0480
     44 H         -14.8865  -40.8179  -10.5196 H         1 MOL     0.0480
     45 H         -16.0711  -42.1774  -10.4300 H         1 MOL     0.0480
     46 H         -14.9606  -40.8520  -13.0132 H         1 MOL     0.0480
     47 H         -16.6698  -40.7893  -12.4322 H         1 MOL     0.0480
     48 H         -12.1864  -44.2772   -9.5568 H         1 MOL     0.0394
     49 H          -9.8174  -43.3860   -9.8145 H         1 MOL     0.0273
     50 H         -10.5399  -41.8714  -10.5821 H         1 MOL     0.0273
     51 H         -10.7786  -44.7547  -11.6211 H         1 MOL     0.0273
     52 H         -11.5126  -43.2413  -12.4020 H         1 MOL     0.0273
     53 H         -21.0040  -40.1649  -13.7495 H         1 MOL     0.0646
     54 H         -21.7064  -41.3221  -11.6657 H         1 MOL     0.0621
     55 H         -23.4912  -41.3383   -7.9984 H         1 MOL     0.1921
@<TRIPOS>BOND
     1    1   18 1 
     2    1   21 1 
     3    1   17 am
     4    2   20 1 
     5    2   22 am
     6    2   19 1 
     7    3    4 ar
     8    3   12 ar
     9    4   55 1 
    10    4    5 ar
    11    5    6 ar
    12    5   29 2 
    13    6    7 ar
    14    6   11 ar
    15    7    8 ar
    16    7   33 1 
    17    8    9 ar
    18    8   34 1 
    19    9   10 ar
    20    9   35 1 
    21   10   11 ar
    22   10   36 1 
    23   11   12 ar
    24   12   13 1 
    25   13   14 1 
    26   13   37 1 
    27   13   38 1 
    28   14   15 ar
    29   14   28 ar
    30   15   16 ar
    31   15   39 1 
    32   16   17 1 
    33   16   26 ar
    34   17   31 2 
    35   18   19 1 
    36   18   40 1 
    37   18   41 1 
    38   19   42 1 
    39   19   43 1 
    40   20   21 1 
    41   20   44 1 
    42   20   45 1 
    43   21   46 1 
    44   21   47 1 
    45   22   23 1 
    46   22   30 2 
    47   23   24 1 
    48   23   25 1 
    49   23   48 1 
    50   24   25 1 
    51   24   49 1 
    52   24   50 1 
    53   25   51 1 
    54   25   52 1 
    55   26   27 ar
    56   26   32 1 
    57   27   28 ar
    58   27   53 1 
    59   28   54 1 
@<TRIPOS>SUBSTRUCTURE
1 MOL         1
@<TRIPOS>MOLECULE
query molecule
   55    59     1     0     0
SMALL
NO_CHARGE

@<TRIPOS>ATOM
      1 N         -62.3504  -70.4639   -5.3077 N.am      1 MOL    -0.2945
      2 N         -63.6055  -70.1775   -7.8660 N.am      1 MOL    -0.2983
      3 N         -62.1978  -74.0594    1.5956 N.ar      1 MOL    -0.1750
      4 N         -61.3690  -74.9699    2.0903 N.ar      1 MOL    -0.2425
      5 C         -59.9884  -74.7043    2.2008 C.ar      1 MOL     0.2725
      6 C         -59.5091  -73.4484    1.7682 C.ar      1 MOL     0.0496
      7 C         -58.1517  -73.1270    1.8579 C.ar      1 MOL     0.0138
      8 C         -57.6936  -71.8845    1.4238 C.ar      1 MOL     0.0008
      9 C         -58.5858  -70.9514    0.8984 C.ar      1 MOL     0.0007
     10 C         -59.9418  -71.2621    0.8063 C.ar      1 MOL     0.0103
     11 C         -60.4325  -72.5033    1.2372 C.ar      1 MOL     0.0106
     12 C         -61.7930  -72.8373    1.1464 C.ar      1 MOL     0.0736
     13 C         -62.8110  -71.9035    0.5889 C.3       1 MOL     0.0925
     14 C         -63.0644  -72.1534   -0.8536 C.ar      1 MOL    -0.0406
     15 C         -62.3080  -71.5156   -1.8473 C.ar      1 MOL     0.0196
     16 C         -62.5569  -71.7541   -3.2124 C.ar      1 MOL     0.0723
     17 C         -61.7552  -71.0163   -4.2205 C.2       1 MOL     0.2495
     18 C         -61.5463  -70.0193   -6.4470 C.3       1 MOL     0.1268
     19 C         -62.1766  -70.4333   -7.8185 C.3       1 MOL     0.1265
     20 C         -64.3907  -70.6259   -6.7139 C.3       1 MOL     0.1265
     21 C         -63.7682  -70.1492   -5.3716 C.3       1 MOL     0.1268
     22 C         -64.2999  -69.7674   -8.9671 C.2       1 MOL     0.2187
     23 C         -63.5615  -69.5458  -10.2339 C.3       1 MOL     0.0752
     24 C         -64.4595  -69.4034  -11.4132 C.3       1 MOL     0.0134
     25 C         -63.7456  -70.7031  -11.1594 C.3       1 MOL     0.0134
     26 C         -63.5414  -72.6835   -3.5517 C.ar      1 MOL     0.1355
     27 C         -64.3208  -73.3024   -2.5729 C.ar      1 MOL     0.0392
     28 C         -64.0877  -73.0331   -1.2243 C.ar      1 MOL     0.0066
     29 O         -59.2602  -75.5971    2.6732 O.2       1 MOL    -0.2658
     30 O         -65.5213  -69.5529   -8.9273 O.2       1 MOL    -0.2753
     31 O         -60.5361  -70.9690   -4.0254 O.2       1 MOL    -0.2699
     32 F         -63.7637  -73.0122   -4.8476 F         1 MOL    -0.2047
     33 H         -57.4533  -73.8432    2.2638 H         1 MOL     0.0625
     34 H         -56.6437  -71.6419    1.4969 H         1 MOL     0.0618
     35 H         -58.2284  -69.9887    0.5613 H         1 MOL     0.0618
     36 H         -60.6281  -70.5352    0.3945 H         1 MOL     0.0624
     37 H         -62.4407  -70.8688    0.7040 H         1 MOL     0.0377
     38 H         -63.7583  -72.0400    1.1418 H         1 MOL     0.0377
     39 H         -61.5255  -70.8257   -1.5622 H         1 MOL     0.0629
     40 H         -60.5116  -70.4204   -6.3461 H         1 MOL     0.0480
     41 H         -61.4824  -68.9029   -6.4023 H         1 MOL     0.0480
     42 H         -62.0224  -71.5310   -7.9660 H         1 MOL     0.0480
     43 H         -61.6770  -69.9036   -8.6630 H         1 MOL     0.0480
     44 H         -64.4224  -71.7420   -6.7346 H         1 MOL     0.0480
     45 H         -65.4358  -70.2542   -6.8214 H         1 MOL     0.0480
     46 H         -64.2864  -70.6351   -4.5130 H         1 MOL     0.0480
     47 H         -63.8898  -69.0460   -5.2670 H         1 MOL     0.0480
     48 H         -62.6309  -69.0459  -10.1669 H         1 MOL     0.0394
     49 H         -64.1131  -68.8053  -12.2449 H         1 MOL     0.0273
     50 H         -65.5233  -69.3859  -11.2020 H         1 MOL     0.0273
     51 H         -62.9521  -70.9379  -11.8569 H         1 MOL     0.0273
     52 H         -64.3600  -71.5247  -10.8126 H         1 MOL     0.0273
     53 H         -65.1008  -73.9914   -2.8617 H         1 MOL     0.0646
     54 H         -64.6945  -73.5068   -0.4675 H         1 MOL     0.0621
     55 H         -61.6847  -75.8719    2.4026 H         1 MOL     0.1921
@<TRIPOS>BOND
     1    1   18 1 
     2    1   21 1 
     3    1   17 am
     4    2   20 1 
     5    2   22 am
     6    2   19 1 
     7    3    4 ar
     8    3   12 ar
     9    4   55 1 
    10    4    5 ar
    11    5    6 ar
    12    5   29 2 
    13    6    7 ar
    14    6   11 ar
    15    7    8 ar
    16    7   33 1 
    17    8    9 ar
    18    8   34 1 
    19    9   10 ar
    20    9   35 1 
    21   10   11 ar
    22   10   36 1 
    23   11   12 ar
    24   12   13 1 
    25   13   14 1 
    26   13   37 1 
    27   13   38 1 
    28   14   15 ar
    29   14   28 ar
    30   15   16 ar
    31   15   39 1 
    32   16   17 1 
    33   16   26 ar
    34   17   31 2 
    35   18   19 1 
    36   18   40 1 
    37   18   41 1 
    38   19   42 1 
    39   19   43 1 
    40   20   21 1 
    41   20   44 1 
    42   20   45 1 
    43   21   46 1 
    44   21   47 1 
    45   22   23 1 
    46   22   30 2 
    47   23   24 1 
    48   23   25 1 
    49   23   48 1 
    50   24   25 1 
    51   24   49 1 
    52   24   50 1 
    53   25   51 1 
    54   25   52 1 
    55   26   27 ar
    56   26   32 1 
    57   27   28 ar
    58   27   53 1 
    59   28   54 1 
@<TRIPOS>SUBSTRUCTURE
1 MOL         1
@<TRIPOS>MOLECULE
query molecule
   55    59     1     0     0
SMALL
NO_CHARGE

@<TRIPOS>ATOM
      1 N         -44.8226  -46.5551   26.2741 N.am      1 MOL    -0.2945
      2 N         -47.2938  -46.8166   24.8433 N.am      1 MOL    -0.2983
      3 N         -40.9407  -41.9041   25.1740 N.ar      1 MOL    -0.1750
      4 N         -40.9841  -41.7214   23.8641 N.ar      1 MOL    -0.2425
      5 C         -40.0430  -42.3540   23.0272 C.ar      1 MOL     0.2725
      6 C         -39.0297  -43.1364   23.6222 C.ar      1 MOL     0.0496
      7 C         -38.0341  -43.7327   22.8492 C.ar      1 MOL     0.0138
      8 C         -37.0269  -44.4909   23.4399 C.ar      1 MOL     0.0008
      9 C         -37.0175  -44.6688   24.8234 C.ar      1 MOL     0.0007
     10 C         -38.0146  -44.0912   25.6125 C.ar      1 MOL     0.0103
     11 C         -39.0297  -43.3155   25.0330 C.ar      1 MOL     0.0106
     12 C         -40.0419  -42.7205   25.7984 C.ar      1 MOL     0.0736
     13 C         -40.1726  -42.9513   27.2712 C.3       1 MOL     0.0925
     14 C         -41.5682  -43.3753   27.5716 C.ar      1 MOL    -0.0406
     15 C         -42.0164  -44.6684   27.2730 C.ar      1 MOL     0.0196
     16 C         -43.3528  -45.0241   27.5123 C.ar      1 MOL     0.0723
     17 C         -43.8168  -46.3864   27.1675 C.2       1 MOL     0.2495
     18 C         -45.4224  -47.8783   26.1272 C.3       1 MOL     0.1268
     19 C         -46.9498  -47.8376   25.8193 C.3       1 MOL     0.1265
     20 C         -46.7780  -45.4789   25.1305 C.3       1 MOL     0.1265
     21 C         -45.2349  -45.5249   25.3283 C.3       1 MOL     0.1268
     22 C         -48.1481  -46.9851   23.7941 C.2       1 MOL     0.2187
     23 C         -48.3712  -48.3596   23.2864 C.3       1 MOL     0.0752
     24 C         -49.4876  -48.4387   22.2981 C.3       1 MOL     0.0134
     25 C         -49.6543  -48.9822   23.6897 C.3       1 MOL     0.0134
     26 C         -44.2195  -44.0859   28.0767 C.ar      1 MOL     0.1355
     27 C         -43.7750  -42.8021   28.3926 C.ar      1 MOL     0.0392
     28 C         -42.4491  -42.4460   28.1400 C.ar      1 MOL     0.0066
     29 O         -40.1759  -42.2145   21.8025 O.2       1 MOL    -0.2658
     30 O         -48.6548  -46.0233   23.1951 O.2       1 MOL    -0.2753
     31 O         -43.2625  -47.3162   27.7640 O.2       1 MOL    -0.2699
     32 F         -45.5097  -44.4139   28.3284 F         1 MOL    -0.2047
     33 H         -38.0426  -43.5977   21.7759 H         1 MOL     0.0625
     34 H         -36.2559  -44.9336   22.8280 H         1 MOL     0.0618
     35 H         -36.2354  -45.2550   25.2830 H         1 MOL     0.0618
     36 H         -37.9997  -44.2408   26.6831 H         1 MOL     0.0624
     37 H         -39.9625  -42.0067   27.8012 H         1 MOL     0.0377
     38 H         -39.4742  -43.7446   27.5791 H         1 MOL     0.0377
     39 H         -41.3340  -45.3868   26.8425 H         1 MOL     0.0629
     40 H         -45.2066  -48.4806   27.0385 H         1 MOL     0.0480
     41 H         -44.9135  -48.3773   25.2638 H         1 MOL     0.0480
     42 H         -47.4922  -47.5909   26.7662 H         1 MOL     0.0480
     43 H         -47.3150  -48.8271   25.4655 H         1 MOL     0.0480
     44 H         -47.2671  -45.0984   26.0568 H         1 MOL     0.0480
     45 H         -47.0423  -44.7945   24.2921 H         1 MOL     0.0480
     46 H         -44.8338  -44.5399   25.6593 H         1 MOL     0.0480
     47 H         -44.7623  -45.7640   24.3418 H         1 MOL     0.0480
     48 H         -47.4888  -48.9333   23.1374 H         1 MOL     0.0394
     49 H         -49.3708  -49.1528   21.4924 H         1 MOL     0.0273
     50 H         -50.0235  -47.5230   22.0741 H         1 MOL     0.0273
     51 H         -49.6566  -50.0650   23.7706 H         1 MOL     0.0273
     52 H         -50.2920  -48.4333   24.3688 H         1 MOL     0.0273
     53 H         -44.4528  -42.0844   28.8295 H         1 MOL     0.0646
     54 H         -42.1023  -41.4504   28.3761 H         1 MOL     0.0621
     55 H         -41.6717  -41.1397   23.4190 H         1 MOL     0.1921
@<TRIPOS>BOND
     1    1   18 1 
     2    1   21 1 
     3    1   17 am
     4    2   20 1 
     5    2   22 am
     6    2   19 1 
     7    3    4 ar
     8    3   12 ar
     9    4   55 1 
    10    4    5 ar
    11    5    6 ar
    12    5   29 2 
    13    6    7 ar
    14    6   11 ar
    15    7    8 ar
    16    7   33 1 
    17    8    9 ar
    18    8   34 1 
    19    9   10 ar
    20    9   35 1 
    21   10   11 ar
    22   10   36 1 
    23   11   12 ar
    24   12   13 1 
    25   13   14 1 
    26   13   37 1 
    27   13   38 1 
    28   14   15 ar
    29   14   28 ar
    30   15   16 ar
    31   15   39 1 
    32   16   17 1 
    33   16   26 ar
    34   17   31 2 
    35   18   19 1 
    36   18   40 1 
    37   18   41 1 
    38   19   42 1 
    39   19   43 1 
    40   20   21 1 
    41   20   44 1 
    42   20   45 1 
    43   21   46 1 
    44   21   47 1 
    45   22   23 1 
    46   22   30 2 
    47   23   24 1 
    48   23   25 1 
    49   23   48 1 
    50   24   25 1 
    51   24   49 1 
    52   24   50 1 
    53   25   51 1 
    54   25   52 1 
    55   26   27 ar
    56   26   32 1 
    57   27   28 ar
    58   27   53 1 
    59   28   54 1 
@<TRIPOS>SUBSTRUCTURE
1 MOL         1
@<TRIPOS>MOLECULE
query molecule
   55    59     1     0     0
SMALL
NO_CHARGE

@<TRIPOS>ATOM
      1 N         -58.5977  -55.4583  -26.1765 N.am      1 MOL    -0.2945
      2 N         -57.2769  -57.3801  -24.5426 N.am      1 MOL    -0.2983
      3 N         -63.4541  -51.7323  -22.5126 N.ar      1 MOL    -0.1750
      4 N         -64.2394  -50.7180  -22.1628 N.ar      1 MOL    -0.2425
      5 C         -65.6390  -50.7843  -22.3465 C.ar      1 MOL     0.2725
      6 C         -66.1890  -51.9305  -22.9597 C.ar      1 MOL     0.0496
      7 C         -67.5522  -52.0103  -23.2656 C.ar      1 MOL     0.0138
      8 C         -68.0829  -53.1597  -23.8467 C.ar      1 MOL     0.0008
      9 C         -67.2542  -54.2454  -24.1271 C.ar      1 MOL     0.0007
     10 C         -65.8931  -54.1724  -23.8346 C.ar      1 MOL     0.0103
     11 C         -65.3278  -53.0140  -23.2774 C.ar      1 MOL     0.0106
     12 C         -63.9474  -52.8921  -23.0426 C.ar      1 MOL     0.0736
     13 C         -63.0050  -53.9951  -23.3673 C.3       1 MOL     0.0925
     14 C         -62.5451  -53.9795  -24.7726 C.ar      1 MOL    -0.0406
     15 C         -61.1748  -54.1050  -24.9877 C.ar      1 MOL     0.0196
     16 C         -60.6596  -54.1638  -26.2854 C.ar      1 MOL     0.0723
     17 C         -59.1917  -54.2651  -26.4036 C.2       1 MOL     0.2495
     18 C         -57.1516  -55.6100  -26.3059 C.3       1 MOL     0.1268
     19 C         -56.5384  -56.2113  -24.9960 C.3       1 MOL     0.1265
     20 C         -58.7346  -57.2454  -24.4675 C.3       1 MOL     0.1265
     21 C         -59.3161  -56.6683  -25.7952 C.3       1 MOL     0.1268
     22 C         -56.7170  -58.5300  -24.0721 C.2       1 MOL     0.2187
     23 C         -55.2378  -58.6627  -24.0868 C.3       1 MOL     0.0752
     24 C         -54.7527  -59.7720  -23.2142 C.3       1 MOL     0.0134
     25 C         -54.6132  -58.3441  -22.7735 C.3       1 MOL     0.0134
     26 C         -61.5259  -54.1172  -27.3785 C.ar      1 MOL     0.1355
     27 C         -62.8951  -53.9522  -27.1766 C.ar      1 MOL     0.0392
     28 C         -63.3978  -53.8801  -25.8739 C.ar      1 MOL     0.0066
     29 O         -66.3336  -49.8421  -21.9192 O.2       1 MOL    -0.2658
     30 O         -57.4132  -59.4853  -23.6874 O.2       1 MOL    -0.2753
     31 O         -58.5845  -53.2153  -26.6410 O.2       1 MOL    -0.2699
     32 F         -61.0405  -54.2053  -28.6378 F         1 MOL    -0.2047
     33 H         -68.2007  -51.1752  -23.0385 H         1 MOL     0.0625
     34 H         -69.1357  -53.2104  -24.0844 H         1 MOL     0.0618
     35 H         -67.6634  -55.1390  -24.5746 H         1 MOL     0.0618
     36 H         -65.2574  -55.0187  -24.0612 H         1 MOL     0.0624
     37 H         -63.5111  -54.9602  -23.1753 H         1 MOL     0.0377
     38 H         -62.1165  -53.8968  -22.7128 H         1 MOL     0.0377
     39 H         -60.5034  -54.1628  -24.1427 H         1 MOL     0.0629
     40 H         -56.6997  -54.6280  -26.5672 H         1 MOL     0.0480
     41 H         -56.9611  -56.3112  -27.1566 H         1 MOL     0.0480
     42 H         -56.6003  -55.4333  -24.1961 H         1 MOL     0.0480
     43 H         -55.4667  -56.4759  -25.1347 H         1 MOL     0.0480
     44 H         -58.9795  -56.5517  -23.6280 H         1 MOL     0.0480
     45 H         -59.1809  -58.2391  -24.2355 H         1 MOL     0.0480
     46 H         -60.4000  -56.4365  -25.6895 H         1 MOL     0.0480
     47 H         -59.2038  -57.4163  -26.6163 H         1 MOL     0.0480
     48 H         -54.7567  -58.4280  -25.0020 H         1 MOL     0.0394
     49 H         -53.8525  -60.2888  -23.5209 H         1 MOL     0.0273
     50 H         -55.5156  -60.3609  -22.7160 H         1 MOL     0.0273
     51 H         -53.5962  -57.9676  -22.7673 H         1 MOL     0.0273
     52 H         -55.2638  -58.0217  -21.9704 H         1 MOL     0.0273
     53 H         -63.5648  -53.8823  -28.0207 H         1 MOL     0.0646
     54 H         -64.4602  -53.7519  -25.7176 H         1 MOL     0.0621
     55 H         -63.8842  -49.8616  -21.7676 H         1 MOL     0.1921
@<TRIPOS>BOND
     1    1   18 1 
     2    1   21 1 
     3    1   17 am
     4    2   20 1 
     5    2   22 am
     6    2   19 1 
     7    3    4 ar
     8    3   12 ar
     9    4   55 1 
    10    4    5 ar
    11    5    6 ar
    12    5   29 2 
    13    6    7 ar
    14    6   11 ar
    15    7    8 ar
    16    7   33 1 
    17    8    9 ar
    18    8   34 1 
    19    9   10 ar
    20    9   35 1 
    21   10   11 ar
    22   10   36 1 
    23   11   12 ar
    24   12   13 1 
    25   13   14 1 
    26   13   37 1 
    27   13   38 1 
    28   14   15 ar
    29   14   28 ar
    30   15   16 ar
    31   15   39 1 
    32   16   17 1 
    33   16   26 ar
    34   17   31 2 
    35   18   19 1 
    36   18   40 1 
    37   18   41 1 
    38   19   42 1 
    39   19   43 1 
    40   20   21 1 
    41   20   44 1 
    42   20   45 1 
    43   21   46 1 
    44   21   47 1 
    45   22   23 1 
    46   22   30 2 
    47   23   24 1 
    48   23   25 1 
    49   23   48 1 
    50   24   25 1 
    51   24   49 1 
    52   24   50 1 
    53   25   51 1 
    54   25   52 1 
    55   26   27 ar
    56   26   32 1 
    57   27   28 ar
    58   27   53 1 
    59   28   54 1 
@<TRIPOS>SUBSTRUCTURE
1 MOL         1
@<TRIPOS>MOLECULE
query molecule
   55    59     1     0     0
SMALL
NO_CHARGE

@<TRIPOS>ATOM
      1 N         -64.4466  -73.4208    1.6220 N.am      1 MOL    -0.2945
      2 N         -67.1984  -72.6498    1.8305 N.am      1 MOL    -0.2983
      3 N         -60.1056  -69.9293   -3.8359 N.ar      1 MOL    -0.1750
      4 N         -59.5578  -69.7312   -5.0297 N.ar      1 MOL    -0.2425
      5 C         -60.3192  -69.8721   -6.2105 C.ar      1 MOL     0.2725
      6 C         -61.6743  -70.2515   -6.0911 C.ar      1 MOL     0.0496
      7 C         -62.4750  -70.4420   -7.2217 C.ar      1 MOL     0.0138
      8 C         -63.8010  -70.8580   -7.0794 C.ar      1 MOL     0.0008
      9 C         -64.3388  -71.0747   -5.8087 C.ar      1 MOL     0.0007
     10 C         -63.5563  -70.8638   -4.6745 C.ar      1 MOL     0.0103
     11 C         -62.2196  -70.4544   -4.7900 C.ar      1 MOL     0.0106
     12 C         -61.4181  -70.2531   -3.6558 C.ar      1 MOL     0.0736
     13 C         -61.9503  -70.3688   -2.2724 C.3       1 MOL     0.0925
     14 C         -61.8521  -71.7010   -1.6424 C.ar      1 MOL    -0.0406
     15 C         -62.5410  -71.9088   -0.4325 C.ar      1 MOL     0.0196
     16 C         -62.4390  -73.1299    0.2430 C.ar      1 MOL     0.0723
     17 C         -63.0974  -73.3219    1.5545 C.2       1 MOL     0.2495
     18 C         -65.1033  -73.4715    2.9259 C.3       1 MOL     0.1268
     19 C         -66.3287  -72.5113    2.9904 C.3       1 MOL     0.1265
     20 C         -66.5406  -72.6475    0.5214 C.3       1 MOL     0.1265
     21 C         -65.3151  -73.5996    0.4695 C.3       1 MOL     0.1268
     22 C         -68.5432  -72.4117    1.8617 C.2       1 MOL     0.2187
     23 C         -69.1763  -72.0901    3.1667 C.3       1 MOL     0.0752
     24 C         -69.3698  -73.3060    4.0057 C.3       1 MOL     0.0134
     25 C         -70.5414  -72.6689    3.3124 C.3       1 MOL     0.0134
     26 C         -61.6829  -74.1598   -0.3235 C.ar      1 MOL     0.1355
     27 C         -61.0129  -73.9713   -1.5335 C.ar      1 MOL     0.0392
     28 C         -61.0930  -72.7407   -2.1833 C.ar      1 MOL     0.0066
     29 O         -59.7532  -69.6561   -7.2926 O.2       1 MOL    -0.2658
     30 O         -69.2356  -72.4046    0.8302 O.2       1 MOL    -0.2753
     31 O         -62.3525  -73.3628    2.5389 O.2       1 MOL    -0.2699
     32 F         -61.5914  -75.3626    0.2939 F         1 MOL    -0.2047
     33 H         -62.0648  -70.2766   -8.2071 H         1 MOL     0.0625
     34 H         -64.4139  -71.0157   -7.9552 H         1 MOL     0.0618
     35 H         -65.3607  -71.4074   -5.7013 H         1 MOL     0.0618
     36 H         -63.9789  -71.0268   -3.6925 H         1 MOL     0.0624
     37 H         -63.0150  -70.0642   -2.2811 H         1 MOL     0.0377
     38 H         -61.3733  -69.6623   -1.6365 H         1 MOL     0.0377
     39 H         -63.1441  -71.1145   -0.0150 H         1 MOL     0.0629
     40 H         -64.3622  -73.2237    3.7195 H         1 MOL     0.0480
     41 H         -65.4490  -74.5204    3.0973 H         1 MOL     0.0480
     42 H         -65.9468  -71.4602    3.0047 H         1 MOL     0.0480
     43 H         -66.9213  -72.6693    3.9193 H         1 MOL     0.0480
     44 H         -66.1848  -71.6024    0.3237 H         1 MOL     0.0480
     45 H         -67.2857  -72.9016   -0.2651 H         1 MOL     0.0480
     46 H         -64.7263  -73.4534   -0.4639 H         1 MOL     0.0480
     47 H         -65.6849  -74.6551    0.4790 H         1 MOL     0.0480
     48 H         -68.9207  -71.1545    3.5936 H         1 MOL     0.0394
     49 H         -69.3424  -73.1858    5.0827 H         1 MOL     0.0273
     50 H         -69.0305  -74.2520    3.6026 H         1 MOL     0.0273
     51 H         -71.2457  -72.1327    3.9360 H         1 MOL     0.0273
     52 H         -70.9413  -73.1944    2.4525 H         1 MOL     0.0273
     53 H         -60.4307  -74.7689   -1.9699 H         1 MOL     0.0646
     54 H         -60.5640  -72.5822   -3.1126 H         1 MOL     0.0621
     55 H         -58.5928  -69.4740   -5.1463 H         1 MOL     0.1921
@<TRIPOS>BOND
     1    1   18 1 
     2    1   21 1 
     3    1   17 am
     4    2   20 1 
     5    2   22 am
     6    2   19 1 
     7    3    4 ar
     8    3   12 ar
     9    4   55 1 
    10    4    5 ar
    11    5    6 ar
    12    5   29 2 
    13    6    7 ar
    14    6   11 ar
    15    7    8 ar
    16    7   33 1 
    17    8    9 ar
    18    8   34 1 
    19    9   10 ar
    20    9   35 1 
    21   10   11 ar
    22   10   36 1 
    23   11   12 ar
    24   12   13 1 
    25   13   14 1 
    26   13   37 1 
    27   13   38 1 
    28   14   15 ar
    29   14   28 ar
    30   15   16 ar
    31   15   39 1 
    32   16   17 1 
    33   16   26 ar
    34   17   31 2 
    35   18   19 1 
    36   18   40 1 
    37   18   41 1 
    38   19   42 1 
    39   19   43 1 
    40   20   21 1 
    41   20   44 1 
    42   20   45 1 
    43   21   46 1 
    44   21   47 1 
    45   22   23 1 
    46   22   30 2 
    47   23   24 1 
    48   23   25 1 
    49   23   48 1 
    50   24   25 1 
    51   24   49 1 
    52   24   50 1 
    53   25   51 1 
    54   25   52 1 
    55   26   27 ar
    56   26   32 1 
    57   27   28 ar
    58   27   53 1 
    59   28   54 1 
@<TRIPOS>SUBSTRUCTURE
1 MOL         1
@<TRIPOS>MOLECULE
query molecule
   55    59     1     0     0
SMALL
NO_CHARGE

@<TRIPOS>ATOM
      1 N         -32.5499  -65.4355  -17.4489 N.am      1 MOL    -0.2945
      2 N         -30.2009  -66.5233  -18.6696 N.am      1 MOL    -0.2983
      3 N         -31.5330  -59.1393  -16.7771 N.ar      1 MOL    -0.1750
      4 N         -31.0177  -58.3687  -15.8213 N.ar      1 MOL    -0.2425
      5 C         -31.8392  -57.5371  -15.0252 C.ar      1 MOL     0.2725
      6 C         -33.2341  -57.5741  -15.2316 C.ar      1 MOL     0.0496
      7 C         -34.0963  -56.8303  -14.4158 C.ar      1 MOL     0.0138
      8 C         -35.4741  -56.8650  -14.6414 C.ar      1 MOL     0.0008
      9 C         -35.9916  -57.6356  -15.6851 C.ar      1 MOL     0.0007
     10 C         -35.1347  -58.3813  -16.4977 C.ar      1 MOL     0.0103
     11 C         -33.7474  -58.3845  -16.2892 C.ar      1 MOL     0.0106
     12 C         -32.8661  -59.1445  -17.0844 C.ar      1 MOL     0.0736
     13 C         -33.2969  -59.9378  -18.2728 C.3       1 MOL     0.0925
     14 C         -34.0143  -61.1972  -17.9721 C.ar      1 MOL    -0.0406
     15 C         -33.3398  -62.3123  -17.4661 C.ar      1 MOL     0.0196
     16 C         -34.0376  -63.5004  -17.1992 C.ar      1 MOL     0.0723
     17 C         -33.3398  -64.6836  -16.6469 C.2       1 MOL     0.2495
     18 C         -32.0235  -66.7095  -16.9582 C.3       1 MOL     0.1268
     19 C         -30.5113  -66.9110  -17.3029 C.3       1 MOL     0.1265
     20 C         -30.7377  -65.2445  -19.1383 C.3       1 MOL     0.1265
     21 C         -32.2502  -65.0951  -18.8305 C.3       1 MOL     0.1268
     22 C         -29.2511  -67.1194  -19.4481 C.2       1 MOL     0.2187
     23 C         -28.5768  -68.3337  -18.9175 C.3       1 MOL     0.0752
     24 C         -27.2292  -67.9712  -18.3928 C.3       1 MOL     0.0134
     25 C         -27.3553  -68.7036  -19.6949 C.3       1 MOL     0.0134
     26 C         -35.4107  -63.5638  -17.4443 C.ar      1 MOL     0.1355
     27 C         -36.0908  -62.4609  -17.9629 C.ar      1 MOL     0.0392
     28 C         -35.3930  -61.2796  -18.2265 C.ar      1 MOL     0.0066
     29 O         -31.2908  -56.7955  -14.1911 O.2       1 MOL    -0.2658
     30 O         -28.9868  -66.7108  -20.5906 O.2       1 MOL    -0.2753
     31 O         -33.5478  -64.9285  -15.4558 O.2       1 MOL    -0.2699
     32 F         -36.0985  -64.7026  -17.1888 F         1 MOL    -0.2047
     33 H         -33.6956  -56.2269  -13.6141 H         1 MOL     0.0625
     34 H         -36.1397  -56.2926  -14.0138 H         1 MOL     0.0618
     35 H         -37.0564  -57.6551  -15.8678 H         1 MOL     0.0618
     36 H         -35.5491  -58.9743  -17.3040 H         1 MOL     0.0624
     37 H         -32.3843  -60.1963  -18.8475 H         1 MOL     0.0377
     38 H         -33.9606  -59.3018  -18.8917 H         1 MOL     0.0377
     39 H         -32.2766  -62.2595  -17.2802 H         1 MOL     0.0629
     40 H         -32.6085  -67.5215  -17.4545 H         1 MOL     0.0480
     41 H         -32.2037  -66.7811  -15.8610 H         1 MOL     0.0480
     42 H         -30.1967  -67.9611  -17.1196 H         1 MOL     0.0480
     43 H         -29.9080  -66.2482  -16.6324 H         1 MOL     0.0480
     44 H         -30.5228  -65.1252  -20.2227 H         1 MOL     0.0480
     45 H         -30.1794  -64.4435  -18.5915 H         1 MOL     0.0480
     46 H         -32.8286  -65.7833  -19.4916 H         1 MOL     0.0480
     47 H         -32.5933  -64.0536  -19.0350 H         1 MOL     0.0480
     48 H         -29.1836  -69.0706  -18.4646 H         1 MOL     0.0394
     49 H         -26.8663  -68.5516  -17.5512 H         1 MOL     0.0273
     50 H         -26.9461  -66.9292  -18.4406 H         1 MOL     0.0273
     51 H         -27.0584  -69.7450  -19.7005 H         1 MOL     0.0273
     52 H         -27.1439  -68.1263  -20.5868 H         1 MOL     0.0273
     53 H         -37.1510  -62.5212  -18.1623 H         1 MOL     0.0646
     54 H         -35.9175  -60.4242  -18.6294 H         1 MOL     0.0621
     55 H         -30.0280  -58.3597  -15.6361 H         1 MOL     0.1921
@<TRIPOS>BOND
     1    1   18 1 
     2    1   21 1 
     3    1   17 am
     4    2   20 1 
     5    2   22 am
     6    2   19 1 
     7    3    4 ar
     8    3   12 ar
     9    4   55 1 
    10    4    5 ar
    11    5    6 ar
    12    5   29 2 
    13    6    7 ar
    14    6   11 ar
    15    7    8 ar
    16    7   33 1 
    17    8    9 ar
    18    8   34 1 
    19    9   10 ar
    20    9   35 1 
    21   10   11 ar
    22   10   36 1 
    23   11   12 ar
    24   12   13 1 
    25   13   14 1 
    26   13   37 1 
    27   13   38 1 
    28   14   15 ar
    29   14   28 ar
    30   15   16 ar
    31   15   39 1 
    32   16   17 1 
    33   16   26 ar
    34   17   31 2 
    35   18   19 1 
    36   18   40 1 
    37   18   41 1 
    38   19   42 1 
    39   19   43 1 
    40   20   21 1 
    41   20   44 1 
    42   20   45 1 
    43   21   46 1 
    44   21   47 1 
    45   22   23 1 
    46   22   30 2 
    47   23   24 1 
    48   23   25 1 
    49   23   48 1 
    50   24   25 1 
    51   24   49 1 
    52   24   50 1 
    53   25   51 1 
    54   25   52 1 
    55   26   27 ar
    56   26   32 1 
    57   27   28 ar
    58   27   53 1 
    59   28   54 1 
@<TRIPOS>SUBSTRUCTURE
1 MOL         1
@<TRIPOS>MOLECULE
query molecule
   55    59     1     0     0
SMALL
NO_CHARGE

@<TRIPOS>ATOM
      1 N         -11.6111  -42.7509    7.3965 N.am      1 MOL    -0.2945
      2 N         -11.8865  -45.5808    6.8156 N.am      1 MOL    -0.2983
      3 N          -4.9081  -39.7895    7.9284 N.ar      1 MOL    -0.1750
      4 N          -3.8417  -39.3769    7.2549 N.ar      1 MOL    -0.2425
      5 C          -3.4020  -40.0595    6.0989 C.ar      1 MOL     0.2725
      6 C          -4.1630  -41.1602    5.6431 C.ar      1 MOL     0.0496
      7 C          -3.7793  -41.8778    4.5060 C.ar      1 MOL     0.0138
      8 C          -4.5597  -42.9404    4.0515 C.ar      1 MOL     0.0008
      9 C          -5.7355  -43.2875    4.7130 C.ar      1 MOL     0.0007
     10 C          -6.1155  -42.5933    5.8637 C.ar      1 MOL     0.0103
     11 C          -5.3327  -41.5398    6.3653 C.ar      1 MOL     0.0106
     12 C          -5.6530  -40.8694    7.5596 C.ar      1 MOL     0.0736
     13 C          -6.7513  -41.3234    8.4477 C.3       1 MOL     0.0925
     14 C          -7.9788  -40.5223    8.4419 C.ar      1 MOL    -0.0406
     15 C          -9.1484  -41.2424    8.2339 C.ar      1 MOL     0.0196
     16 C         -10.4287  -40.6887    8.2237 C.ar      1 MOL     0.0723
     17 C         -11.6433  -41.5199    7.9807 C.2       1 MOL     0.2495
     18 C         -12.8630  -43.2794    6.8282 C.3       1 MOL     0.1268
     19 C         -13.0869  -44.8079    7.0741 C.3       1 MOL     0.1265
     20 C         -10.6690  -45.0777    7.4494 C.3       1 MOL     0.1265
     21 C         -10.4394  -43.5780    7.1766 C.3       1 MOL     0.1268
     22 C         -11.8381  -46.8775    6.4011 C.2       1 MOL     0.2187
     23 C         -13.0866  -47.6676    6.3457 C.3       1 MOL     0.0752
     24 C         -13.0831  -48.5979    5.1776 C.3       1 MOL     0.0134
     25 C         -13.9501  -47.3729    5.1781 C.3       1 MOL     0.0134
     26 C         -10.4875  -39.3015    8.4714 C.ar      1 MOL     0.1355
     27 C          -9.3223  -38.5435    8.6900 C.ar      1 MOL     0.0392
     28 C          -8.0629  -39.1589    8.6645 C.ar      1 MOL     0.0066
     29 O          -2.3636  -39.6596    5.5486 O.2       1 MOL    -0.2658
     30 O         -10.7620  -47.4502    6.1533 O.2       1 MOL    -0.2753
     31 O         -12.7238  -40.9923    8.2977 O.2       1 MOL    -0.2699
     32 F         -11.6748  -38.6464    8.5108 F         1 MOL    -0.2047
     33 H          -2.8754  -41.6067    3.9793 H         1 MOL     0.0625
     34 H          -4.2491  -43.4945    3.1767 H         1 MOL     0.0618
     35 H          -6.3453  -44.0951    4.3362 H         1 MOL     0.0618
     36 H          -7.0247  -42.8787    6.3759 H         1 MOL     0.0624
     37 H          -6.3637  -41.3556    9.4853 H         1 MOL     0.0377
     38 H          -7.0333  -42.3506    8.1277 H         1 MOL     0.0377
     39 H          -9.0587  -42.3119    8.0683 H         1 MOL     0.0629
     40 H         -12.8209  -43.1163    5.7209 H         1 MOL     0.0480
     41 H         -13.7254  -42.6888    7.2159 H         1 MOL     0.0480
     42 H         -13.9107  -45.1914    6.4267 H         1 MOL     0.0480
     43 H         -13.3865  -44.9736    8.1360 H         1 MOL     0.0480
     44 H          -9.8000  -45.6840    7.1051 H         1 MOL     0.0480
     45 H         -10.7753  -45.2327    8.5516 H         1 MOL     0.0480
     46 H         -10.0831  -43.4266    6.1310 H         1 MOL     0.0480
     47 H          -9.6266  -43.2115    7.8560 H         1 MOL     0.0480
     48 H         -13.4708  -47.9801    7.2838 H         1 MOL     0.0394
     49 H         -13.5685  -49.5559    5.3244 H         1 MOL     0.0273
     50 H         -12.2214  -48.5734    4.5233 H         1 MOL     0.0273
     51 H         -15.0135  -47.5342    5.3200 H         1 MOL     0.0273
     52 H         -13.6513  -46.5553    4.5362 H         1 MOL     0.0273
     53 H          -9.3862  -37.4824    8.8850 H         1 MOL     0.0646
     54 H          -7.1693  -38.5750    8.8276 H         1 MOL     0.0621
     55 H          -3.3073  -38.5727    7.5355 H         1 MOL     0.1921
@<TRIPOS>BOND
     1    1   18 1 
     2    1   21 1 
     3    1   17 am
     4    2   20 1 
     5    2   22 am
     6    2   19 1 
     7    3    4 ar
     8    3   12 ar
     9    4   55 1 
    10    4    5 ar
    11    5    6 ar
    12    5   29 2 
    13    6    7 ar
    14    6   11 ar
    15    7    8 ar
    16    7   33 1 
    17    8    9 ar
    18    8   34 1 
    19    9   10 ar
    20    9   35 1 
    21   10   11 ar
    22   10   36 1 
    23   11   12 ar
    24   12   13 1 
    25   13   14 1 
    26   13   37 1 
    27   13   38 1 
    28   14   15 ar
    29   14   28 ar
    30   15   16 ar
    31   15   39 1 
    32   16   17 1 
    33   16   26 ar
    34   17   31 2 
    35   18   19 1 
    36   18   40 1 
    37   18   41 1 
    38   19   42 1 
    39   19   43 1 
    40   20   21 1 
    41   20   44 1 
    42   20   45 1 
    43   21   46 1 
    44   21   47 1 
    45   22   23 1 
    46   22   30 2 
    47   23   24 1 
    48   23   25 1 
    49   23   48 1 
    50   24   25 1 
    51   24   49 1 
    52   24   50 1 
    53   25   51 1 
    54   25   52 1 
    55   26   27 ar
    56   26   32 1 
    57   27   28 ar
    58   27   53 1 
    59   28   54 1 
@<TRIPOS>SUBSTRUCTURE
1 MOL         1
@<TRIPOS>MOLECULE
query molecule
   55    59     1     0     0
SMALL
NO_CHARGE

@<TRIPOS>ATOM
      1 N         -31.0103  -33.0136   21.9501 N.am      1 MOL    -0.2945
      2 N         -29.9583  -35.2208   23.4289 N.am      1 MOL    -0.2983
      3 N         -31.4622  -35.4313   17.5381 N.ar      1 MOL    -0.1750
      4 N         -30.4653  -36.1386   17.0245 N.ar      1 MOL    -0.2425
      5 C         -30.7220  -37.1598   16.0842 C.ar      1 MOL     0.2725
      6 C         -32.0482  -37.3335   15.6284 C.ar      1 MOL     0.0496
      7 C         -32.3739  -38.2886   14.6667 C.ar      1 MOL     0.0138
      8 C         -33.6799  -38.4205   14.1982 C.ar      1 MOL     0.0008
      9 C         -34.6829  -37.5894   14.6945 C.ar      1 MOL     0.0007
     10 C         -34.3834  -36.6489   15.6783 C.ar      1 MOL     0.0103
     11 C         -33.0754  -36.5143   16.1704 C.ar      1 MOL     0.0106
     12 C         -32.7703  -35.6059   17.1997 C.ar      1 MOL     0.0736
     13 C         -33.8748  -34.8957   17.9116 C.3       1 MOL     0.0925
     14 C         -33.4882  -33.5562   18.3754 C.ar      1 MOL    -0.0406
     15 C         -32.9408  -33.4288   19.6501 C.ar      1 MOL     0.0196
     16 C         -32.4936  -32.1957   20.1338 C.ar      1 MOL     0.0723
     17 C         -31.8557  -32.0718   21.4659 C.2       1 MOL     0.2495
     18 C         -30.3781  -32.7735   23.2541 C.3       1 MOL     0.1268
     19 C         -30.3855  -34.0402   24.1636 C.3       1 MOL     0.1265
     20 C         -30.6615  -35.4675   22.1752 C.3       1 MOL     0.1265
     21 C         -30.5619  -34.2110   21.2573 C.3       1 MOL     0.1268
     22 C         -29.0664  -36.1358   23.8879 C.2       1 MOL     0.2187
     23 C         -28.1797  -35.7484   25.0127 C.3       1 MOL     0.0752
     24 C         -27.1201  -34.8178   24.5090 C.3       1 MOL     0.0134
     25 C         -26.7833  -36.2397   24.8501 C.3       1 MOL     0.0134
     26 C         -32.6761  -31.0701   19.3130 C.ar      1 MOL     0.1355
     27 C         -33.2612  -31.1820   18.0456 C.ar      1 MOL     0.0392
     28 C         -33.6590  -32.4333   17.5704 C.ar      1 MOL     0.0066
     29 O         -29.7684  -37.8737   15.7375 O.2       1 MOL    -0.2658
     30 O         -28.9645  -37.2737   23.4067 O.2       1 MOL    -0.2753
     31 O         -32.1346  -31.0432   22.1016 O.2       1 MOL    -0.2699
     32 F         -32.2780  -29.8411   19.7247 F         1 MOL    -0.2047
     33 H         -31.5984  -38.9332   14.2757 H         1 MOL     0.0625
     34 H         -33.9124  -39.1645   13.4513 H         1 MOL     0.0618
     35 H         -35.6923  -37.6776   14.3226 H         1 MOL     0.0618
     36 H         -35.1678  -36.0172   16.0729 H         1 MOL     0.0624
     37 H         -34.1507  -35.4984   18.8003 H         1 MOL     0.0377
     38 H         -34.7376  -34.8033   17.2296 H         1 MOL     0.0377
     39 H         -32.8410  -34.3074   20.2746 H         1 MOL     0.0629
     40 H         -30.8820  -31.9170   23.7566 H         1 MOL     0.0480
     41 H         -29.3149  -32.4817   23.0674 H         1 MOL     0.0480
     42 H         -31.4274  -34.2221   24.5265 H         1 MOL     0.0480
     43 H         -29.7342  -33.9036   25.0557 H         1 MOL     0.0480
     44 H         -31.7314  -35.6820   22.4085 H         1 MOL     0.0480
     45 H         -30.2295  -36.3657   21.6801 H         1 MOL     0.0480
     46 H         -31.1701  -34.3454   20.3339 H         1 MOL     0.0480
     47 H         -29.4989  -34.0598   20.9519 H         1 MOL     0.0480
     48 H         -28.6373  -35.6074   25.9535 H         1 MOL     0.0394
     49 H         -26.7626  -34.0550   25.1881 H         1 MOL     0.0273
     50 H         -27.1418  -34.5749   23.4524 H         1 MOL     0.0273
     51 H         -26.2005  -36.3856   25.7520 H         1 MOL     0.0273
     52 H         -26.5911  -36.9100   24.0212 H         1 MOL     0.0273
     53 H         -33.3987  -30.3036   17.4333 H         1 MOL     0.0646
     54 H         -34.0952  -32.5323   16.5887 H         1 MOL     0.0621
     55 H         -29.5037  -35.9888   17.2736 H         1 MOL     0.1921
@<TRIPOS>BOND
     1    1   18 1 
     2    1   21 1 
     3    1   17 am
     4    2   20 1 
     5    2   22 am
     6    2   19 1 
     7    3    4 ar
     8    3   12 ar
     9    4   55 1 
    10    4    5 ar
    11    5    6 ar
    12    5   29 2 
    13    6    7 ar
    14    6   11 ar
    15    7    8 ar
    16    7   33 1 
    17    8    9 ar
    18    8   34 1 
    19    9   10 ar
    20    9   35 1 
    21   10   11 ar
    22   10   36 1 
    23   11   12 ar
    24   12   13 1 
    25   13   14 1 
    26   13   37 1 
    27   13   38 1 
    28   14   15 ar
    29   14   28 ar
    30   15   16 ar
    31   15   39 1 
    32   16   17 1 
    33   16   26 ar
    34   17   31 2 
    35   18   19 1 
    36   18   40 1 
    37   18   41 1 
    38   19   42 1 
    39   19   43 1 
    40   20   21 1 
    41   20   44 1 
    42   20   45 1 
    43   21   46 1 
    44   21   47 1 
    45   22   23 1 
    46   22   30 2 
    47   23   24 1 
    48   23   25 1 
    49   23   48 1 
    50   24   25 1 
    51   24   49 1 
    52   24   50 1 
    53   25   51 1 
    54   25   52 1 
    55   26   27 ar
    56   26   32 1 
    57   27   28 ar
    58   27   53 1 
    59   28   54 1 
@<TRIPOS>SUBSTRUCTURE
1 MOL         1
@<TRIPOS>MOLECULE
query molecule
   55    59     1     0     0
SMALL
NO_CHARGE

@<TRIPOS>ATOM
      1 N         -14.7364  -54.6807   24.6546 N.am      1 MOL    -0.2945
      2 N         -12.5841  -55.5625   23.0365 N.am      1 MOL    -0.2983
      3 N         -17.9151  -54.9225   30.0058 N.ar      1 MOL    -0.1750
      4 N         -19.1389  -54.9610   30.5250 N.ar      1 MOL    -0.2425
      5 C         -19.4156  -54.4134   31.7945 C.ar      1 MOL     0.2725
      6 C         -18.3697  -53.7835   32.4964 C.ar      1 MOL     0.0496
      7 C         -18.5819  -53.1994   33.7481 C.ar      1 MOL     0.0138
      8 C         -17.5282  -52.5834   34.4246 C.ar      1 MOL     0.0008
      9 C         -16.2554  -52.5418   33.8533 C.ar      1 MOL     0.0007
     10 C         -16.0336  -53.1198   32.6041 C.ar      1 MOL     0.0103
     11 C         -17.0743  -53.7514   31.9068 C.ar      1 MOL     0.0106
     12 C         -16.8630  -54.3529   30.6554 C.ar      1 MOL     0.0736
     13 C         -15.5066  -54.3847   30.0330 C.3       1 MOL     0.0925
     14 C         -15.4425  -53.4949   28.8564 C.ar      1 MOL    -0.0406
     15 C         -15.6004  -54.0587   27.5938 C.ar      1 MOL     0.0196
     16 C         -15.5129  -53.2494   26.4637 C.ar      1 MOL     0.0723
     17 C         -15.6995  -53.9069   25.1761 C.2       1 MOL     0.2495
     18 C         -15.0003  -55.5113   23.4862 C.3       1 MOL     0.1268
     19 C         -13.8848  -55.4093   22.4159 C.3       1 MOL     0.1265
     20 C         -12.3032  -54.6252   24.1260 C.3       1 MOL     0.1265
     21 C         -13.3989  -54.7967   25.2293 C.3       1 MOL     0.1268
     22 C         -11.7512  -56.6232   22.8746 C.2       1 MOL     0.2187
     23 C         -12.2990  -57.8650   22.2824 C.3       1 MOL     0.0752
     24 C         -11.3298  -58.5289   21.3662 C.3       1 MOL     0.0134
     25 C         -12.5081  -57.7827   20.8167 C.3       1 MOL     0.0134
     26 C         -15.2839  -51.8859   26.5796 C.ar      1 MOL     0.1355
     27 C         -15.1250  -51.3158   27.8448 C.ar      1 MOL     0.0392
     28 C         -15.2069  -52.1233   28.9855 C.ar      1 MOL     0.0066
     29 O         -20.5767  -54.5187   32.2385 O.2       1 MOL    -0.2658
     30 O         -10.5908  -56.6264   23.3155 O.2       1 MOL    -0.2753
     31 O         -16.8158  -53.7098   24.7122 O.2       1 MOL    -0.2699
     32 F         -15.2051  -51.0979   25.4851 F         1 MOL    -0.2047
     33 H         -19.5654  -53.2285   34.1943 H         1 MOL     0.0625
     34 H         -17.6959  -52.1389   35.3945 H         1 MOL     0.0618
     35 H         -15.4407  -52.0646   34.3781 H         1 MOL     0.0618
     36 H         -15.0446  -53.0839   32.1672 H         1 MOL     0.0624
     37 H         -15.2910  -55.4175   29.7040 H         1 MOL     0.0377
     38 H         -14.7633  -54.0443   30.7745 H         1 MOL     0.0377
     39 H         -15.7846  -55.1161   27.4828 H         1 MOL     0.0629
     40 H         -15.9951  -55.2502   23.0641 H         1 MOL     0.0480
     41 H         -15.0524  -56.5785   23.8254 H         1 MOL     0.0480
     42 H         -13.9304  -54.3956   21.9490 H         1 MOL     0.0480
     43 H         -14.0097  -56.1650   21.6098 H         1 MOL     0.0480
     44 H         -12.3326  -53.5860   23.7237 H         1 MOL     0.0480
     45 H         -11.2863  -54.8207   24.5308 H         1 MOL     0.0480
     46 H         -13.2875  -54.0569   26.0509 H         1 MOL     0.0480
     47 H         -13.3042  -55.8197   25.6749 H         1 MOL     0.0480
     48 H         -12.9379  -58.4273   22.9157 H         1 MOL     0.0394
     49 H         -11.3651  -59.6111   21.3354 H         1 MOL     0.0273
     50 H         -10.3593  -58.0629   21.2466 H         1 MOL     0.0273
     51 H         -13.3131  -58.3885   20.4163 H         1 MOL     0.0273
     52 H         -12.3024  -56.8372   20.3329 H         1 MOL     0.0273
     53 H         -14.9315  -50.2588   27.9418 H         1 MOL     0.0646
     54 H         -15.0802  -51.6894   29.9649 H         1 MOL     0.0621
     55 H         -19.9078  -55.3768   30.0250 H         1 MOL     0.1921
@<TRIPOS>BOND
     1    1   18 1 
     2    1   21 1 
     3    1   17 am
     4    2   20 1 
     5    2   22 am
     6    2   19 1 
     7    3    4 ar
     8    3   12 ar
     9    4   55 1 
    10    4    5 ar
    11    5    6 ar
    12    5   29 2 
    13    6    7 ar
    14    6   11 ar
    15    7    8 ar
    16    7   33 1 
    17    8    9 ar
    18    8   34 1 
    19    9   10 ar
    20    9   35 1 
    21   10   11 ar
    22   10   36 1 
    23   11   12 ar
    24   12   13 1 
    25   13   14 1 
    26   13   37 1 
    27   13   38 1 
    28   14   15 ar
    29   14   28 ar
    30   15   16 ar
    31   15   39 1 
    32   16   17 1 
    33   16   26 ar
    34   17   31 2 
    35   18   19 1 
    36   18   40 1 
    37   18   41 1 
    38   19   42 1 
    39   19   43 1 
    40   20   21 1 
    41   20   44 1 
    42   20   45 1 
    43   21   46 1 
    44   21   47 1 
    45   22   23 1 
    46   22   30 2 
    47   23   24 1 
    48   23   25 1 
    49   23   48 1 
    50   24   25 1 
    51   24   49 1 
    52   24   50 1 
    53   25   51 1 
    54   25   52 1 
    55   26   27 ar
    56   26   32 1 
    57   27   28 ar
    58   27   53 1 
    59   28   54 1 
@<TRIPOS>SUBSTRUCTURE
1 MOL         1
@<TRIPOS>MOLECULE
query molecule
   55    59     1     0     0
SMALL
NO_CHARGE

@<TRIPOS>ATOM
      1 N         -33.5176  -71.8743    8.0620 N.am      1 MOL    -0.2945
      2 N         -30.6930  -72.3340    8.4547 N.am      1 MOL    -0.2983
      3 N         -38.4956  -68.7420    2.5015 N.ar      1 MOL    -0.1750
      4 N         -39.6185  -68.8936    1.8117 N.ar      1 MOL    -0.2425
      5 C         -40.8052  -69.3149    2.4481 C.ar      1 MOL     0.2725
      6 C         -40.7748  -69.5386    3.8392 C.ar      1 MOL     0.0496
      7 C         -41.9266  -69.9472    4.5184 C.ar      1 MOL     0.0138
      8 C         -41.8924  -70.1604    5.8964 C.ar      1 MOL     0.0008
      9 C         -40.7060  -69.9645    6.6056 C.ar      1 MOL     0.0007
     10 C         -39.5486  -69.5565    5.9366 C.ar      1 MOL     0.0103
     11 C         -39.5515  -69.3395    4.5487 C.ar      1 MOL     0.0106
     12 C         -38.4010  -68.9363    3.8489 C.ar      1 MOL     0.0736
     13 C         -37.0806  -68.6930    4.5075 C.3       1 MOL     0.0925
     14 C         -36.2894  -69.9326    4.7166 C.ar      1 MOL    -0.0406
     15 C         -35.8738  -70.2581    6.0194 C.ar      1 MOL     0.0196
     16 C         -35.1432  -71.4316    6.2686 C.ar      1 MOL     0.0723
     17 C         -34.8071  -71.7961    7.6633 C.2       1 MOL     0.2495
     18 C         -33.0877  -72.9326    8.9684 C.3       1 MOL     0.1268
     19 C         -31.6265  -73.4231    8.7066 C.3       1 MOL     0.1265
     20 C         -31.1443  -71.3284    7.4876 C.3       1 MOL     0.1265
     21 C         -32.5752  -70.8114    7.7700 C.3       1 MOL     0.1268
     22 C         -29.3493  -72.4014    8.7026 C.2       1 MOL     0.2187
     23 C         -28.7913  -73.6040    9.3698 C.3       1 MOL     0.0752
     24 C         -29.0777  -73.6587   10.8289 C.3       1 MOL     0.0134
     25 C         -27.7178  -73.2472   10.3474 C.3       1 MOL     0.0134
     26 C         -34.8085  -72.2576    5.1951 C.ar      1 MOL     0.1355
     27 C         -35.2060  -71.9393    3.8936 C.ar      1 MOL     0.0392
     28 C         -35.9476  -70.7776    3.6549 C.ar      1 MOL     0.0066
     29 O         -41.8136  -69.4772    1.7389 O.2       1 MOL    -0.2658
     30 O         -28.5581  -71.5173    8.3310 O.2       1 MOL    -0.2753
     31 O         -35.7609  -72.1476    8.3670 O.2       1 MOL    -0.2699
     32 F         -34.1127  -73.4003    5.4083 F         1 MOL    -0.2047
     33 H         -42.8484  -70.0974    3.9750 H         1 MOL     0.0625
     34 H         -42.7867  -70.4768    6.4137 H         1 MOL     0.0618
     35 H         -40.6889  -70.1304    7.6730 H         1 MOL     0.0618
     36 H         -38.6383  -69.4085    6.5008 H         1 MOL     0.0624
     37 H         -37.2637  -68.2246    5.4930 H         1 MOL     0.0377
     38 H         -36.4955  -68.0094    3.8627 H         1 MOL     0.0377
     39 H         -36.1272  -69.6012    6.8403 H         1 MOL     0.0629
     40 H         -33.8062  -73.7809    8.8980 H         1 MOL     0.0480
     41 H         -33.1363  -72.5410   10.0162 H         1 MOL     0.0480
     42 H         -31.6124  -74.0977    7.8171 H         1 MOL     0.0480
     43 H         -31.2618  -74.0116    9.5818 H         1 MOL     0.0480
     44 H         -31.1036  -71.7863    6.4722 H         1 MOL     0.0480
     45 H         -30.4183  -70.4791    7.5041 H         1 MOL     0.0480
     46 H         -32.9646  -70.1825    6.9403 H         1 MOL     0.0480
     47 H         -32.5091  -70.1570    8.6815 H         1 MOL     0.0480
     48 H         -28.7146  -74.4800    8.7759 H         1 MOL     0.0394
     49 H         -29.1537  -74.6474   11.2699 H         1 MOL     0.0273
     50 H         -29.7125  -72.8834   11.2349 H         1 MOL     0.0273
     51 H         -26.9113  -73.9608   10.4737 H         1 MOL     0.0273
     52 H         -27.4667  -72.1980   10.4451 H         1 MOL     0.0273
     53 H         -34.9494  -72.5911    3.0720 H         1 MOL     0.0646
     54 H         -36.2600  -70.5347    2.6485 H         1 MOL     0.0621
     55 H         -39.6851  -68.7163    0.8216 H         1 MOL     0.1921
@<TRIPOS>BOND
     1    1   18 1 
     2    1   21 1 
     3    1   17 am
     4    2   20 1 
     5    2   22 am
     6    2   19 1 
     7    3    4 ar
     8    3   12 ar
     9    4   55 1 
    10    4    5 ar
    11    5    6 ar
    12    5   29 2 
    13    6    7 ar
    14    6   11 ar
    15    7    8 ar
    16    7   33 1 
    17    8    9 ar
    18    8   34 1 
    19    9   10 ar
    20    9   35 1 
    21   10   11 ar
    22   10   36 1 
    23   11   12 ar
    24   12   13 1 
    25   13   14 1 
    26   13   37 1 
    27   13   38 1 
    28   14   15 ar
    29   14   28 ar
    30   15   16 ar
    31   15   39 1 
    32   16   17 1 
    33   16   26 ar
    34   17   31 2 
    35   18   19 1 
    36   18   40 1 
    37   18   41 1 
    38   19   42 1 
    39   19   43 1 
    40   20   21 1 
    41   20   44 1 
    42   20   45 1 
    43   21   46 1 
    44   21   47 1 
    45   22   23 1 
    46   22   30 2 
    47   23   24 1 
    48   23   25 1 
    49   23   48 1 
    50   24   25 1 
    51   24   49 1 
    52   24   50 1 
    53   25   51 1 
    54   25   52 1 
    55   26   27 ar
    56   26   32 1 
    57   27   28 ar
    58   27   53 1 
    59   28   54 1 
@<TRIPOS>SUBSTRUCTURE
1 MOL         1
@<TRIPOS>MOLECULE
query molecule
   55    59     1     0     0
SMALL
NO_CHARGE

@<TRIPOS>ATOM
      1 N         -11.0364  -33.8525    8.6451 N.am      1 MOL    -0.2945
      2 N         -13.6767  -32.8488    8.4236 N.am      1 MOL    -0.2983
      3 N         -10.5866  -40.9153    7.6403 N.ar      1 MOL    -0.1750
      4 N         -10.8790  -41.9123    6.8156 N.ar      1 MOL    -0.2425
      5 C         -12.1959  -42.4150    6.7312 C.ar      1 MOL     0.2725
      6 C         -13.1963  -41.8136    7.5254 C.ar      1 MOL     0.0496
      7 C         -14.5187  -42.2632    7.4908 C.ar      1 MOL     0.0138
      8 C         -15.5003  -41.6440    8.2593 C.ar      1 MOL     0.0008
      9 C         -15.1629  -40.5758    9.0892 C.ar      1 MOL     0.0007
     10 C         -13.8444  -40.1288    9.1508 C.ar      1 MOL     0.0103
     11 C         -12.8378  -40.7323    8.3787 C.ar      1 MOL     0.0106
     12 C         -11.4949  -40.3068    8.4519 C.ar      1 MOL     0.0736
     13 C         -11.0981  -39.2667    9.4344 C.3       1 MOL     0.0925
     14 C         -10.1647  -38.2226    8.9858 C.ar      1 MOL    -0.0406
     15 C         -10.5300  -36.8797    9.1751 C.ar      1 MOL     0.0196
     16 C          -9.6246  -35.8503    8.8881 C.ar      1 MOL     0.0723
     17 C          -9.9372  -34.4338    9.1662 C.2       1 MOL     0.2495
     18 C         -11.2830  -32.4433    8.9526 C.3       1 MOL     0.1268
     19 C         -12.7680  -32.2068    9.3573 C.3       1 MOL     0.1265
     20 C         -13.4222  -34.2546    8.1272 C.3       1 MOL     0.1265
     21 C         -11.9533  -34.4843    7.7189 C.3       1 MOL     0.1268
     22 C         -14.8608  -32.3359    8.0015 C.2       1 MOL     0.2187
     23 C         -15.3633  -31.0912    8.6308 C.3       1 MOL     0.0752
     24 C         -15.8052  -31.3527   10.0361 C.3       1 MOL     0.0134
     25 C         -16.8168  -31.2025    8.9405 C.3       1 MOL     0.0134
     26 C          -8.3729  -36.1751    8.3555 C.ar      1 MOL     0.1355
     27 C          -8.0140  -37.5033    8.1340 C.ar      1 MOL     0.0392
     28 C          -8.9091  -38.5233    8.4526 C.ar      1 MOL     0.0066
     29 O         -12.4047  -43.3669    5.9614 O.2       1 MOL    -0.2658
     30 O         -15.5317  -32.8731    7.1052 O.2       1 MOL    -0.2753
     31 O          -9.1321  -33.8282    9.8877 O.2       1 MOL    -0.2699
     32 F          -7.4885  -35.1984    8.0385 F         1 MOL    -0.2047
     33 H         -14.7844  -43.0909    6.8453 H         1 MOL     0.0625
     34 H         -16.5216  -41.9905    8.2144 H         1 MOL     0.0618
     35 H         -15.9204  -40.0953    9.6903 H         1 MOL     0.0618
     36 H         -13.5863  -39.3082    9.8066 H         1 MOL     0.0624
     37 H         -10.6232  -39.7875   10.2946 H         1 MOL     0.0377
     38 H         -12.0245  -38.7643    9.7836 H         1 MOL     0.0377
     39 H         -11.5105  -36.6443    9.5650 H         1 MOL     0.0629
     40 H         -11.0388  -31.8412    8.0438 H         1 MOL     0.0480
     41 H         -10.5904  -32.1239    9.7657 H         1 MOL     0.0480
     42 H         -12.9948  -31.1186    9.4139 H         1 MOL     0.0480
     43 H         -12.9449  -32.6480   10.3684 H         1 MOL     0.0480
     44 H         -14.1098  -34.5852    7.3149 H         1 MOL     0.0480
     45 H         -13.6539  -34.8511    9.0411 H         1 MOL     0.0480
     46 H         -11.7812  -34.0270    6.7122 H         1 MOL     0.0480
     47 H         -11.7175  -35.5692    7.6452 H         1 MOL     0.0480
     48 H         -14.9132  -30.1841    8.3364 H         1 MOL     0.0394
     49 H         -15.7405  -30.5372   10.7453 H         1 MOL     0.0273
     50 H         -15.6194  -32.3520   10.4131 H         1 MOL     0.0273
     51 H         -17.4033  -30.2935    8.9559 H         1 MOL     0.0273
     52 H         -17.3067  -32.1103    8.6065 H         1 MOL     0.0273
     53 H          -7.0451  -37.7349    7.7192 H         1 MOL     0.0646
     54 H          -8.6270  -39.5539    8.2942 H         1 MOL     0.0621
     55 H         -10.1919  -42.3475    6.2256 H         1 MOL     0.1921
@<TRIPOS>BOND
     1    1   18 1 
     2    1   21 1 
     3    1   17 am
     4    2   20 1 
     5    2   22 am
     6    2   19 1 
     7    3    4 ar
     8    3   12 ar
     9    4   55 1 
    10    4    5 ar
    11    5    6 ar
    12    5   29 2 
    13    6    7 ar
    14    6   11 ar
    15    7    8 ar
    16    7   33 1 
    17    8    9 ar
    18    8   34 1 
    19    9   10 ar
    20    9   35 1 
    21   10   11 ar
    22   10   36 1 
    23   11   12 ar
    24   12   13 1 
    25   13   14 1 
    26   13   37 1 
    27   13   38 1 
    28   14   15 ar
    29   14   28 ar
    30   15   16 ar
    31   15   39 1 
    32   16   17 1 
    33   16   26 ar
    34   17   31 2 
    35   18   19 1 
    36   18   40 1 
    37   18   41 1 
    38   19   42 1 
    39   19   43 1 
    40   20   21 1 
    41   20   44 1 
    42   20   45 1 
    43   21   46 1 
    44   21   47 1 
    45   22   23 1 
    46   22   30 2 
    47   23   24 1 
    48   23   25 1 
    49   23   48 1 
    50   24   25 1 
    51   24   49 1 
    52   24   50 1 
    53   25   51 1 
    54   25   52 1 
    55   26   27 ar
    56   26   32 1 
    57   27   28 ar
    58   27   53 1 
    59   28   54 1 
@<TRIPOS>SUBSTRUCTURE
1 MOL         1
@<TRIPOS>MOLECULE
query molecule
   55    59     1     0     0
SMALL
NO_CHARGE

@<TRIPOS>ATOM
      1 N         -53.6021  -72.2958    2.2291 N.am      1 MOL    -0.2945
      2 N         -52.4627  -71.0800    4.5091 N.am      1 MOL    -0.2983
      3 N         -48.2876  -72.7198   -0.5104 N.ar      1 MOL    -0.1750
      4 N         -47.1786  -72.0166   -0.3051 N.ar      1 MOL    -0.2425
      5 C         -46.5090  -71.3885   -1.3777 C.ar      1 MOL     0.2725
      6 C         -47.0436  -71.5302   -2.6768 C.ar      1 MOL     0.0496
      7 C         -46.4416  -70.8989   -3.7699 C.ar      1 MOL     0.0138
      8 C         -46.9576  -71.0731   -5.0539 C.ar      1 MOL     0.0008
      9 C         -48.0776  -71.8826   -5.2517 C.ar      1 MOL     0.0007
     10 C         -48.6985  -72.5017   -4.1645 C.ar      1 MOL     0.0103
     11 C         -48.2098  -72.3315   -2.8596 C.ar      1 MOL     0.0106
     12 C         -48.8273  -72.9300   -1.7461 C.ar      1 MOL     0.0736
     13 C         -50.0248  -73.8079   -1.8647 C.3       1 MOL     0.0925
     14 C         -51.3178  -73.1341   -1.5940 C.ar      1 MOL    -0.0406
     15 C         -51.9683  -73.3139   -0.3636 C.ar      1 MOL     0.0196
     16 C         -53.2446  -72.7707   -0.1501 C.ar      1 MOL     0.0723
     17 C         -53.9416  -73.0188    1.1348 C.2       1 MOL     0.2495
     18 C         -54.0644  -72.7144    3.5506 C.3       1 MOL     0.1268
     19 C         -53.0194  -72.4121    4.6693 C.3       1 MOL     0.1265
     20 C         -51.8193  -70.8477    3.2225 C.3       1 MOL     0.1265
     21 C         -52.8826  -71.0363    2.1045 C.3       1 MOL     0.1268
     22 C         -52.6544  -70.0313    5.3494 C.2       1 MOL     0.2187
     23 C         -53.6423  -70.2026    6.4341 C.3       1 MOL     0.0752
     24 C         -53.4274  -69.2816    7.5775 C.3       1 MOL     0.0134
     25 C         -53.0425  -70.7272    7.6875 C.3       1 MOL     0.0134
     26 C         -53.8509  -72.0235   -1.1604 C.ar      1 MOL     0.1355
     27 C         -53.1927  -71.8011   -2.3702 C.ar      1 MOL     0.0392
     28 C         -51.9285  -72.3571   -2.5870 C.ar      1 MOL     0.0066
     29 O         -45.4760  -70.7456   -1.1220 O.2       1 MOL    -0.2658
     30 O         -52.1116  -68.9298    5.1777 O.2       1 MOL    -0.2753
     31 O         -54.7702  -73.9357    1.1485 O.2       1 MOL    -0.2699
     32 F         -55.0910  -71.5128   -0.9755 F         1 MOL    -0.2047
     33 H         -45.5711  -70.2773   -3.6188 H         1 MOL     0.0625
     34 H         -46.4878  -70.5845   -5.8946 H         1 MOL     0.0618
     35 H         -48.4647  -72.0288   -6.2497 H         1 MOL     0.0618
     36 H         -49.5695  -73.1206   -4.3328 H         1 MOL     0.0624
     37 H         -49.9112  -74.6376   -1.1380 H         1 MOL     0.0377
     38 H         -50.0536  -74.2151   -2.8946 H         1 MOL     0.0377
     39 H         -51.4916  -73.8905    0.4167 H         1 MOL     0.0629
     40 H         -54.3294  -73.7968    3.5253 H         1 MOL     0.0480
     41 H         -54.9960  -72.1474    3.7919 H         1 MOL     0.0480
     42 H         -52.1738  -73.1405    4.5942 H         1 MOL     0.0480
     43 H         -53.4646  -72.5136    5.6829 H         1 MOL     0.0480
     44 H         -50.9857  -71.5770    3.1073 H         1 MOL     0.0480
     45 H         -51.3962  -69.8197    3.1937 H         1 MOL     0.0480
     46 H         -52.4393  -70.9691    1.0860 H         1 MOL     0.0480
     47 H         -53.6232  -70.2029    2.2046 H         1 MOL     0.0480
     48 H         -54.6177  -70.4855    6.1232 H         1 MOL     0.0394
     49 H         -54.3201  -68.9614    8.1014 H         1 MOL     0.0273
     50 H         -52.6221  -68.5642    7.4787 H         1 MOL     0.0273
     51 H         -53.6814  -71.3473    8.3066 H         1 MOL     0.0273
     52 H         -51.9842  -70.9519    7.6799 H         1 MOL     0.0273
     53 H         -53.6606  -71.2092   -3.1430 H         1 MOL     0.0646
     54 H         -51.4227  -72.1981   -3.5287 H         1 MOL     0.0621
     55 H         -46.7737  -71.9029    0.6076 H         1 MOL     0.1921
@<TRIPOS>BOND
     1    1   18 1 
     2    1   21 1 
     3    1   17 am
     4    2   20 1 
     5    2   22 am
     6    2   19 1 
     7    3    4 ar
     8    3   12 ar
     9    4   55 1 
    10    4    5 ar
    11    5    6 ar
    12    5   29 2 
    13    6    7 ar
    14    6   11 ar
    15    7    8 ar
    16    7   33 1 
    17    8    9 ar
    18    8   34 1 
    19    9   10 ar
    20    9   35 1 
    21   10   11 ar
    22   10   36 1 
    23   11   12 ar
    24   12   13 1 
    25   13   14 1 
    26   13   37 1 
    27   13   38 1 
    28   14   15 ar
    29   14   28 ar
    30   15   16 ar
    31   15   39 1 
    32   16   17 1 
    33   16   26 ar
    34   17   31 2 
    35   18   19 1 
    36   18   40 1 
    37   18   41 1 
    38   19   42 1 
    39   19   43 1 
    40   20   21 1 
    41   20   44 1 
    42   20   45 1 
    43   21   46 1 
    44   21   47 1 
    45   22   23 1 
    46   22   30 2 
    47   23   24 1 
    48   23   25 1 
    49   23   48 1 
    50   24   25 1 
    51   24   49 1 
    52   24   50 1 
    53   25   51 1 
    54   25   52 1 
    55   26   27 ar
    56   26   32 1 
    57   27   28 ar
    58   27   53 1 
    59   28   54 1 
@<TRIPOS>SUBSTRUCTURE
1 MOL         1
@<TRIPOS>MOLECULE
query molecule
   55    59     1     0     0
SMALL
NO_CHARGE

@<TRIPOS>ATOM
      1 N         -41.9162  -24.6493    1.2690 N.am      1 MOL    -0.2945
      2 N         -40.4594  -25.1295    3.6576 N.am      1 MOL    -0.2983
      3 N         -40.0598  -25.3398   -3.2416 N.ar      1 MOL    -0.1750
      4 N         -39.0439  -26.1798   -3.0815 N.ar      1 MOL    -0.2425
      5 C         -37.7816  -25.8940   -3.6489 C.ar      1 MOL     0.2725
      6 C         -37.6363  -24.6981   -4.3856 C.ar      1 MOL     0.0496
      7 C         -36.4319  -24.3705   -5.0084 C.ar      1 MOL     0.0138
      8 C         -36.2991  -23.1722   -5.7100 C.ar      1 MOL     0.0008
      9 C         -37.3707  -22.2861   -5.7989 C.ar      1 MOL     0.0007
     10 C         -38.5859  -22.6069   -5.1981 C.ar      1 MOL     0.0103
     11 C         -38.7452  -23.8115   -4.4954 C.ar      1 MOL     0.0106
     12 C         -39.9718  -24.1521   -3.9064 C.ar      1 MOL     0.0736
     13 C         -41.1623  -23.2433   -4.0013 C.3       1 MOL     0.0925
     14 C         -41.4519  -22.6373   -2.6788 C.ar      1 MOL    -0.0406
     15 C         -41.9844  -23.4404   -1.6673 C.ar      1 MOL     0.0196
     16 C         -42.2323  -22.9088   -0.4028 C.ar      1 MOL     0.0723
     17 C         -42.7611  -23.8142    0.6324 C.2       1 MOL     0.2495
     18 C         -42.4374  -25.6465    2.1936 C.3       1 MOL     0.1268
     19 C         -41.9056  -25.3393    3.6242 C.3       1 MOL     0.1265
     20 C         -39.8556  -24.3309    2.5768 C.3       1 MOL     0.1265
     21 C         -40.4675  -24.6240    1.1720 C.3       1 MOL     0.1268
     22 C         -39.7223  -25.2206    4.8092 C.2       1 MOL     0.2187
     23 C         -40.4132  -25.4150    6.1036 C.3       1 MOL     0.0752
     24 C         -39.7064  -26.4576    6.9155 C.3       1 MOL     0.0134
     25 C         -41.0598  -26.7252    6.3380 C.3       1 MOL     0.0134
     26 C         -41.9755  -21.5663   -0.1519 C.ar      1 MOL     0.1355
     27 C         -41.4603  -20.7479   -1.1607 C.ar      1 MOL     0.0392
     28 C         -41.1935  -21.2857   -2.4274 C.ar      1 MOL     0.0066
     29 O         -36.8632  -26.7075   -3.4580 O.2       1 MOL    -0.2658
     30 O         -38.4921  -25.0391    4.8254 O.2       1 MOL    -0.2753
     31 O         -43.9767  -23.7670    0.8449 O.2       1 MOL    -0.2699
     32 F         -42.2136  -21.0423    1.0744 F         1 MOL    -0.2047
     33 H         -35.5929  -25.0479   -4.9406 H         1 MOL     0.0625
     34 H         -35.3604  -22.9260   -6.1846 H         1 MOL     0.0618
     35 H         -37.2630  -21.3545   -6.3343 H         1 MOL     0.0618
     36 H         -39.4178  -21.9197   -5.2773 H         1 MOL     0.0624
     37 H         -42.0395  -23.8299   -4.3239 H         1 MOL     0.0377
     38 H         -40.9432  -22.4374   -4.7231 H         1 MOL     0.0377
     39 H         -42.1970  -24.4806   -1.8669 H         1 MOL     0.0629
     40 H         -42.0907  -26.6522    1.8541 H         1 MOL     0.0480
     41 H         -43.5493  -25.6383    2.1609 H         1 MOL     0.0480
     42 H         -42.1684  -26.1661    4.3247 H         1 MOL     0.0480
     43 H         -42.4024  -24.4086    3.9909 H         1 MOL     0.0480
     44 H         -38.7522  -24.4742    2.5804 H         1 MOL     0.0480
     45 H         -40.0574  -23.2531    2.8055 H         1 MOL     0.0480
     46 H         -40.1241  -25.6198    0.8026 H         1 MOL     0.0480
     47 H         -40.1579  -23.8554    0.4285 H         1 MOL     0.0480
     48 H         -40.7592  -24.5202    6.5635 H         1 MOL     0.0394
     49 H         -39.6444  -26.2671    7.9796 H         1 MOL     0.0273
     50 H         -38.8767  -26.9707    6.4459 H         1 MOL     0.0273
     51 H         -41.8894  -26.7155    7.0388 H         1 MOL     0.0273
     52 H         -41.1265  -27.3997    5.4968 H         1 MOL     0.0273
     53 H         -41.2632  -19.7049   -0.9627 H         1 MOL     0.0646
     54 H         -40.7916  -20.6553   -3.2070 H         1 MOL     0.0621
     55 H         -39.1266  -27.0332   -2.5591 H         1 MOL     0.1921
@<TRIPOS>BOND
     1    1   18 1 
     2    1   21 1 
     3    1   17 am
     4    2   20 1 
     5    2   22 am
     6    2   19 1 
     7    3    4 ar
     8    3   12 ar
     9    4   55 1 
    10    4    5 ar
    11    5    6 ar
    12    5   29 2 
    13    6    7 ar
    14    6   11 ar
    15    7    8 ar
    16    7   33 1 
    17    8    9 ar
    18    8   34 1 
    19    9   10 ar
    20    9   35 1 
    21   10   11 ar
    22   10   36 1 
    23   11   12 ar
    24   12   13 1 
    25   13   14 1 
    26   13   37 1 
    27   13   38 1 
    28   14   15 ar
    29   14   28 ar
    30   15   16 ar
    31   15   39 1 
    32   16   17 1 
    33   16   26 ar
    34   17   31 2 
    35   18   19 1 
    36   18   40 1 
    37   18   41 1 
    38   19   42 1 
    39   19   43 1 
    40   20   21 1 
    41   20   44 1 
    42   20   45 1 
    43   21   46 1 
    44   21   47 1 
    45   22   23 1 
    46   22   30 2 
    47   23   24 1 
    48   23   25 1 
    49   23   48 1 
    50   24   25 1 
    51   24   49 1 
    52   24   50 1 
    53   25   51 1 
    54   25   52 1 
    55   26   27 ar
    56   26   32 1 
    57   27   28 ar
    58   27   53 1 
    59   28   54 1 
@<TRIPOS>SUBSTRUCTURE
1 MOL         1
@<TRIPOS>MOLECULE
query molecule
   55    59     1     0     0
SMALL
NO_CHARGE

@<TRIPOS>ATOM
      1 N         -56.5654  -67.2769   13.5455 N.am      1 MOL    -0.2945
      2 N         -58.6511  -66.2135   11.9199 N.am      1 MOL    -0.2983
      3 N         -54.2124  -72.6431   10.5280 N.ar      1 MOL    -0.1750
      4 N         -54.4259  -72.7164    9.2205 N.ar      1 MOL    -0.2425
      5 C         -55.7101  -72.4858    8.6871 C.ar      1 MOL     0.2725
      6 C         -56.7734  -72.2185    9.5742 C.ar      1 MOL     0.0496
      7 C         -58.0744  -72.0120    9.1067 C.ar      1 MOL     0.0138
      8 C         -59.1126  -71.7239    9.9903 C.ar      1 MOL     0.0008
      9 C         -58.8587  -71.6626   11.3593 C.ar      1 MOL     0.0007
     10 C         -57.5680  -71.8847   11.8422 C.ar      1 MOL     0.0103
     11 C         -56.5008  -72.1544   10.9716 C.ar      1 MOL     0.0106
     12 C         -55.1882  -72.3503   11.4362 C.ar      1 MOL     0.0736
     13 C         -54.8032  -72.2546   12.8799 C.3       1 MOL     0.0925
     14 C         -54.1942  -70.9322   13.1805 C.ar      1 MOL    -0.0406
     15 C         -55.0190  -69.8948   13.6224 C.ar      1 MOL     0.0196
     16 C         -54.5149  -68.6127   13.8647 C.ar      1 MOL     0.0723
     17 C         -55.4113  -67.4910   14.2274 C.2       1 MOL     0.2495
     18 C         -57.4731  -66.2636   14.0874 C.3       1 MOL     0.1268
     19 C         -58.0753  -65.3876   12.9631 C.3       1 MOL     0.1265
     20 C         -57.7067  -67.1333   11.2934 C.3       1 MOL     0.1265
     21 C         -57.0053  -68.0111   12.3679 C.3       1 MOL     0.1268
     22 C         -59.9513  -66.2110   11.5369 C.2       1 MOL     0.2187
     23 C         -60.9601  -65.5563   12.3997 C.3       1 MOL     0.0752
     24 C         -61.7740  -64.5849   11.6087 C.3       1 MOL     0.0134
     25 C         -60.8069  -64.1007   12.6414 C.3       1 MOL     0.0134
     26 C         -53.1361  -68.4091   13.7515 C.ar      1 MOL     0.1355
     27 C         -52.2939  -69.4384   13.3238 C.ar      1 MOL     0.0392
     28 C         -52.8253  -70.6987   13.0262 C.ar      1 MOL     0.0066
     29 O         -55.8317  -72.5117    7.4523 O.2       1 MOL    -0.2658
     30 O         -60.3498  -66.8400   10.5418 O.2       1 MOL    -0.2753
     31 O         -55.0480  -66.7848   15.1793 O.2       1 MOL    -0.2699
     32 F         -52.5965  -67.2015   14.0455 F         1 MOL    -0.2047
     33 H         -58.2766  -72.0651    8.0459 H         1 MOL     0.0625
     34 H         -60.1100  -71.5478    9.6165 H         1 MOL     0.0618
     35 H         -59.6612  -71.4411   12.0477 H         1 MOL     0.0618
     36 H         -57.3853  -71.8393   12.9074 H         1 MOL     0.0624
     37 H         -54.0639  -73.0447   13.1017 H         1 MOL     0.0377
     38 H         -55.7076  -72.3806   13.4999 H         1 MOL     0.0377
     39 H         -56.0759  -70.0847   13.7588 H         1 MOL     0.0629
     40 H         -56.9286  -65.6413   14.8321 H         1 MOL     0.0480
     41 H         -58.3073  -66.7862   14.6144 H         1 MOL     0.0480
     42 H         -57.2633  -64.7745   12.4980 H         1 MOL     0.0480
     43 H         -58.8508  -64.6908   13.3490 H         1 MOL     0.0480
     44 H         -56.9389  -66.5286   10.7508 H         1 MOL     0.0480
     45 H         -58.2369  -67.7614   10.5429 H         1 MOL     0.0480
     46 H         -56.1369  -68.5569   11.9313 H         1 MOL     0.0480
     47 H         -57.7437  -68.7812   12.7084 H         1 MOL     0.0480
     48 H         -61.4253  -66.2029   13.1059 H         1 MOL     0.0394
     49 H         -62.8250  -64.5185   11.8622 H         1 MOL     0.0273
     50 H         -61.4896  -64.4157   10.5789 H         1 MOL     0.0273
     51 H         -61.2299  -63.7291   13.5691 H         1 MOL     0.0273
     52 H         -59.8886  -63.6431   12.2977 H         1 MOL     0.0273
     53 H         -51.2343  -69.2584   13.2199 H         1 MOL     0.0646
     54 H         -52.1762  -71.4890   12.6789 H         1 MOL     0.0621
     55 H         -53.6939  -72.9377    8.5675 H         1 MOL     0.1921
@<TRIPOS>BOND
     1    1   18 1 
     2    1   21 1 
     3    1   17 am
     4    2   20 1 
     5    2   22 am
     6    2   19 1 
     7    3    4 ar
     8    3   12 ar
     9    4   55 1 
    10    4    5 ar
    11    5    6 ar
    12    5   29 2 
    13    6    7 ar
    14    6   11 ar
    15    7    8 ar
    16    7   33 1 
    17    8    9 ar
    18    8   34 1 
    19    9   10 ar
    20    9   35 1 
    21   10   11 ar
    22   10   36 1 
    23   11   12 ar
    24   12   13 1 
    25   13   14 1 
    26   13   37 1 
    27   13   38 1 
    28   14   15 ar
    29   14   28 ar
    30   15   16 ar
    31   15   39 1 
    32   16   17 1 
    33   16   26 ar
    34   17   31 2 
    35   18   19 1 
    36   18   40 1 
    37   18   41 1 
    38   19   42 1 
    39   19   43 1 
    40   20   21 1 
    41   20   44 1 
    42   20   45 1 
    43   21   46 1 
    44   21   47 1 
    45   22   23 1 
    46   22   30 2 
    47   23   24 1 
    48   23   25 1 
    49   23   48 1 
    50   24   25 1 
    51   24   49 1 
    52   24   50 1 
    53   25   51 1 
    54   25   52 1 
    55   26   27 ar
    56   26   32 1 
    57   27   28 ar
    58   27   53 1 
    59   28   54 1 
@<TRIPOS>SUBSTRUCTURE
1 MOL         1
@<TRIPOS>MOLECULE
query molecule
   55    59     1     0     0
SMALL
NO_CHARGE

@<TRIPOS>ATOM
      1 N         -20.2339  -31.5688   18.0706 N.am      1 MOL    -0.2945
      2 N         -20.4057  -28.8941   17.0805 N.am      1 MOL    -0.2983
      3 N         -24.7960  -35.4639   19.3721 N.ar      1 MOL    -0.1750
      4 N         -26.0008  -34.9749   19.6374 N.ar      1 MOL    -0.2425
      5 C         -27.0804  -35.1826   18.7518 C.ar      1 MOL     0.2725
      6 C         -26.8404  -35.9055   17.5615 C.ar      1 MOL     0.0496
      7 C         -27.8537  -36.1093   16.6217 C.ar      1 MOL     0.0138
      8 C         -27.5923  -36.8323   15.4623 C.ar      1 MOL     0.0008
      9 C         -26.3270  -37.3721   15.2303 C.ar      1 MOL     0.0007
     10 C         -25.3096  -37.1742   16.1574 C.ar      1 MOL     0.0103
     11 C         -25.5376  -36.4339   17.3265 C.ar      1 MOL     0.0106
     12 C         -24.5163  -36.2043   18.2614 C.ar      1 MOL     0.0736
     13 C         -23.1352  -36.7438   18.0892 C.3       1 MOL     0.0925
     14 C         -22.2504  -35.7666   17.4097 C.ar      1 MOL    -0.0406
     15 C         -21.5670  -34.7843   18.1388 C.ar      1 MOL     0.0196
     16 C         -20.7098  -33.8978   17.4798 C.ar      1 MOL     0.0723
     17 C         -19.9420  -32.8807   18.2262 C.2       1 MOL     0.2495
     18 C         -19.2706  -30.5738   18.5371 C.3       1 MOL     0.1268
     19 C         -19.1188  -29.3749   17.5526 C.3       1 MOL     0.1265
     20 C         -21.3381  -29.9082   16.5801 C.3       1 MOL     0.1265
     21 C         -21.5135  -31.0915   17.5695 C.3       1 MOL     0.1268
     22 C         -20.6623  -27.5983   16.7308 C.2       1 MOL     0.2187
     23 C         -19.5570  -26.6060   16.7666 C.3       1 MOL     0.0752
     24 C         -19.3616  -25.9494   18.0843 C.3       1 MOL     0.0134
     25 C         -20.0822  -25.2229   16.9871 C.3       1 MOL     0.0134
     26 C         -20.5499  -33.9889   16.0987 C.ar      1 MOL     0.1355
     27 C         -21.2342  -34.9517   15.3649 C.ar      1 MOL     0.0392
     28 C         -22.0820  -35.8421   16.0240 C.ar      1 MOL     0.0066
     29 O         -28.1927  -34.7442   19.0833 O.2       1 MOL    -0.2658
     30 O         -21.7748  -27.2458   16.3067 O.2       1 MOL    -0.2753
     31 O         -18.9971  -33.3020   18.9051 O.2       1 MOL    -0.2699
     32 F         -19.7058  -33.1389   15.4695 F         1 MOL    -0.2047
     33 H         -28.8406  -35.7067   16.7950 H         1 MOL     0.0625
     34 H         -28.3774  -36.9812   14.7343 H         1 MOL     0.0618
     35 H         -26.1353  -37.9391   14.3315 H         1 MOL     0.0618
     36 H         -24.3290  -37.5911   15.9725 H         1 MOL     0.0624
     37 H         -23.1876  -37.6659   17.4835 H         1 MOL     0.0377
     38 H         -22.7165  -36.9609   19.0889 H         1 MOL     0.0377
     39 H         -21.7022  -34.7235   19.2083 H         1 MOL     0.0629
     40 H         -18.2865  -31.0743   18.6895 H         1 MOL     0.0480
     41 H         -19.6151  -30.1939   19.5292 H         1 MOL     0.0480
     42 H         -18.5141  -29.6904   16.6690 H         1 MOL     0.0480
     43 H         -18.5821  -28.5338   18.0491 H         1 MOL     0.0480
     44 H         -20.9438  -30.3024   15.6114 H         1 MOL     0.0480
     45 H         -22.3207  -29.4227   16.3716 H         1 MOL     0.0480
     46 H         -22.0486  -31.9335   17.0729 H         1 MOL     0.0480
     47 H         -22.1335  -30.7626   18.4383 H         1 MOL     0.0480
     48 H         -18.7501  -26.7873   16.1026 H         1 MOL     0.0394
     49 H         -18.3775  -25.5519   18.3082 H         1 MOL     0.0273
     50 H         -19.9573  -26.3036   18.9132 H         1 MOL     0.0273
     51 H         -19.5640  -24.4170   16.4828 H         1 MOL     0.0273
     52 H         -21.1598  -25.1447   17.0851 H         1 MOL     0.0273
     53 H         -21.1013  -35.0149   14.2962 H         1 MOL     0.0646
     54 H         -22.6089  -36.5969   15.4563 H         1 MOL     0.0621
     55 H         -26.1968  -34.4436   20.4681 H         1 MOL     0.1921
@<TRIPOS>BOND
     1    1   18 1 
     2    1   21 1 
     3    1   17 am
     4    2   20 1 
     5    2   22 am
     6    2   19 1 
     7    3    4 ar
     8    3   12 ar
     9    4   55 1 
    10    4    5 ar
    11    5    6 ar
    12    5   29 2 
    13    6    7 ar
    14    6   11 ar
    15    7    8 ar
    16    7   33 1 
    17    8    9 ar
    18    8   34 1 
    19    9   10 ar
    20    9   35 1 
    21   10   11 ar
    22   10   36 1 
    23   11   12 ar
    24   12   13 1 
    25   13   14 1 
    26   13   37 1 
    27   13   38 1 
    28   14   15 ar
    29   14   28 ar
    30   15   16 ar
    31   15   39 1 
    32   16   17 1 
    33   16   26 ar
    34   17   31 2 
    35   18   19 1 
    36   18   40 1 
    37   18   41 1 
    38   19   42 1 
    39   19   43 1 
    40   20   21 1 
    41   20   44 1 
    42   20   45 1 
    43   21   46 1 
    44   21   47 1 
    45   22   23 1 
    46   22   30 2 
    47   23   24 1 
    48   23   25 1 
    49   23   48 1 
    50   24   25 1 
    51   24   49 1 
    52   24   50 1 
    53   25   51 1 
    54   25   52 1 
    55   26   27 ar
    56   26   32 1 
    57   27   28 ar
    58   27   53 1 
    59   28   54 1 
@<TRIPOS>SUBSTRUCTURE
1 MOL         1
@<TRIPOS>MOLECULE
query molecule
   55    59     1     0     0
SMALL
NO_CHARGE

@<TRIPOS>ATOM
      1 N         -35.5470  -72.7585    3.9343 N.am      1 MOL    -0.2945
      2 N         -34.9666  -74.3838    1.6947 N.am      1 MOL    -0.2983
      3 N         -31.9071  -73.9669    9.8172 N.ar      1 MOL    -0.1750
      4 N         -31.7506  -74.0141   11.1350 N.ar      1 MOL    -0.2425
      5 C         -30.6340  -73.4166   11.7655 C.ar      1 MOL     0.2725
      6 C         -29.6285  -72.8466   10.9451 C.ar      1 MOL     0.0496
      7 C         -28.4659  -72.3022   11.4971 C.ar      1 MOL     0.0138
      8 C         -27.4927  -71.7504   10.6670 C.ar      1 MOL     0.0008
      9 C         -27.6758  -71.7345    9.2854 C.ar      1 MOL     0.0007
     10 C         -28.8312  -72.2705    8.7256 C.ar      1 MOL     0.0103
     11 C         -29.8222  -72.8353    9.5359 C.ar      1 MOL     0.0106
     12 C         -30.9928  -73.3854    8.9888 C.ar      1 MOL     0.0736
     13 C         -31.2597  -73.3441    7.5161 C.3       1 MOL     0.0925
     14 C         -32.4119  -72.4633    7.2043 C.ar      1 MOL    -0.0406
     15 C         -33.4252  -72.9724    6.3866 C.ar      1 MOL     0.0196
     16 C         -34.5439  -72.1859    6.0906 C.ar      1 MOL     0.0723
     17 C         -35.6280  -72.7727    5.2774 C.2       1 MOL     0.2495
     18 C         -36.6745  -73.2325    3.1399 C.3       1 MOL     0.1268
     19 C         -36.2454  -74.5259    2.3878 C.3       1 MOL     0.1265
     20 C         -33.8897  -73.6360    2.3594 C.3       1 MOL     0.1265
     21 C         -34.3889  -72.3906    3.1537 C.3       1 MOL     0.1268
     22 C         -34.5444  -75.2957    0.7605 C.2       1 MOL     0.2187
     23 C         -35.4028  -76.4758    0.4772 C.3       1 MOL     0.0752
     24 C         -35.3748  -76.8638   -0.9618 C.3       1 MOL     0.0134
     25 C         -36.5678  -76.1614   -0.3827 C.3       1 MOL     0.0134
     26 C         -34.6416  -70.8931    6.6039 C.ar      1 MOL     0.1355
     27 C         -33.6253  -70.3775    7.4067 C.ar      1 MOL     0.0392
     28 C         -32.5098  -71.1606    7.7020 C.ar      1 MOL     0.0066
     29 O         -30.6070  -73.3983   13.0061 O.2       1 MOL    -0.2658
     30 O         -33.4284  -75.2306    0.2239 O.2       1 MOL    -0.2753
     31 O         -36.5717  -73.2639    5.9010 O.2       1 MOL    -0.2699
     32 F         -35.7280  -70.1339    6.3329 F         1 MOL    -0.2047
     33 H         -28.3186  -72.3169   12.5665 H         1 MOL     0.0625
     34 H         -26.5925  -71.3352   11.0940 H         1 MOL     0.0618
     35 H         -26.9209  -71.3028    8.6454 H         1 MOL     0.0618
     36 H         -28.9635  -72.2582    7.6537 H         1 MOL     0.0624
     37 H         -31.4828  -74.3697    7.1658 H         1 MOL     0.0377
     38 H         -30.3616  -72.9509    7.0053 H         1 MOL     0.0377
     39 H         -33.3535  -73.9753    5.9899 H         1 MOL     0.0629
     40 H         -36.9739  -72.4267    2.4296 H         1 MOL     0.0480
     41 H         -37.5350  -73.4337    3.8198 H         1 MOL     0.0480
     42 H         -37.0271  -74.8587    1.6687 H         1 MOL     0.0480
     43 H         -36.1283  -75.3211    3.1601 H         1 MOL     0.0480
     44 H         -33.1116  -73.3626    1.6099 H         1 MOL     0.0480
     45 H         -33.4113  -74.3271    3.0982 H         1 MOL     0.0480
     46 H         -34.6838  -71.5800    2.4441 H         1 MOL     0.0480
     47 H         -33.5927  -71.9907    3.8189 H         1 MOL     0.0480
     48 H         -35.4507  -77.2092    1.2418 H         1 MOL     0.0394
     49 H         -35.4938  -77.9178   -1.1849 H         1 MOL     0.0273
     50 H         -34.7424  -76.2804   -1.6196 H         1 MOL     0.0273
     51 H         -37.4598  -76.7601   -0.2433 H         1 MOL     0.0273
     52 H         -36.7067  -75.1265   -0.6674 H         1 MOL     0.0273
     53 H         -33.6993  -69.3784    7.8022 H         1 MOL     0.0646
     54 H         -31.7202  -70.7716    8.3271 H         1 MOL     0.0621
     55 H         -32.4003  -74.4856   11.7425 H         1 MOL     0.1921
@<TRIPOS>BOND
     1    1   18 1 
     2    1   21 1 
     3    1   17 am
     4    2   20 1 
     5    2   22 am
     6    2   19 1 
     7    3    4 ar
     8    3   12 ar
     9    4   55 1 
    10    4    5 ar
    11    5    6 ar
    12    5   29 2 
    13    6    7 ar
    14    6   11 ar
    15    7    8 ar
    16    7   33 1 
    17    8    9 ar
    18    8   34 1 
    19    9   10 ar
    20    9   35 1 
    21   10   11 ar
    22   10   36 1 
    23   11   12 ar
    24   12   13 1 
    25   13   14 1 
    26   13   37 1 
    27   13   38 1 
    28   14   15 ar
    29   14   28 ar
    30   15   16 ar
    31   15   39 1 
    32   16   17 1 
    33   16   26 ar
    34   17   31 2 
    35   18   19 1 
    36   18   40 1 
    37   18   41 1 
    38   19   42 1 
    39   19   43 1 
    40   20   21 1 
    41   20   44 1 
    42   20   45 1 
    43   21   46 1 
    44   21   47 1 
    45   22   23 1 
    46   22   30 2 
    47   23   24 1 
    48   23   25 1 
    49   23   48 1 
    50   24   25 1 
    51   24   49 1 
    52   24   50 1 
    53   25   51 1 
    54   25   52 1 
    55   26   27 ar
    56   26   32 1 
    57   27   28 ar
    58   27   53 1 
    59   28   54 1 
@<TRIPOS>SUBSTRUCTURE
1 MOL         1
@<TRIPOS>MOLECULE
query molecule
   55    59     1     0     0
SMALL
NO_CHARGE

@<TRIPOS>ATOM
      1 N         -53.4523  -31.8524   16.5413 N.am      1 MOL    -0.2945
      2 N         -55.4012  -33.7444   17.3352 N.am      1 MOL    -0.2983
      3 N         -49.3801  -34.2082   12.3378 N.ar      1 MOL    -0.1750
      4 N         -48.1234  -34.6125   12.2033 N.ar      1 MOL    -0.2425
      5 C         -47.5926  -34.9230   10.9318 C.ar      1 MOL     0.2725
      6 C         -48.4462  -34.8428    9.8115 C.ar      1 MOL     0.0496
      7 C         -47.9811  -35.1566    8.5308 C.ar      1 MOL     0.0138
      8 C         -48.8488  -35.1079    7.4369 C.ar      1 MOL     0.0008
      9 C         -50.1861  -34.7466    7.6190 C.ar      1 MOL     0.0007
     10 C         -50.6529  -34.4124    8.8918 C.ar      1 MOL     0.0103
     11 C         -49.7974  -34.4386   10.0045 C.ar      1 MOL     0.0106
     12 C         -50.2387  -34.0713   11.2878 C.ar      1 MOL     0.0736
     13 C         -51.6227  -33.5507   11.5082 C.3       1 MOL     0.0925
     14 C         -51.6390  -32.3964   12.4351 C.ar      1 MOL    -0.0406
     15 C         -51.9231  -32.5977   13.7907 C.ar      1 MOL     0.0196
     16 C         -51.9257  -31.5106   14.6695 C.ar      1 MOL     0.0723
     17 C         -52.1893  -31.7285   16.1004 C.2       1 MOL     0.2495
     18 C         -53.7185  -31.9649   17.9685 C.3       1 MOL     0.1268
     19 C         -54.3342  -33.3561   18.2603 C.3       1 MOL     0.1265
     20 C         -55.3321  -33.3143   15.9307 C.3       1 MOL     0.1265
     21 C         -54.6410  -31.9333   15.7189 C.3       1 MOL     0.1268
     22 C         -56.2246  -34.8168   17.5942 C.2       1 MOL     0.2187
     23 C         -56.0374  -35.5840   18.8579 C.3       1 MOL     0.0752
     24 C         -57.3194  -36.0278   19.4728 C.3       1 MOL     0.0134
     25 C         -56.6170  -34.8175   20.0046 C.3       1 MOL     0.0134
     26 C         -51.6576  -30.2283   14.1928 C.ar      1 MOL     0.1355
     27 C         -51.3813  -30.0207   12.8407 C.ar      1 MOL     0.0392
     28 C         -51.3716  -31.1070   11.9600 C.ar      1 MOL     0.0066
     29 O         -46.3950  -35.2419   10.8577 O.2       1 MOL    -0.2658
     30 O         -57.0783  -35.2155   16.7882 O.2       1 MOL    -0.2753
     31 O         -51.1935  -31.7805   16.8286 O.2       1 MOL    -0.2699
     32 F         -51.6630  -29.1690   15.0366 F         1 MOL    -0.2047
     33 H         -46.9497  -35.4440    8.3872 H         1 MOL     0.0625
     34 H         -48.4877  -35.3558    6.4496 H         1 MOL     0.0618
     35 H         -50.8599  -34.7236    6.7751 H         1 MOL     0.0618
     36 H         -51.6876  -34.1267    9.0228 H         1 MOL     0.0624
     37 H         -52.2399  -34.3590   11.9396 H         1 MOL     0.0377
     38 H         -52.0350  -33.2252   10.5354 H         1 MOL     0.0377
     39 H         -52.1348  -33.5909   14.1569 H         1 MOL     0.0629
     40 H         -54.4264  -31.1520   18.2577 H         1 MOL     0.0480
     41 H         -52.7724  -31.8172   18.5350 H         1 MOL     0.0480
     42 H         -54.7223  -33.4123   19.3056 H         1 MOL     0.0480
     43 H         -53.5122  -34.1094   18.1634 H         1 MOL     0.0480
     44 H         -56.3556  -33.3229   15.4916 H         1 MOL     0.0480
     45 H         -54.7241  -34.0727   15.3750 H         1 MOL     0.0480
     46 H         -55.3310  -31.1096   16.0238 H         1 MOL     0.0480
     47 H         -54.3698  -31.7755   14.6513 H         1 MOL     0.0480
     48 H         -55.1409  -36.1397   18.9594 H         1 MOL     0.0394
     49 H         -57.3002  -36.8996   20.1181 H         1 MOL     0.0273
     50 H         -58.2220  -35.8546   18.9028 H         1 MOL     0.0273
     51 H         -56.1375  -34.9140   20.9682 H         1 MOL     0.0273
     52 H         -57.0653  -33.8600   19.7602 H         1 MOL     0.0273
     53 H         -51.1751  -29.0254   12.4767 H         1 MOL     0.0646
     54 H         -51.1559  -30.9499   10.9132 H         1 MOL     0.0621
     55 H         -47.5142  -34.7110   12.9954 H         1 MOL     0.1921
@<TRIPOS>BOND
     1    1   18 1 
     2    1   21 1 
     3    1   17 am
     4    2   20 1 
     5    2   22 am
     6    2   19 1 
     7    3    4 ar
     8    3   12 ar
     9    4   55 1 
    10    4    5 ar
    11    5    6 ar
    12    5   29 2 
    13    6    7 ar
    14    6   11 ar
    15    7    8 ar
    16    7   33 1 
    17    8    9 ar
    18    8   34 1 
    19    9   10 ar
    20    9   35 1 
    21   10   11 ar
    22   10   36 1 
    23   11   12 ar
    24   12   13 1 
    25   13   14 1 
    26   13   37 1 
    27   13   38 1 
    28   14   15 ar
    29   14   28 ar
    30   15   16 ar
    31   15   39 1 
    32   16   17 1 
    33   16   26 ar
    34   17   31 2 
    35   18   19 1 
    36   18   40 1 
    37   18   41 1 
    38   19   42 1 
    39   19   43 1 
    40   20   21 1 
    41   20   44 1 
    42   20   45 1 
    43   21   46 1 
    44   21   47 1 
    45   22   23 1 
    46   22   30 2 
    47   23   24 1 
    48   23   25 1 
    49   23   48 1 
    50   24   25 1 
    51   24   49 1 
    52   24   50 1 
    53   25   51 1 
    54   25   52 1 
    55   26   27 ar
    56   26   32 1 
    57   27   28 ar
    58   27   53 1 
    59   28   54 1 
@<TRIPOS>SUBSTRUCTURE
1 MOL         1
@<TRIPOS>MOLECULE
query molecule
   55    59     1     0     0
SMALL
NO_CHARGE

@<TRIPOS>ATOM
      1 N         -60.6971  -70.2521   10.5825 N.am      1 MOL    -0.2945
      2 N         -63.3811  -69.7212    9.7155 N.am      1 MOL    -0.2983
      3 N         -54.1355  -69.7064   12.9886 N.ar      1 MOL    -0.1750
      4 N         -52.8603  -69.6659   12.6249 N.ar      1 MOL    -0.2425
      5 C         -52.0026  -68.6471   13.0949 C.ar      1 MOL     0.2725
      6 C         -52.5453  -67.6570   13.9443 C.ar      1 MOL     0.0496
      7 C         -51.7519  -66.6032   14.4104 C.ar      1 MOL     0.0138
      8 C         -52.3068  -65.6101   15.2145 C.ar      1 MOL     0.0008
      9 C         -53.6523  -65.6727   15.5628 C.ar      1 MOL     0.0007
     10 C         -54.4528  -66.7236   15.1194 C.ar      1 MOL     0.0103
     11 C         -53.9226  -67.7308   14.3007 C.ar      1 MOL     0.0106
     12 C         -54.7084  -68.7937   13.8252 C.ar      1 MOL     0.0736
     13 C         -56.1442  -68.9632   14.2029 C.3       1 MOL     0.0925
     14 C         -57.0484  -68.5723   13.0913 C.ar      1 MOL    -0.0406
     15 C         -57.7350  -69.5521   12.3597 C.ar      1 MOL     0.0196
     16 C         -58.6026  -69.1863   11.3153 C.ar      1 MOL     0.0723
     17 C         -59.3430  -70.2452   10.5865 C.2       1 MOL     0.2495
     18 C         -61.4339  -71.2801    9.8456 C.3       1 MOL     0.1268
     19 C         -62.5733  -70.6632    8.9645 C.3       1 MOL     0.1265
     20 C         -62.6358  -68.7165   10.4877 C.3       1 MOL     0.1265
     21 C         -61.5224  -69.3426   11.3635 C.3       1 MOL     0.1268
     22 C         -64.6952  -69.4142    9.5158 C.2       1 MOL     0.2187
     23 C         -65.3813  -69.8671    8.2830 C.3       1 MOL     0.0752
     24 C         -66.8678  -69.7967    8.4780 C.3       1 MOL     0.0134
     25 C         -66.1734  -71.1129    8.3557 C.3       1 MOL     0.0134
     26 C         -58.7447  -67.8335   11.0009 C.ar      1 MOL     0.1355
     27 C         -58.0815  -66.8533   11.7366 C.ar      1 MOL     0.0392
     28 C         -57.2309  -67.2201   12.7801 C.ar      1 MOL     0.0066
     29 O         -50.8208  -68.6633   12.7198 O.2       1 MOL    -0.2658
     30 O         -65.3002  -68.6690   10.3108 O.2       1 MOL    -0.2753
     31 O         -58.6549  -71.0987   10.0102 O.2       1 MOL    -0.2699
     32 F         -59.5375  -67.4535    9.9721 F         1 MOL    -0.2047
     33 H         -50.7084  -66.5547   14.1363 H         1 MOL     0.0625
     34 H         -51.6942  -64.7922   15.5632 H         1 MOL     0.0618
     35 H         -54.0792  -64.9000   16.1860 H         1 MOL     0.0618
     36 H         -55.4937  -66.7604   15.4092 H         1 MOL     0.0624
     37 H         -56.3587  -68.3286   15.0808 H         1 MOL     0.0377
     38 H         -56.3199  -70.0281   14.4446 H         1 MOL     0.0377
     39 H         -57.6026  -70.5962   12.6077 H         1 MOL     0.0629
     40 H         -61.9040  -71.9618   10.5982 H         1 MOL     0.0480
     41 H         -60.7163  -71.8842    9.2475 H         1 MOL     0.0480
     42 H         -63.2151  -71.4565    8.5222 H         1 MOL     0.0480
     43 H         -62.0861  -70.1100    8.1228 H         1 MOL     0.0480
     44 H         -63.3534  -68.1196   11.0940 H         1 MOL     0.0480
     45 H         -62.1530  -68.0212    9.7559 H         1 MOL     0.0480
     46 H         -61.9819  -69.9102   12.2056 H         1 MOL     0.0480
     47 H         -60.8766  -68.5438   11.7959 H         1 MOL     0.0480
     48 H         -64.9631  -69.5071    7.3700 H         1 MOL     0.0394
     49 H         -67.4671  -69.4461    7.6482 H         1 MOL     0.0273
     50 H         -67.2199  -69.5703    9.4806 H         1 MOL     0.0273
     51 H         -66.3524  -71.6234    7.4096 H         1 MOL     0.0273
     52 H         -66.0707  -71.7340    9.2345 H         1 MOL     0.0273
     53 H         -58.2185  -65.8092   11.4976 H         1 MOL     0.0646
     54 H         -56.7094  -66.4639   13.3483 H         1 MOL     0.0621
     55 H         -52.4540  -70.3464   12.0063 H         1 MOL     0.1921
@<TRIPOS>BOND
     1    1   18 1 
     2    1   21 1 
     3    1   17 am
     4    2   20 1 
     5    2   22 am
     6    2   19 1 
     7    3    4 ar
     8    3   12 ar
     9    4   55 1 
    10    4    5 ar
    11    5    6 ar
    12    5   29 2 
    13    6    7 ar
    14    6   11 ar
    15    7    8 ar
    16    7   33 1 
    17    8    9 ar
    18    8   34 1 
    19    9   10 ar
    20    9   35 1 
    21   10   11 ar
    22   10   36 1 
    23   11   12 ar
    24   12   13 1 
    25   13   14 1 
    26   13   37 1 
    27   13   38 1 
    28   14   15 ar
    29   14   28 ar
    30   15   16 ar
    31   15   39 1 
    32   16   17 1 
    33   16   26 ar
    34   17   31 2 
    35   18   19 1 
    36   18   40 1 
    37   18   41 1 
    38   19   42 1 
    39   19   43 1 
    40   20   21 1 
    41   20   44 1 
    42   20   45 1 
    43   21   46 1 
    44   21   47 1 
    45   22   23 1 
    46   22   30 2 
    47   23   24 1 
    48   23   25 1 
    49   23   48 1 
    50   24   25 1 
    51   24   49 1 
    52   24   50 1 
    53   25   51 1 
    54   25   52 1 
    55   26   27 ar
    56   26   32 1 
    57   27   28 ar
    58   27   53 1 
    59   28   54 1 
@<TRIPOS>SUBSTRUCTURE
1 MOL         1
@<TRIPOS>MOLECULE
query molecule
   55    59     1     0     0
SMALL
NO_CHARGE

@<TRIPOS>ATOM
      1 N          -8.3659  -43.1232   -9.2599 N.am      1 MOL    -0.2945
      2 N          -6.5662  -41.5187   -8.1003 N.am      1 MOL    -0.2983
      3 N         -13.1197  -40.5348   -9.3234 N.ar      1 MOL    -0.1750
      4 N         -13.1761  -39.4685   -8.5292 N.ar      1 MOL    -0.2425
      5 C         -13.3970  -38.1806   -9.0633 C.ar      1 MOL     0.2725
      6 C         -13.6026  -38.0531  -10.4528 C.ar      1 MOL     0.0496
      7 C         -13.8226  -36.8061  -11.0452 C.ar      1 MOL     0.0138
      8 C         -14.0489  -36.7052  -12.4200 C.ar      1 MOL     0.0008
      9 C         -14.0712  -37.8532  -13.2140 C.ar      1 MOL     0.0007
     10 C         -13.8424  -39.1028  -12.6366 C.ar      1 MOL     0.0103
     11 C         -13.5845  -39.2273  -11.2621 C.ar      1 MOL     0.0106
     12 C         -13.3032  -40.4738  -10.6739 C.ar      1 MOL     0.0736
     13 C         -13.1906  -41.7253  -11.4905 C.3       1 MOL     0.0925
     14 C         -11.7739  -41.9524  -11.8794 C.ar      1 MOL    -0.0406
     15 C         -10.9311  -42.6645  -11.0271 C.ar      1 MOL     0.0196
     16 C          -9.5915  -42.8715  -11.3674 C.ar      1 MOL     0.0723
     17 C          -8.7120  -43.6359  -10.4624 C.2       1 MOL     0.2495
     18 C          -7.3389  -43.8455   -8.5061 C.3       1 MOL     0.1268
     19 C          -6.4371  -42.8991   -7.6661 C.3       1 MOL     0.1265
     20 C          -7.9031  -40.9373   -8.1114 C.3       1 MOL     0.1265
     21 C          -8.9625  -41.9422   -8.6530 C.3       1 MOL     0.1268
     22 C          -5.4976  -40.6886   -8.2480 C.2       1 MOL     0.2187
     23 C          -4.2626  -41.2506   -8.8472 C.3       1 MOL     0.0752
     24 C          -3.8148  -40.4533  -10.0316 C.3       1 MOL     0.0134
     25 C          -4.5232  -41.7615  -10.2341 C.3       1 MOL     0.0134
     26 C          -9.1006  -42.3664  -12.5726 C.ar      1 MOL     0.1355
     27 C          -9.9392  -41.6615  -13.4385 C.ar      1 MOL     0.0392
     28 C         -11.2777  -41.4581  -13.0918 C.ar      1 MOL     0.0066
     29 O         -13.3909  -37.2195   -8.2689 O.2       1 MOL    -0.2658
     30 O          -5.5245  -39.5017   -7.8972 O.2       1 MOL    -0.2753
     31 O          -8.2927  -44.7120  -10.9009 O.2       1 MOL    -0.2699
     32 F          -7.8029  -42.5488  -12.9156 F         1 MOL    -0.2047
     33 H         -13.8191  -35.9161  -10.4346 H         1 MOL     0.0625
     34 H         -14.2099  -35.7378  -12.8708 H         1 MOL     0.0618
     35 H         -14.2661  -37.7758  -14.2731 H         1 MOL     0.0618
     36 H         -13.8602  -39.9868  -13.2606 H         1 MOL     0.0624
     37 H         -13.7952  -41.6166  -12.4064 H         1 MOL     0.0377
     38 H         -13.5338  -42.5827  -10.8879 H         1 MOL     0.0377
     39 H         -11.3096  -43.0531  -10.0909 H         1 MOL     0.0629
     40 H          -6.7118  -44.4095   -9.2414 H         1 MOL     0.0480
     41 H          -7.8325  -44.5885   -7.8375 H         1 MOL     0.0480
     42 H          -5.3723  -43.2121   -7.6923 H         1 MOL     0.0480
     43 H          -6.7814  -42.9446   -6.6024 H         1 MOL     0.0480
     44 H          -7.8702  -40.0253   -8.7566 H         1 MOL     0.0480
     45 H          -8.1757  -40.6203   -7.0801 H         1 MOL     0.0480
     46 H          -9.6273  -41.4466   -9.4024 H         1 MOL     0.0480
     47 H          -9.6045  -42.2794   -7.8047 H         1 MOL     0.0480
     48 H          -3.5796  -41.7168   -8.1978 H         1 MOL     0.0394
     49 H          -2.7517  -40.4561  -10.2517 H         1 MOL     0.0273
     50 H          -4.3712  -39.5608  -10.2789 H         1 MOL     0.0273
     51 H          -3.9150  -42.5880  -10.5851 H         1 MOL     0.0273
     52 H          -5.5361  -41.7000  -10.6133 H         1 MOL     0.0273
     53 H          -9.5559  -41.2762  -14.3717 H         1 MOL     0.0646
     54 H         -11.9304  -40.9137  -13.7601 H         1 MOL     0.0621
     55 H         -13.0736  -39.5330   -7.5353 H         1 MOL     0.1921
@<TRIPOS>BOND
     1    1   18 1 
     2    1   21 1 
     3    1   17 am
     4    2   20 1 
     5    2   22 am
     6    2   19 1 
     7    3    4 ar
     8    3   12 ar
     9    4   55 1 
    10    4    5 ar
    11    5    6 ar
    12    5   29 2 
    13    6    7 ar
    14    6   11 ar
    15    7    8 ar
    16    7   33 1 
    17    8    9 ar
    18    8   34 1 
    19    9   10 ar
    20    9   35 1 
    21   10   11 ar
    22   10   36 1 
    23   11   12 ar
    24   12   13 1 
    25   13   14 1 
    26   13   37 1 
    27   13   38 1 
    28   14   15 ar
    29   14   28 ar
    30   15   16 ar
    31   15   39 1 
    32   16   17 1 
    33   16   26 ar
    34   17   31 2 
    35   18   19 1 
    36   18   40 1 
    37   18   41 1 
    38   19   42 1 
    39   19   43 1 
    40   20   21 1 
    41   20   44 1 
    42   20   45 1 
    43   21   46 1 
    44   21   47 1 
    45   22   23 1 
    46   22   30 2 
    47   23   24 1 
    48   23   25 1 
    49   23   48 1 
    50   24   25 1 
    51   24   49 1 
    52   24   50 1 
    53   25   51 1 
    54   25   52 1 
    55   26   27 ar
    56   26   32 1 
    57   27   28 ar
    58   27   53 1 
    59   28   54 1 
@<TRIPOS>SUBSTRUCTURE
1 MOL         1
@<TRIPOS>MOLECULE
query molecule
   55    59     1     0     0
SMALL
NO_CHARGE

@<TRIPOS>ATOM
      1 N         -67.1961  -51.7038   15.4423 N.am      1 MOL    -0.2945
      2 N         -66.0825  -49.1624   16.1912 N.am      1 MOL    -0.2983
      3 N         -66.7854  -57.9071   18.1242 N.ar      1 MOL    -0.1750
      4 N         -66.0695  -58.9817   17.8201 N.ar      1 MOL    -0.2425
      5 C         -64.7450  -59.1296   18.2902 C.ar      1 MOL     0.2725
      6 C         -64.2181  -58.1160   19.1219 C.ar      1 MOL     0.0496
      7 C         -62.9230  -58.2121   19.6295 C.ar      1 MOL     0.0138
      8 C         -62.4229  -57.2286   20.4835 C.ar      1 MOL     0.0008
      9 C         -63.2231  -56.1484   20.8373 C.ar      1 MOL     0.0007
     10 C         -64.5139  -56.0283   20.3179 C.ar      1 MOL     0.0103
     11 C         -65.0354  -56.9947   19.4467 C.ar      1 MOL     0.0106
     12 C         -66.3321  -56.8872   18.9074 C.ar      1 MOL     0.0736
     13 C         -67.1953  -55.7096   19.2137 C.3       1 MOL     0.0925
     14 C         -68.0199  -55.2344   18.0750 C.ar      1 MOL    -0.0406
     15 C         -67.5083  -54.3401   17.1191 C.ar      1 MOL     0.0196
     16 C         -68.3212  -53.8246   16.0979 C.ar      1 MOL     0.0723
     17 C         -67.8489  -52.8433   15.0881 C.2       1 MOL     0.2495
     18 C         -67.1359  -50.6064   14.4698 C.3       1 MOL     0.1268
     19 C         -67.0711  -49.1890   15.1307 C.3       1 MOL     0.1265
     20 C         -66.3364  -50.1508   17.2345 C.3       1 MOL     0.1265
     21 C         -66.4172  -51.5759   16.6565 C.3       1 MOL     0.1268
     22 C         -65.1071  -48.2287   16.3764 C.2       1 MOL     0.2187
     23 C         -65.1549  -46.9769   15.5824 C.3       1 MOL     0.0752
     24 C         -64.8744  -47.1273   14.1336 C.3       1 MOL     0.0134
     25 C         -63.7967  -46.6398   15.0525 C.3       1 MOL     0.0134
     26 C         -69.6557  -54.2685   16.0308 C.ar      1 MOL     0.1355
     27 C         -70.1663  -55.1781   16.9580 C.ar      1 MOL     0.0392
     28 C         -69.3433  -55.6536   17.9837 C.ar      1 MOL     0.0066
     29 O         -64.1128  -60.1403   17.9520 O.2       1 MOL    -0.2658
     30 O         -64.2204  -48.3413   17.2307 O.2       1 MOL    -0.2753
     31 O         -68.1755  -53.0756   13.9149 O.2       1 MOL    -0.2699
     32 F         -70.4881  -53.8106   15.0633 F         1 MOL    -0.2047
     33 H         -62.3004  -59.0541   19.3648 H         1 MOL     0.0625
     34 H         -61.4183  -57.3041   20.8713 H         1 MOL     0.0618
     35 H         -62.8451  -55.3931   21.5128 H         1 MOL     0.0618
     36 H         -65.1215  -55.1778   20.5930 H         1 MOL     0.0624
     37 H         -66.5482  -54.8798   19.5483 H         1 MOL     0.0377
     38 H         -67.8893  -55.9997   20.0308 H         1 MOL     0.0377
     39 H         -66.4763  -54.0368   17.1817 H         1 MOL     0.0629
     40 H         -67.9978  -50.6864   13.7680 H         1 MOL     0.0480
     41 H         -66.2010  -50.7463   13.8685 H         1 MOL     0.0480
     42 H         -68.0660  -48.9231   15.5610 H         1 MOL     0.0480
     43 H         -66.8093  -48.4147   14.3703 H         1 MOL     0.0480
     44 H         -67.3067  -49.8958   17.7267 H         1 MOL     0.0480
     45 H         -65.5348  -50.0875   18.0045 H         1 MOL     0.0480
     46 H         -66.8098  -52.2937   17.4150 H         1 MOL     0.0480
     47 H         -65.3712  -51.8929   16.4085 H         1 MOL     0.0480
     48 H         -65.7883  -46.2187   15.9710 H         1 MOL     0.0394
     49 H         -65.3200  -46.3841   13.4802 H         1 MOL     0.0273
     50 H         -64.7889  -48.1357   13.7595 H         1 MOL     0.0273
     51 H         -63.5425  -45.5880   14.9789 H         1 MOL     0.0273
     52 H         -62.9945  -47.3388   15.2530 H         1 MOL     0.0273
     53 H         -71.1935  -55.5062   16.8895 H         1 MOL     0.0646
     54 H         -69.7470  -56.3506   18.7112 H         1 MOL     0.0621
     55 H         -66.4311  -59.7323   17.2561 H         1 MOL     0.1921
@<TRIPOS>BOND
     1    1   18 1 
     2    1   21 1 
     3    1   17 am
     4    2   20 1 
     5    2   22 am
     6    2   19 1 
     7    3    4 ar
     8    3   12 ar
     9    4   55 1 
    10    4    5 ar
    11    5    6 ar
    12    5   29 2 
    13    6    7 ar
    14    6   11 ar
    15    7    8 ar
    16    7   33 1 
    17    8    9 ar
    18    8   34 1 
    19    9   10 ar
    20    9   35 1 
    21   10   11 ar
    22   10   36 1 
    23   11   12 ar
    24   12   13 1 
    25   13   14 1 
    26   13   37 1 
    27   13   38 1 
    28   14   15 ar
    29   14   28 ar
    30   15   16 ar
    31   15   39 1 
    32   16   17 1 
    33   16   26 ar
    34   17   31 2 
    35   18   19 1 
    36   18   40 1 
    37   18   41 1 
    38   19   42 1 
    39   19   43 1 
    40   20   21 1 
    41   20   44 1 
    42   20   45 1 
    43   21   46 1 
    44   21   47 1 
    45   22   23 1 
    46   22   30 2 
    47   23   24 1 
    48   23   25 1 
    49   23   48 1 
    50   24   25 1 
    51   24   49 1 
    52   24   50 1 
    53   25   51 1 
    54   25   52 1 
    55   26   27 ar
    56   26   32 1 
    57   27   28 ar
    58   27   53 1 
    59   28   54 1 
@<TRIPOS>SUBSTRUCTURE
1 MOL         1
@<TRIPOS>MOLECULE
query molecule
   55    59     1     0     0
SMALL
NO_CHARGE

@<TRIPOS>ATOM
      1 N         -13.7999  -51.5913   25.9693 N.am      1 MOL    -0.2945
      2 N         -15.9848  -53.4100   26.3884 N.am      1 MOL    -0.2983
      3 N         -12.0474  -55.1602   22.6062 N.ar      1 MOL    -0.1750
      4 N         -12.8493  -56.0703   22.0624 N.ar      1 MOL    -0.2425
      5 C         -12.6781  -56.4783   20.7181 C.ar      1 MOL     0.2725
      6 C         -11.6248  -55.8924   19.9768 C.ar      1 MOL     0.0496
      7 C         -11.4154  -56.2116   18.6310 C.ar      1 MOL     0.0138
      8 C         -10.3972  -55.5919   17.9054 C.ar      1 MOL     0.0008
      9 C          -9.5614  -54.6622   18.5215 C.ar      1 MOL     0.0007
     10 C          -9.7441  -54.3443   19.8648 C.ar      1 MOL     0.0103
     11 C         -10.7786  -54.9324   20.6132 C.ar      1 MOL     0.0106
     12 C         -11.0010  -54.5716   21.9546 C.ar      1 MOL     0.0736
     13 C         -10.1264  -53.5880   22.6698 C.3       1 MOL     0.0925
     14 C         -10.7704  -52.2625   22.8529 C.ar      1 MOL    -0.0406
     15 C         -11.5374  -52.0272   23.9797 C.ar      1 MOL     0.0196
     16 C         -12.2156  -50.8206   24.2135 C.ar      1 MOL     0.0723
     17 C         -13.0678  -50.5858   25.4138 C.2       1 MOL     0.2495
     18 C         -14.8560  -51.2289   26.9201 C.3       1 MOL     0.1268
     19 C         -16.1731  -51.9888   26.6094 C.3       1 MOL     0.1265
     20 C         -14.9164  -53.7599   25.4523 C.3       1 MOL     0.1265
     21 C         -13.6035  -53.0163   25.7923 C.3       1 MOL     0.1268
     22 C         -16.9036  -54.3770   26.6748 C.2       1 MOL     0.2187
     23 C         -18.1754  -54.0102   27.3359 C.3       1 MOL     0.0752
     24 C         -18.0527  -53.3015   28.6346 C.3       1 MOL     0.0134
     25 C         -18.3314  -54.7707   28.6145 C.3       1 MOL     0.0134
     26 C         -12.0439  -49.8085   23.2491 C.ar      1 MOL     0.1355
     27 C         -11.2346  -50.0079   22.1274 C.ar      1 MOL     0.0392
     28 C         -10.6028  -51.2351   21.9183 C.ar      1 MOL     0.0066
     29 O         -13.4668  -57.3246   20.2586 O.2       1 MOL    -0.2658
     30 O         -16.7432  -55.5622   26.3471 O.2       1 MOL    -0.2753
     31 O         -13.1265  -49.4312   25.8306 O.2       1 MOL    -0.2699
     32 F         -12.6740  -48.6124   23.3744 F         1 MOL    -0.2047
     33 H         -12.0560  -56.9333   18.1435 H         1 MOL     0.0625
     34 H         -10.2546  -55.8297   16.8612 H         1 MOL     0.0618
     35 H          -8.7688  -54.1862   17.9592 H         1 MOL     0.0618
     36 H          -9.0881  -53.6240   20.3362 H         1 MOL     0.0624
     37 H          -9.1955  -53.4552   22.0926 H         1 MOL     0.0377
     38 H          -9.8947  -53.9960   23.6736 H         1 MOL     0.0377
     39 H         -11.6417  -52.8260   24.7190 H         1 MOL     0.0629
     40 H         -15.0228  -50.1271   26.8792 H         1 MOL     0.0480
     41 H         -14.5085  -51.4811   27.9497 H         1 MOL     0.0480
     42 H         -16.6245  -51.5572   25.6809 H         1 MOL     0.0480
     43 H         -16.9054  -51.8459   27.4400 H         1 MOL     0.0480
     44 H         -15.2469  -53.4611   24.4271 H         1 MOL     0.0480
     45 H         -14.7607  -54.8589   25.4523 H         1 MOL     0.0480
     46 H         -12.8836  -53.1627   24.9451 H         1 MOL     0.0480
     47 H         -13.1438  -53.4231   26.7214 H         1 MOL     0.0480
     48 H         -18.9999  -53.8749   26.6815 H         1 MOL     0.0394
     49 H         -18.8729  -52.6409   28.8885 H         1 MOL     0.0273
     50 H         -17.0563  -52.9853   28.9183 H         1 MOL     0.0273
     51 H         -19.3346  -55.0760   28.8844 H         1 MOL     0.0273
     52 H         -17.5108  -55.4067   28.9266 H         1 MOL     0.0273
     53 H         -11.1047  -49.2066   21.4095 H         1 MOL     0.0646
     54 H          -9.9930  -51.3964   21.0425 H         1 MOL     0.0621
     55 H         -13.6006  -56.5055   22.5724 H         1 MOL     0.1921
@<TRIPOS>BOND
     1    1   18 1 
     2    1   21 1 
     3    1   17 am
     4    2   20 1 
     5    2   22 am
     6    2   19 1 
     7    3    4 ar
     8    3   12 ar
     9    4   55 1 
    10    4    5 ar
    11    5    6 ar
    12    5   29 2 
    13    6    7 ar
    14    6   11 ar
    15    7    8 ar
    16    7   33 1 
    17    8    9 ar
    18    8   34 1 
    19    9   10 ar
    20    9   35 1 
    21   10   11 ar
    22   10   36 1 
    23   11   12 ar
    24   12   13 1 
    25   13   14 1 
    26   13   37 1 
    27   13   38 1 
    28   14   15 ar
    29   14   28 ar
    30   15   16 ar
    31   15   39 1 
    32   16   17 1 
    33   16   26 ar
    34   17   31 2 
    35   18   19 1 
    36   18   40 1 
    37   18   41 1 
    38   19   42 1 
    39   19   43 1 
    40   20   21 1 
    41   20   44 1 
    42   20   45 1 
    43   21   46 1 
    44   21   47 1 
    45   22   23 1 
    46   22   30 2 
    47   23   24 1 
    48   23   25 1 
    49   23   48 1 
    50   24   25 1 
    51   24   49 1 
    52   24   50 1 
    53   25   51 1 
    54   25   52 1 
    55   26   27 ar
    56   26   32 1 
    57   27   28 ar
    58   27   53 1 
    59   28   54 1 
@<TRIPOS>SUBSTRUCTURE
1 MOL         1
@<TRIPOS>MOLECULE
query molecule
   55    59     1     0     0
SMALL
NO_CHARGE

@<TRIPOS>ATOM
      1 N         -33.8208  -24.4880  -10.2402 N.am      1 MOL    -0.2945
      2 N         -34.6329  -27.2144  -10.6650 N.am      1 MOL    -0.2983
      3 N         -36.7300  -23.3863   -4.6275 N.ar      1 MOL    -0.1750
      4 N         -36.7113  -24.3987   -3.7625 N.ar      1 MOL    -0.2425
      5 C         -37.4169  -25.5920   -4.0353 C.ar      1 MOL     0.2725
      6 C         -38.1244  -25.6826   -5.2577 C.ar      1 MOL     0.0496
      7 C         -38.8836  -26.8186   -5.5686 C.ar      1 MOL     0.0138
      8 C         -39.4592  -26.9542   -6.8316 C.ar      1 MOL     0.0008
      9 C         -39.3172  -25.9387   -7.7788 C.ar      1 MOL     0.0007
     10 C         -38.6257  -24.7708   -7.4535 C.ar      1 MOL     0.0103
     11 C         -38.0326  -24.6106   -6.1906 C.ar      1 MOL     0.0106
     12 C         -37.3562  -23.4299   -5.8372 C.ar      1 MOL     0.0736
     13 C         -37.3413  -22.2439   -6.7451 C.3       1 MOL     0.0925
     14 C         -36.0081  -21.9782   -7.3296 C.ar      1 MOL    -0.0406
     15 C         -35.5839  -22.6700   -8.4689 C.ar      1 MOL     0.0196
     16 C         -34.3344  -22.3992   -9.0410 C.ar      1 MOL     0.0723
     17 C         -33.8644  -23.1367  -10.2335 C.2       1 MOL     0.2495
     18 C         -33.4200  -25.1727  -11.4693 C.3       1 MOL     0.1268
     19 C         -34.3836  -26.3478  -11.8135 C.3       1 MOL     0.1265
     20 C         -35.0005  -26.5231   -9.4223 C.3       1 MOL     0.1265
     21 C         -34.0348  -25.3455   -9.0859 C.3       1 MOL     0.1268
     22 C         -34.8690  -28.5588  -10.7592 C.2       1 MOL     0.2187
     23 C         -34.7999  -29.2240  -12.0870 C.3       1 MOL     0.0752
     24 C         -33.9530  -30.4512  -12.0620 C.3       1 MOL     0.0134
     25 C         -33.4420  -29.2021  -12.7024 C.3       1 MOL     0.0134
     26 C         -33.5296  -21.4029   -8.4743 C.ar      1 MOL     0.1355
     27 C         -33.9429  -20.7131   -7.3330 C.ar      1 MOL     0.0392
     28 C         -35.1805  -21.0065   -6.7564 C.ar      1 MOL     0.0066
     29 O         -37.3405  -26.5249   -3.2156 O.2       1 MOL    -0.2658
     30 O         -35.2117  -29.2445   -9.7803 O.2       1 MOL    -0.2753
     31 O         -33.5280  -22.4424  -11.2022 O.2       1 MOL    -0.2699
     32 F         -32.3220  -21.1082   -9.0145 F         1 MOL    -0.2047
     33 H         -38.9932  -27.6046   -4.8366 H         1 MOL     0.0625
     34 H         -40.0100  -27.8498   -7.0789 H         1 MOL     0.0618
     35 H         -39.7468  -26.0545   -8.7634 H         1 MOL     0.0618
     36 H         -38.5443  -23.9795   -8.1867 H         1 MOL     0.0624
     37 H         -37.6569  -21.3520   -6.1725 H         1 MOL     0.0377
     38 H         -38.0508  -22.4311   -7.5751 H         1 MOL     0.0377
     39 H         -36.2251  -23.4178   -8.9147 H         1 MOL     0.0629
     40 H         -32.3890  -25.5764  -11.3156 H         1 MOL     0.0480
     41 H         -33.3741  -24.4339  -12.3021 H         1 MOL     0.0480
     42 H         -33.9584  -26.9573  -12.6454 H         1 MOL     0.0480
     43 H         -35.3608  -25.9339  -12.1589 H         1 MOL     0.0480
     44 H         -35.0358  -27.2593   -8.5878 H         1 MOL     0.0480
     45 H         -36.0300  -26.1061   -9.5530 H         1 MOL     0.0480
     46 H         -33.0444  -25.7548   -8.7708 H         1 MOL     0.0480
     47 H         -34.4291  -24.7300   -8.2447 H         1 MOL     0.0480
     48 H         -35.6806  -29.1682  -12.6760 H         1 MOL     0.0394
     49 H         -34.2377  -31.2588  -12.7270 H         1 MOL     0.0273
     50 H         -33.5123  -30.7270  -11.1125 H         1 MOL     0.0273
     51 H         -33.4060  -29.1883  -13.7858 H         1 MOL     0.0273
     52 H         -32.6756  -28.6540  -12.1687 H         1 MOL     0.0273
     53 H         -33.3051  -19.9593   -6.8968 H         1 MOL     0.0646
     54 H         -35.5028  -20.4787   -5.8712 H         1 MOL     0.0621
     55 H         -36.1960  -24.3596   -2.9006 H         1 MOL     0.1921
@<TRIPOS>BOND
     1    1   18 1 
     2    1   21 1 
     3    1   17 am
     4    2   20 1 
     5    2   22 am
     6    2   19 1 
     7    3    4 ar
     8    3   12 ar
     9    4   55 1 
    10    4    5 ar
    11    5    6 ar
    12    5   29 2 
    13    6    7 ar
    14    6   11 ar
    15    7    8 ar
    16    7   33 1 
    17    8    9 ar
    18    8   34 1 
    19    9   10 ar
    20    9   35 1 
    21   10   11 ar
    22   10   36 1 
    23   11   12 ar
    24   12   13 1 
    25   13   14 1 
    26   13   37 1 
    27   13   38 1 
    28   14   15 ar
    29   14   28 ar
    30   15   16 ar
    31   15   39 1 
    32   16   17 1 
    33   16   26 ar
    34   17   31 2 
    35   18   19 1 
    36   18   40 1 
    37   18   41 1 
    38   19   42 1 
    39   19   43 1 
    40   20   21 1 
    41   20   44 1 
    42   20   45 1 
    43   21   46 1 
    44   21   47 1 
    45   22   23 1 
    46   22   30 2 
    47   23   24 1 
    48   23   25 1 
    49   23   48 1 
    50   24   25 1 
    51   24   49 1 
    52   24   50 1 
    53   25   51 1 
    54   25   52 1 
    55   26   27 ar
    56   26   32 1 
    57   27   28 ar
    58   27   53 1 
    59   28   54 1 
@<TRIPOS>SUBSTRUCTURE
1 MOL         1
@<TRIPOS>MOLECULE
query molecule
   55    59     1     0     0
SMALL
NO_CHARGE

@<TRIPOS>ATOM
      1 N         -15.4522  -71.4200   23.4927 N.am      1 MOL    -0.2945
      2 N         -17.4167  -72.5356   21.7481 N.am      1 MOL    -0.2983
      3 N         -12.9833  -70.3725   19.5119 N.ar      1 MOL    -0.1750
      4 N         -13.0870  -71.2686   18.5407 N.ar      1 MOL    -0.2425
      5 C         -12.2007  -71.2661   17.4425 C.ar      1 MOL     0.2725
      6 C         -11.1369  -70.3447   17.4541 C.ar      1 MOL     0.0496
      7 C         -10.1806  -70.3465   16.4358 C.ar      1 MOL     0.0138
      8 C          -9.1136  -69.4494   16.4781 C.ar      1 MOL     0.0008
      9 C          -9.0075  -68.5352   17.5277 C.ar      1 MOL     0.0007
     10 C          -9.9679  -68.5180   18.5410 C.ar      1 MOL     0.0103
     11 C         -11.0430  -69.4186   18.5329 C.ar      1 MOL     0.0106
     12 C         -12.0149  -69.4144   19.5467 C.ar      1 MOL     0.0736
     13 C         -12.0066  -68.3850   20.6351 C.3       1 MOL     0.0925
     14 C         -12.0770  -69.0246   21.9700 C.ar      1 MOL    -0.0406
     15 C         -13.3107  -69.4351   22.4822 C.ar      1 MOL     0.0196
     16 C         -13.3895  -70.0944   23.7132 C.ar      1 MOL     0.0723
     17 C         -14.6919  -70.5720   24.2279 C.2       1 MOL     0.2495
     18 C         -16.7152  -71.9002   24.0575 C.3       1 MOL     0.1268
     19 C         -17.8627  -71.9492   23.0046 C.3       1 MOL     0.1265
     20 C         -16.1989  -71.9720   21.1754 C.3       1 MOL     0.1265
     21 C         -15.0465  -72.0042   22.2224 C.3       1 MOL     0.1268
     22 C         -18.1229  -73.4580   21.0421 C.2       1 MOL     0.2187
     23 C         -19.2285  -74.1638   21.7369 C.3       1 MOL     0.0752
     24 C         -18.6895  -75.3344   22.5024 C.3       1 MOL     0.0134
     25 C         -19.4607  -75.5420   21.2331 C.3       1 MOL     0.0134
     26 C         -12.2178  -70.2944   24.4505 C.ar      1 MOL     0.1355
     27 C         -10.9829  -69.8617   23.9600 C.ar      1 MOL     0.0392
     28 C         -10.9121  -69.2285   22.7154 C.ar      1 MOL     0.0066
     29 O         -12.4190  -72.0664   16.5202 O.2       1 MOL    -0.2658
     30 O         -17.8755  -73.7289   19.8575 O.2       1 MOL    -0.2753
     31 O         -15.0160  -70.1670   25.3514 O.2       1 MOL    -0.2699
     32 F         -12.2608  -70.9211   25.6512 F         1 MOL    -0.2047
     33 H         -10.2596  -71.0538   15.6232 H         1 MOL     0.0625
     34 H          -8.3634  -69.4664   15.7010 H         1 MOL     0.0618
     35 H          -8.1770  -67.8455   17.5609 H         1 MOL     0.0618
     36 H          -9.8793  -67.8007   19.3461 H         1 MOL     0.0624
     37 H         -12.8837  -67.7261   20.5111 H         1 MOL     0.0377
     38 H         -11.0690  -67.8053   20.5688 H         1 MOL     0.0377
     39 H         -14.2117  -69.2575   21.9121 H         1 MOL     0.0629
     40 H         -16.9951  -71.2588   24.9250 H         1 MOL     0.0480
     41 H         -16.5420  -72.9346   24.4441 H         1 MOL     0.0480
     42 H         -18.2071  -70.9053   22.8007 H         1 MOL     0.0480
     43 H         -18.7336  -72.5236   23.3943 H         1 MOL     0.0480
     44 H         -16.4017  -70.9217   20.8599 H         1 MOL     0.0480
     45 H         -15.9221  -72.5582   20.2694 H         1 MOL     0.0480
     46 H         -14.1454  -71.4704   21.8454 H         1 MOL     0.0480
     47 H         -14.7594  -73.0677   22.4128 H         1 MOL     0.0480
     48 H         -19.9854  -73.5598   22.1611 H         1 MOL     0.0394
     49 H         -19.1966  -75.6154   23.4181 H         1 MOL     0.0273
     50 H         -17.6254  -75.5329   22.4485 H         1 MOL     0.0273
     51 H         -20.4699  -75.9279   21.3313 H         1 MOL     0.0273
     52 H         -18.8992  -75.8317   20.3553 H         1 MOL     0.0273
     53 H         -10.0847  -70.0194   24.5388 H         1 MOL     0.0646
     54 H          -9.9578  -68.9006   22.3303 H         1 MOL     0.0621
     55 H         -13.7867  -71.9854   18.5481 H         1 MOL     0.1921
@<TRIPOS>BOND
     1    1   18 1 
     2    1   21 1 
     3    1   17 am
     4    2   20 1 
     5    2   22 am
     6    2   19 1 
     7    3    4 ar
     8    3   12 ar
     9    4   55 1 
    10    4    5 ar
    11    5    6 ar
    12    5   29 2 
    13    6    7 ar
    14    6   11 ar
    15    7    8 ar
    16    7   33 1 
    17    8    9 ar
    18    8   34 1 
    19    9   10 ar
    20    9   35 1 
    21   10   11 ar
    22   10   36 1 
    23   11   12 ar
    24   12   13 1 
    25   13   14 1 
    26   13   37 1 
    27   13   38 1 
    28   14   15 ar
    29   14   28 ar
    30   15   16 ar
    31   15   39 1 
    32   16   17 1 
    33   16   26 ar
    34   17   31 2 
    35   18   19 1 
    36   18   40 1 
    37   18   41 1 
    38   19   42 1 
    39   19   43 1 
    40   20   21 1 
    41   20   44 1 
    42   20   45 1 
    43   21   46 1 
    44   21   47 1 
    45   22   23 1 
    46   22   30 2 
    47   23   24 1 
    48   23   25 1 
    49   23   48 1 
    50   24   25 1 
    51   24   49 1 
    52   24   50 1 
    53   25   51 1 
    54   25   52 1 
    55   26   27 ar
    56   26   32 1 
    57   27   28 ar
    58   27   53 1 
    59   28   54 1 
@<TRIPOS>SUBSTRUCTURE
1 MOL         1
@<TRIPOS>MOLECULE
query molecule
   55    59     1     0     0
SMALL
NO_CHARGE

@<TRIPOS>ATOM
      1 N         -50.2306  -57.8244   26.4025 N.am      1 MOL    -0.2945
      2 N         -51.6214  -58.3215   23.9907 N.am      1 MOL    -0.2983
      3 N         -44.6224  -58.7782   28.6482 N.ar      1 MOL    -0.1750
      4 N         -44.2380  -59.9988   28.2959 N.ar      1 MOL    -0.2425
      5 C         -43.8131  -60.2684   26.9780 C.ar      1 MOL     0.2725
      6 C         -43.8365  -59.2137   26.0414 C.ar      1 MOL     0.0496
      7 C         -43.4273  -59.4259   24.7260 C.ar      1 MOL     0.0138
      8 C         -43.5108  -58.4067   23.7842 C.ar      1 MOL     0.0008
      9 C         -43.9934  -57.1621   24.1662 C.ar      1 MOL     0.0007
     10 C         -44.3671  -56.9167   25.4848 C.ar      1 MOL     0.0103
     11 C         -44.2948  -57.9296   26.4507 C.ar      1 MOL     0.0106
     12 C         -44.6509  -57.7162   27.7912 C.ar      1 MOL     0.0736
     13 C         -45.0318  -56.3860   28.3462 C.3       1 MOL     0.0925
     14 C         -46.3809  -55.9155   27.9786 C.ar      1 MOL    -0.0406
     15 C         -47.4830  -56.7719   27.9460 C.ar      1 MOL     0.0196
     16 C         -48.7403  -56.2877   27.5757 C.ar      1 MOL     0.0723
     17 C         -49.8773  -57.2246   27.5589 C.2       1 MOL     0.2495
     18 C         -51.3756  -58.7343   26.4066 C.3       1 MOL     0.1268
     19 C         -52.3523  -58.3689   25.2478 C.3       1 MOL     0.1265
     20 C         -50.5144  -57.3707   23.9723 C.3       1 MOL     0.1265
     21 C         -49.5210  -57.6711   25.1394 C.3       1 MOL     0.1268
     22 C         -51.9304  -59.0444   22.8880 C.2       1 MOL     0.2187
     23 C         -52.8292  -60.2129   23.0156 C.3       1 MOL     0.0752
     24 C         -52.3948  -61.2943   23.9382 C.3       1 MOL     0.0134
     25 C         -52.0831  -61.3985   22.4820 C.3       1 MOL     0.0134
     26 C         -48.8997  -54.9449   27.2468 C.ar      1 MOL     0.1355
     27 C         -47.8109  -54.0736   27.3057 C.ar      1 MOL     0.0392
     28 C         -46.5483  -54.5583   27.6627 C.ar      1 MOL     0.0066
     29 O         -43.4556  -61.4264   26.7064 O.2       1 MOL    -0.2658
     30 O         -51.5064  -58.7660   21.7549 O.2       1 MOL    -0.2753
     31 O         -50.4564  -57.4053   28.6353 O.2       1 MOL    -0.2699
     32 F         -50.1105  -54.4741   26.8662 F         1 MOL    -0.2047
     33 H         -43.0576  -60.3983   24.4319 H         1 MOL     0.0625
     34 H         -43.2098  -58.5821   22.7635 H         1 MOL     0.0618
     35 H         -44.0760  -56.3722   23.4329 H         1 MOL     0.0618
     36 H         -44.7204  -55.9344   25.7669 H         1 MOL     0.0624
     37 H         -44.2975  -55.6384   27.9874 H         1 MOL     0.0377
     38 H         -44.9824  -56.4507   29.4523 H         1 MOL     0.0377
     39 H         -47.3661  -57.8144   28.2036 H         1 MOL     0.0629
     40 H         -51.8777  -58.6962   27.3977 H         1 MOL     0.0480
     41 H         -50.9920  -59.7732   26.2542 H         1 MOL     0.0480
     42 H         -52.7845  -57.3550   25.4420 H         1 MOL     0.0480
     43 H         -53.1867  -59.0969   25.1613 H         1 MOL     0.0480
     44 H         -50.9405  -56.3465   24.0955 H         1 MOL     0.0480
     45 H         -50.0017  -57.4128   22.9850 H         1 MOL     0.0480
     46 H         -48.7557  -56.8717   25.2409 H         1 MOL     0.0480
     47 H         -48.9940  -58.6329   24.9227 H         1 MOL     0.0480
     48 H         -53.8432  -60.0463   22.7639 H         1 MOL     0.0394
     49 H         -53.1659  -61.9606   24.3073 H         1 MOL     0.0273
     50 H         -51.5671  -61.0718   24.5964 H         1 MOL     0.0273
     51 H         -52.6589  -62.0986   21.8959 H         1 MOL     0.0273
     52 H         -51.0443  -61.2410   22.2020 H         1 MOL     0.0273
     53 H         -47.9420  -53.0294   27.0630 H         1 MOL     0.0646
     54 H         -45.7018  -53.8874   27.6905 H         1 MOL     0.0621
     55 H         -44.2360  -60.7709   28.9389 H         1 MOL     0.1921
@<TRIPOS>BOND
     1    1   18 1 
     2    1   21 1 
     3    1   17 am
     4    2   20 1 
     5    2   22 am
     6    2   19 1 
     7    3    4 ar
     8    3   12 ar
     9    4   55 1 
    10    4    5 ar
    11    5    6 ar
    12    5   29 2 
    13    6    7 ar
    14    6   11 ar
    15    7    8 ar
    16    7   33 1 
    17    8    9 ar
    18    8   34 1 
    19    9   10 ar
    20    9   35 1 
    21   10   11 ar
    22   10   36 1 
    23   11   12 ar
    24   12   13 1 
    25   13   14 1 
    26   13   37 1 
    27   13   38 1 
    28   14   15 ar
    29   14   28 ar
    30   15   16 ar
    31   15   39 1 
    32   16   17 1 
    33   16   26 ar
    34   17   31 2 
    35   18   19 1 
    36   18   40 1 
    37   18   41 1 
    38   19   42 1 
    39   19   43 1 
    40   20   21 1 
    41   20   44 1 
    42   20   45 1 
    43   21   46 1 
    44   21   47 1 
    45   22   23 1 
    46   22   30 2 
    47   23   24 1 
    48   23   25 1 
    49   23   48 1 
    50   24   25 1 
    51   24   49 1 
    52   24   50 1 
    53   25   51 1 
    54   25   52 1 
    55   26   27 ar
    56   26   32 1 
    57   27   28 ar
    58   27   53 1 
    59   28   54 1 
@<TRIPOS>SUBSTRUCTURE
1 MOL         1
@<TRIPOS>MOLECULE
query molecule
   55    59     1     0     0
SMALL
NO_CHARGE

@<TRIPOS>ATOM
      1 N         -60.5698  -36.5209   -8.5831 N.am      1 MOL    -0.2945
      2 N         -62.3503  -38.6573   -9.2366 N.am      1 MOL    -0.2983
      3 N         -61.4764  -36.7873   -3.6470 N.ar      1 MOL    -0.1750
      4 N         -62.3168  -37.7921   -3.4240 N.ar      1 MOL    -0.2425
      5 C         -63.1336  -37.7789   -2.2764 C.ar      1 MOL     0.2725
      6 C         -63.0150  -36.6966   -1.3773 C.ar      1 MOL     0.0496
      7 C         -63.7854  -36.6484   -0.2108 C.ar      1 MOL     0.0138
      8 C         -63.6709  -35.5691    0.6640 C.ar      1 MOL     0.0008
      9 C         -62.7782  -34.5316    0.3823 C.ar      1 MOL     0.0007
     10 C         -61.9968  -34.5782   -0.7738 C.ar      1 MOL     0.0103
     11 C         -62.0974  -35.6495   -1.6719 C.ar      1 MOL     0.0106
     12 C         -61.3255  -35.7076   -2.8365 C.ar      1 MOL     0.0736
     13 C         -60.3348  -34.6378   -3.1842 C.3       1 MOL     0.0925
     14 C         -60.3706  -34.2398   -4.6116 C.ar      1 MOL    -0.0406
     15 C         -59.9570  -35.1271   -5.6104 C.ar      1 MOL     0.0196
     16 C         -60.0269  -34.7716   -6.9583 C.ar      1 MOL     0.0723
     17 C         -59.6100  -35.7880   -7.9508 C.2       1 MOL     0.2495
     18 C         -60.1507  -37.5011   -9.5750 C.3       1 MOL     0.1268
     19 C         -60.9244  -38.8495   -9.4394 C.3       1 MOL     0.1265
     20 C         -62.7334  -37.6886   -8.2061 C.3       1 MOL     0.1265
     21 C         -61.9944  -36.3370   -8.3816 C.3       1 MOL     0.1268
     22 C         -63.2864  -39.5625   -9.6529 C.2       1 MOL     0.2187
     23 C         -62.8553  -40.6625  -10.5523 C.3       1 MOL     0.0752
     24 C         -63.2498  -40.3848  -11.9598 C.3       1 MOL     0.0134
     25 C         -64.0066  -41.3980  -11.1447 C.3       1 MOL     0.0134
     26 C         -60.4708  -33.4984   -7.3068 C.ar      1 MOL     0.1355
     27 C         -60.8581  -32.5882   -6.3141 C.ar      1 MOL     0.0392
     28 C         -60.8091  -32.9598   -4.9651 C.ar      1 MOL     0.0066
     29 O         -63.9282  -38.7296   -2.1261 O.2       1 MOL    -0.2658
     30 O         -64.4699  -39.5007   -9.2800 O.2       1 MOL    -0.2753
     31 O         -58.4052  -35.9423   -8.1305 O.2       1 MOL    -0.2699
     32 F         -60.5371  -33.1267   -8.6054 F         1 MOL    -0.2047
     33 H         -64.4755  -37.4524    0.0131 H         1 MOL     0.0625
     34 H         -64.2715  -35.5304    1.5576 H         1 MOL     0.0618
     35 H         -62.6969  -33.6909    1.0527 H         1 MOL     0.0618
     36 H         -61.3039  -33.7691   -0.9810 H         1 MOL     0.0624
     37 H         -59.3171  -35.0241   -2.9624 H         1 MOL     0.0377
     38 H         -60.5432  -33.7440   -2.5657 H         1 MOL     0.0377
     39 H         -59.5952  -36.1057   -5.3388 H         1 MOL     0.0629
     40 H         -59.0552  -37.6733   -9.4824 H         1 MOL     0.0480
     41 H         -60.3441  -37.0755  -10.5899 H         1 MOL     0.0480
     42 H         -60.5288  -39.3919   -8.5452 H         1 MOL     0.0480
     43 H         -60.7621  -39.4925  -10.3305 H         1 MOL     0.0480
     44 H         -62.4736  -38.1254   -7.2117 H         1 MOL     0.0480
     45 H         -63.8407  -37.5446   -8.2356 H         1 MOL     0.0480
     46 H         -62.1562  -35.6762   -7.4959 H         1 MOL     0.0480
     47 H         -62.4002  -35.8067   -9.2791 H         1 MOL     0.0480
     48 H         -61.9452  -41.1451  -10.3126 H         1 MOL     0.0394
     49 H         -62.6256  -40.7920  -12.7474 H         1 MOL     0.0273
     50 H         -63.7627  -39.4542  -12.1663 H         1 MOL     0.0273
     51 H         -63.8577  -42.4368  -11.3966 H         1 MOL     0.0273
     52 H         -65.0000  -41.1070  -10.8098 H         1 MOL     0.0273
     53 H         -61.1941  -31.5984   -6.5868 H         1 MOL     0.0646
     54 H         -61.1052  -32.2605   -4.1967 H         1 MOL     0.0621
     55 H         -62.3787  -38.5901   -4.0376 H         1 MOL     0.1921
@<TRIPOS>BOND
     1    1   18 1 
     2    1   21 1 
     3    1   17 am
     4    2   20 1 
     5    2   22 am
     6    2   19 1 
     7    3    4 ar
     8    3   12 ar
     9    4   55 1 
    10    4    5 ar
    11    5    6 ar
    12    5   29 2 
    13    6    7 ar
    14    6   11 ar
    15    7    8 ar
    16    7   33 1 
    17    8    9 ar
    18    8   34 1 
    19    9   10 ar
    20    9   35 1 
    21   10   11 ar
    22   10   36 1 
    23   11   12 ar
    24   12   13 1 
    25   13   14 1 
    26   13   37 1 
    27   13   38 1 
    28   14   15 ar
    29   14   28 ar
    30   15   16 ar
    31   15   39 1 
    32   16   17 1 
    33   16   26 ar
    34   17   31 2 
    35   18   19 1 
    36   18   40 1 
    37   18   41 1 
    38   19   42 1 
    39   19   43 1 
    40   20   21 1 
    41   20   44 1 
    42   20   45 1 
    43   21   46 1 
    44   21   47 1 
    45   22   23 1 
    46   22   30 2 
    47   23   24 1 
    48   23   25 1 
    49   23   48 1 
    50   24   25 1 
    51   24   49 1 
    52   24   50 1 
    53   25   51 1 
    54   25   52 1 
    55   26   27 ar
    56   26   32 1 
    57   27   28 ar
    58   27   53 1 
    59   28   54 1 
@<TRIPOS>SUBSTRUCTURE
1 MOL         1
@<TRIPOS>MOLECULE
query molecule
   55    59     1     0     0
SMALL
NO_CHARGE

@<TRIPOS>ATOM
      1 N         -20.3633  -26.3869   10.9224 N.am      1 MOL    -0.2945
      2 N         -22.9846  -27.0348   11.8691 N.am      1 MOL    -0.2983
      3 N         -16.2181  -32.0528   10.1262 N.ar      1 MOL    -0.1750
      4 N         -16.4524  -33.3456   10.2701 N.ar      1 MOL    -0.2425
      5 C         -16.4497  -33.9433   11.5445 C.ar      1 MOL     0.2725
      6 C         -16.1671  -33.1220   12.6553 C.ar      1 MOL     0.0496
      7 C         -16.1015  -33.6514   13.9474 C.ar      1 MOL     0.0138
      8 C         -15.7938  -32.8261   15.0314 C.ar      1 MOL     0.0008
      9 C         -15.5517  -31.4647   14.8345 C.ar      1 MOL     0.0007
     10 C         -15.6230  -30.9228   13.5518 C.ar      1 MOL     0.0103
     11 C         -15.9320  -31.7286   12.4452 C.ar      1 MOL     0.0106
     12 C         -16.0042  -31.1856   11.1524 C.ar      1 MOL     0.0736
     13 C         -15.8250  -29.7202   10.8946 C.3       1 MOL     0.0925
     14 C         -16.8681  -29.1343   10.0086 C.ar      1 MOL    -0.0406
     15 C         -17.6542  -28.0529   10.4426 C.ar      1 MOL     0.0196
     16 C         -18.6124  -27.4852    9.5901 C.ar      1 MOL     0.0723
     17 C         -19.4115  -26.3021    9.9731 C.2       1 MOL     0.2495
     18 C         -21.3570  -25.3170   11.0442 C.3       1 MOL     0.1268
     19 C         -22.8105  -25.8898   10.9899 C.3       1 MOL     0.1265
     20 C         -21.9243  -28.0410   11.8443 C.3       1 MOL     0.1265
     21 C         -20.4942  -27.4557   11.8880 C.3       1 MOL     0.1268
     22 C         -24.1562  -27.3899   12.4713 C.2       1 MOL     0.2187
     23 C         -25.3452  -26.5088   12.3277 C.3       1 MOL     0.0752
     24 C         -26.6053  -27.2130   12.7133 C.3       1 MOL     0.0134
     25 C         -26.2884  -26.9691   11.2666 C.3       1 MOL     0.0134
     26 C         -18.7990  -28.0299    8.3116 C.ar      1 MOL     0.1355
     27 C         -18.0317  -29.1052    7.8739 C.ar      1 MOL     0.0392
     28 C         -17.0638  -29.6419    8.7158 C.ar      1 MOL     0.0066
     29 O         -16.7040  -35.1556   11.6184 O.2       1 MOL    -0.2658
     30 O         -24.2522  -28.4127   13.1708 O.2       1 MOL    -0.2753
     31 O         -19.2162  -25.2839    9.2965 O.2       1 MOL    -0.2699
     32 F         -19.7299  -27.5101    7.4751 F         1 MOL    -0.2047
     33 H         -16.2856  -34.7037   14.1085 H         1 MOL     0.0625
     34 H         -15.7401  -33.2389   16.0278 H         1 MOL     0.0618
     35 H         -15.3048  -30.8301   15.6720 H         1 MOL     0.0618
     36 H         -15.4352  -29.8678   13.4060 H         1 MOL     0.0624
     37 H         -14.8373  -29.5699   10.4158 H         1 MOL     0.0377
     38 H         -15.8541  -29.1900   11.8667 H         1 MOL     0.0377
     39 H         -17.5126  -27.6497   11.4356 H         1 MOL     0.0629
     40 H         -21.1865  -24.5666   10.2388 H         1 MOL     0.0480
     41 H         -21.1945  -24.8084   12.0259 H         1 MOL     0.0480
     42 H         -23.0166  -26.2225    9.9415 H         1 MOL     0.0480
     43 H         -23.5587  -25.1059   11.2515 H         1 MOL     0.0480
     44 H         -22.0267  -28.6163   10.8824 H         1 MOL     0.0480
     45 H         -22.0899  -28.7741   12.6717 H         1 MOL     0.0480
     46 H         -19.7266  -28.2374   11.6837 H         1 MOL     0.0480
     47 H         -20.3015  -27.0369   12.9038 H         1 MOL     0.0480
     48 H         -25.1964  -25.4800   12.5396 H         1 MOL     0.0394
     49 H         -27.3939  -26.6101   13.1549 H         1 MOL     0.0273
     50 H         -26.5075  -28.2322   13.0628 H         1 MOL     0.0273
     51 H         -26.8839  -26.2094   10.7727 H         1 MOL     0.0273
     52 H         -25.9924  -27.8308   10.6814 H         1 MOL     0.0273
     53 H         -18.1798  -29.5217    6.8903 H         1 MOL     0.0646
     54 H         -16.4554  -30.4684    8.3768 H         1 MOL     0.0621
     55 H         -16.6514  -33.9438    9.4884 H         1 MOL     0.1921
@<TRIPOS>BOND
     1    1   18 1 
     2    1   21 1 
     3    1   17 am
     4    2   20 1 
     5    2   22 am
     6    2   19 1 
     7    3    4 ar
     8    3   12 ar
     9    4   55 1 
    10    4    5 ar
    11    5    6 ar
    12    5   29 2 
    13    6    7 ar
    14    6   11 ar
    15    7    8 ar
    16    7   33 1 
    17    8    9 ar
    18    8   34 1 
    19    9   10 ar
    20    9   35 1 
    21   10   11 ar
    22   10   36 1 
    23   11   12 ar
    24   12   13 1 
    25   13   14 1 
    26   13   37 1 
    27   13   38 1 
    28   14   15 ar
    29   14   28 ar
    30   15   16 ar
    31   15   39 1 
    32   16   17 1 
    33   16   26 ar
    34   17   31 2 
    35   18   19 1 
    36   18   40 1 
    37   18   41 1 
    38   19   42 1 
    39   19   43 1 
    40   20   21 1 
    41   20   44 1 
    42   20   45 1 
    43   21   46 1 
    44   21   47 1 
    45   22   23 1 
    46   22   30 2 
    47   23   24 1 
    48   23   25 1 
    49   23   48 1 
    50   24   25 1 
    51   24   49 1 
    52   24   50 1 
    53   25   51 1 
    54   25   52 1 
    55   26   27 ar
    56   26   32 1 
    57   27   28 ar
    58   27   53 1 
    59   28   54 1 
@<TRIPOS>SUBSTRUCTURE
1 MOL         1
@<TRIPOS>MOLECULE
query molecule
   55    59     1     0     0
SMALL
NO_CHARGE

@<TRIPOS>ATOM
      1 N         -63.2789  -56.3854   21.7191 N.am      1 MOL    -0.2945
      2 N         -63.5862  -55.6717   24.4347 N.am      1 MOL    -0.2983
      3 N         -66.7202  -52.5341   19.1011 N.ar      1 MOL    -0.1750
      4 N         -66.3630  -51.2905   18.7967 N.ar      1 MOL    -0.2425
      5 C         -66.4453  -50.8319   17.4625 C.ar      1 MOL     0.2725
      6 C         -66.9417  -51.7021   16.4709 C.ar      1 MOL     0.0496
      7 C         -67.0634  -51.2852   15.1392 C.ar      1 MOL     0.0138
      8 C         -67.5220  -52.1678   14.1591 C.ar      1 MOL     0.0008
      9 C         -67.8732  -53.4723   14.5117 C.ar      1 MOL     0.0007
     10 C         -67.7568  -53.8958   15.8363 C.ar      1 MOL     0.0103
     11 C         -67.2866  -53.0339   16.8406 C.ar      1 MOL     0.0106
     12 C         -67.1513  -53.4429   18.1781 C.ar      1 MOL     0.0736
     13 C         -67.4829  -54.8218   18.6425 C.3       1 MOL     0.0925
     14 C         -66.3370  -55.7641   18.5867 C.ar      1 MOL    -0.0406
     15 C         -65.2856  -55.7127   19.5086 C.ar      1 MOL     0.0196
     16 C         -64.2374  -56.6447   19.4659 C.ar      1 MOL     0.0723
     17 C         -63.0891  -56.5682   20.3913 C.2       1 MOL     0.2495
     18 C         -62.1058  -56.0022   22.5082 C.3       1 MOL     0.1268
     19 C         -62.4713  -55.0989   23.7153 C.3       1 MOL     0.1265
     20 C         -64.8037  -55.7630   23.6248 C.3       1 MOL     0.1265
     21 C         -64.5278  -56.7058   22.4100 C.3       1 MOL     0.1268
     22 C         -63.5486  -56.3420   25.6115 C.2       1 MOL     0.2187
     23 C         -62.2601  -56.7508   26.1997 C.3       1 MOL     0.0752
     24 C         -62.1620  -56.1564   27.5719 C.3       1 MOL     0.0134
     25 C         -61.2346  -55.7273   26.4803 C.3       1 MOL     0.0134
     26 C         -64.2764  -57.6557   18.4960 C.ar      1 MOL     0.1355
     27 C         -65.3033  -57.7032   17.5532 C.ar      1 MOL     0.0392
     28 C         -66.3299  -56.7607   17.5986 C.ar      1 MOL     0.0066
     29 O         -66.0010  -49.6942   17.2328 O.2       1 MOL    -0.2658
     30 O         -64.5868  -56.7408   26.1709 O.2       1 MOL    -0.2753
     31 O         -61.9731  -56.6400   19.8696 O.2       1 MOL    -0.2699
     32 F         -63.3047  -58.6040   18.4549 F         1 MOL    -0.2047
     33 H         -66.7855  -50.2788   14.8614 H         1 MOL     0.0625
     34 H         -67.5963  -51.8426   13.1310 H         1 MOL     0.0618
     35 H         -68.2420  -54.1496   13.7547 H         1 MOL     0.0618
     36 H         -68.0502  -54.9070   16.0982 H         1 MOL     0.0624
     37 H         -68.2955  -55.2231   18.0045 H         1 MOL     0.0377
     38 H         -67.8223  -54.7553   19.6928 H         1 MOL     0.0377
     39 H         -65.2781  -54.9426   20.2678 H         1 MOL     0.0629
     40 H         -61.3730  -55.4961   21.8398 H         1 MOL     0.0480
     41 H         -61.6309  -56.9346   22.8983 H         1 MOL     0.0480
     42 H         -62.7780  -54.0849   23.3548 H         1 MOL     0.0480
     43 H         -61.6097  -54.9712   24.4073 H         1 MOL     0.0480
     44 H         -65.0773  -54.7411   23.2749 H         1 MOL     0.0480
     45 H         -65.6384  -56.1524   24.2492 H         1 MOL     0.0480
     46 H         -65.3688  -56.6902   21.6807 H         1 MOL     0.0480
     47 H         -64.4417  -57.7516   22.8029 H         1 MOL     0.0480
     48 H         -62.0148  -57.7783   26.0563 H         1 MOL     0.0394
     49 H         -61.7518  -56.7900   28.3475 H         1 MOL     0.0273
     50 H         -62.9181  -55.4331   27.8543 H         1 MOL     0.0273
     51 H         -60.2126  -56.0851   26.5556 H         1 MOL     0.0273
     52 H         -61.3836  -54.7515   26.0390 H         1 MOL     0.0273
     53 H         -65.3025  -58.4737   16.7950 H         1 MOL     0.0646
     54 H         -67.1324  -56.8071   16.8727 H         1 MOL     0.0621
     55 H         -66.0163  -50.6332   19.4744 H         1 MOL     0.1921
@<TRIPOS>BOND
     1    1   18 1 
     2    1   21 1 
     3    1   17 am
     4    2   20 1 
     5    2   22 am
     6    2   19 1 
     7    3    4 ar
     8    3   12 ar
     9    4   55 1 
    10    4    5 ar
    11    5    6 ar
    12    5   29 2 
    13    6    7 ar
    14    6   11 ar
    15    7    8 ar
    16    7   33 1 
    17    8    9 ar
    18    8   34 1 
    19    9   10 ar
    20    9   35 1 
    21   10   11 ar
    22   10   36 1 
    23   11   12 ar
    24   12   13 1 
    25   13   14 1 
    26   13   37 1 
    27   13   38 1 
    28   14   15 ar
    29   14   28 ar
    30   15   16 ar
    31   15   39 1 
    32   16   17 1 
    33   16   26 ar
    34   17   31 2 
    35   18   19 1 
    36   18   40 1 
    37   18   41 1 
    38   19   42 1 
    39   19   43 1 
    40   20   21 1 
    41   20   44 1 
    42   20   45 1 
    43   21   46 1 
    44   21   47 1 
    45   22   23 1 
    46   22   30 2 
    47   23   24 1 
    48   23   25 1 
    49   23   48 1 
    50   24   25 1 
    51   24   49 1 
    52   24   50 1 
    53   25   51 1 
    54   25   52 1 
    55   26   27 ar
    56   26   32 1 
    57   27   28 ar
    58   27   53 1 
    59   28   54 1 
@<TRIPOS>SUBSTRUCTURE
1 MOL         1
@<TRIPOS>MOLECULE
query molecule
   55    59     1     0     0
SMALL
NO_CHARGE

@<TRIPOS>ATOM
      1 N         -39.4271  -66.7193    4.6642 N.am      1 MOL    -0.2945
      2 N         -38.7652  -64.0041    4.1273 N.am      1 MOL    -0.2983
      3 N         -33.8629  -72.1939    3.7359 N.ar      1 MOL    -0.1750
      4 N         -33.0995  -73.2520    3.9676 N.ar      1 MOL    -0.2425
      5 C         -33.6367  -74.5529    3.8666 C.ar      1 MOL     0.2725
      6 C         -35.0109  -74.6875    3.5577 C.ar      1 MOL     0.0496
      7 C         -35.6092  -75.9498    3.4854 C.ar      1 MOL     0.0138
      8 C         -36.9740  -76.0694    3.2198 C.ar      1 MOL     0.0008
      9 C         -37.7496  -74.9258    3.0124 C.ar      1 MOL     0.0007
     10 C         -37.1600  -73.6617    3.0643 C.ar      1 MOL     0.0103
     11 C         -35.7906  -73.5162    3.3319 C.ar      1 MOL     0.0106
     12 C         -35.1776  -72.2564    3.3874 C.ar      1 MOL     0.0736
     13 C         -35.9034  -71.0012    3.0704 C.3       1 MOL     0.0925
     14 C         -36.4376  -70.2724    4.2328 C.ar      1 MOL    -0.0406
     15 C         -37.6224  -69.5608    4.0151 C.ar      1 MOL     0.0196
     16 C         -38.2204  -68.8142    5.0427 C.ar      1 MOL     0.0723
     17 C         -39.4403  -68.0743    4.6584 C.2       1 MOL     0.2495
     18 C         -40.1431  -66.0115    3.6012 C.3       1 MOL     0.1268
     19 C         -39.3147  -64.8100    3.0505 C.3       1 MOL     0.1265
     20 C         -37.9977  -64.7376    5.1389 C.3       1 MOL     0.1265
     21 C         -38.8360  -65.9118    5.7177 C.3       1 MOL     0.1268
     22 C         -38.7396  -62.6449    4.1505 C.2       1 MOL     0.2187
     23 C         -39.3532  -61.8815    3.0373 C.3       1 MOL     0.0752
     24 C         -40.1789  -60.7478    3.5555 C.3       1 MOL     0.0134
     25 C         -40.8385  -61.9670    2.9851 C.3       1 MOL     0.0134
     26 C         -37.6454  -68.8273    6.3052 C.ar      1 MOL     0.1355
     27 C         -36.4495  -69.5189    6.5343 C.ar      1 MOL     0.0392
     28 C         -35.8446  -70.2360    5.4938 C.ar      1 MOL     0.0066
     29 O         -32.8744  -75.5134    4.0552 O.2       1 MOL    -0.2658
     30 O         -38.1728  -62.0150    5.0580 O.2       1 MOL    -0.2753
     31 O         -40.3518  -68.7399    4.1523 O.2       1 MOL    -0.2699
     32 F         -38.2297  -68.1819    7.3429 F         1 MOL    -0.2047
     33 H         -35.0135  -76.8376    3.6440 H         1 MOL     0.0625
     34 H         -37.4313  -77.0472    3.1769 H         1 MOL     0.0618
     35 H         -38.8070  -75.0210    2.8159 H         1 MOL     0.0618
     36 H         -37.7690  -72.7831    2.9032 H         1 MOL     0.0624
     37 H         -36.7563  -71.2610    2.4110 H         1 MOL     0.0377
     38 H         -35.2073  -70.3265    2.5341 H         1 MOL     0.0377
     39 H         -38.0859  -69.5829    3.0383 H         1 MOL     0.0629
     40 H         -41.1033  -65.6288    4.0223 H         1 MOL     0.0480
     41 H         -40.3878  -66.7284    2.7844 H         1 MOL     0.0480
     42 H         -39.9227  -64.1666    2.3780 H         1 MOL     0.0480
     43 H         -38.4534  -65.2064    2.4564 H         1 MOL     0.0480
     44 H         -37.6800  -64.0375    5.9433 H         1 MOL     0.0480
     45 H         -37.0790  -65.1464    4.6535 H         1 MOL     0.0480
     46 H         -39.6720  -65.4884    6.3285 H         1 MOL     0.0480
     47 H         -38.2261  -66.5625    6.3837 H         1 MOL     0.0480
     48 H         -38.7572  -61.7717    2.1685 H         1 MOL     0.0394
     49 H         -40.2132  -59.8479    2.9550 H         1 MOL     0.0273
     50 H         -40.2483  -60.6326    4.6312 H         1 MOL     0.0273
     51 H         -41.2993  -61.8535    2.0103 H         1 MOL     0.0273
     52 H         -41.3199  -62.6385    3.6847 H         1 MOL     0.0273
     53 H         -35.9949  -69.4990    7.5141 H         1 MOL     0.0646
     54 H         -34.9204  -70.7647    5.6729 H         1 MOL     0.0621
     55 H         -32.1305  -73.1728    4.2228 H         1 MOL     0.1921
@<TRIPOS>BOND
     1    1   18 1 
     2    1   21 1 
     3    1   17 am
     4    2   20 1 
     5    2   22 am
     6    2   19 1 
     7    3    4 ar
     8    3   12 ar
     9    4   55 1 
    10    4    5 ar
    11    5    6 ar
    12    5   29 2 
    13    6    7 ar
    14    6   11 ar
    15    7    8 ar
    16    7   33 1 
    17    8    9 ar
    18    8   34 1 
    19    9   10 ar
    20    9   35 1 
    21   10   11 ar
    22   10   36 1 
    23   11   12 ar
    24   12   13 1 
    25   13   14 1 
    26   13   37 1 
    27   13   38 1 
    28   14   15 ar
    29   14   28 ar
    30   15   16 ar
    31   15   39 1 
    32   16   17 1 
    33   16   26 ar
    34   17   31 2 
    35   18   19 1 
    36   18   40 1 
    37   18   41 1 
    38   19   42 1 
    39   19   43 1 
    40   20   21 1 
    41   20   44 1 
    42   20   45 1 
    43   21   46 1 
    44   21   47 1 
    45   22   23 1 
    46   22   30 2 
    47   23   24 1 
    48   23   25 1 
    49   23   48 1 
    50   24   25 1 
    51   24   49 1 
    52   24   50 1 
    53   25   51 1 
    54   25   52 1 
    55   26   27 ar
    56   26   32 1 
    57   27   28 ar
    58   27   53 1 
    59   28   54 1 
@<TRIPOS>SUBSTRUCTURE
1 MOL         1
@<TRIPOS>MOLECULE
query molecule
   55    59     1     0     0
SMALL
NO_CHARGE

@<TRIPOS>ATOM
      1 N         -60.4688  -33.5637  -19.4295 N.am      1 MOL    -0.2945
      2 N         -62.4747  -34.5529  -21.2234 N.am      1 MOL    -0.2983
      3 N         -55.4826  -33.6542  -13.9292 N.ar      1 MOL    -0.1750
      4 N         -54.1690  -33.4237  -14.0222 N.ar      1 MOL    -0.2425
      5 C         -53.6909  -32.1118  -14.2291 C.ar      1 MOL     0.2725
      6 C         -54.6177  -31.0563  -14.3228 C.ar      1 MOL     0.0496
      7 C         -54.1913  -29.7349  -14.5126 C.ar      1 MOL     0.0138
      8 C         -55.1277  -28.7065  -14.6098 C.ar      1 MOL     0.0008
      9 C         -56.4912  -28.9867  -14.5217 C.ar      1 MOL     0.0007
     10 C         -56.9257  -30.2999  -14.3343 C.ar      1 MOL     0.0103
     11 C         -56.0075  -31.3564  -14.2341 C.ar      1 MOL     0.0106
     12 C         -56.4282  -32.6841  -14.0422 C.ar      1 MOL     0.0736
     13 C         -57.8735  -33.0522  -13.9272 C.3       1 MOL     0.0925
     14 C         -58.3394  -33.8628  -15.0765 C.ar      1 MOL    -0.0406
     15 C         -58.6639  -33.2534  -16.2911 C.ar      1 MOL     0.0196
     16 C         -59.1285  -34.0122  -17.3922 C.ar      1 MOL     0.0723
     17 C         -59.4321  -33.2369  -18.5923 C.2       1 MOL     0.2495
     18 C         -60.3280  -33.3291  -20.8624 C.3       1 MOL     0.1268
     19 C         -61.1374  -34.3066  -21.7526 C.3       1 MOL     0.1265
     20 C         -62.5898  -34.8049  -19.7944 C.3       1 MOL     0.1265
     21 C         -61.7998  -33.7939  -18.9492 C.3       1 MOL     0.1268
     22 C         -63.5371  -34.9905  -21.9686 C.2       1 MOL     0.2187
     23 C         -63.3152  -35.2153  -23.4100 C.3       1 MOL     0.0752
     24 C         -64.2734  -34.4446  -24.2303 C.3       1 MOL     0.0134
     25 C         -64.4551  -35.9262  -24.0368 C.3       1 MOL     0.0134
     26 C         -59.2257  -35.3853  -17.2610 C.ar      1 MOL     0.1355
     27 C         -58.9091  -36.0055  -16.0491 C.ar      1 MOL     0.0392
     28 C         -58.4693  -35.2471  -14.9554 C.ar      1 MOL     0.0066
     29 O         -52.4749  -31.9593  -14.3171 O.2       1 MOL    -0.2658
     30 O         -64.6232  -35.2753  -21.4417 O.2       1 MOL    -0.2753
     31 O         -58.7517  -32.2608  -18.8611 O.2       1 MOL    -0.2699
     32 F         -59.6143  -36.1690  -18.2977 F         1 MOL    -0.2047
     33 H         -53.1363  -29.5146  -14.5800 H         1 MOL     0.0625
     34 H         -54.7953  -27.6886  -14.7487 H         1 MOL     0.0618
     35 H         -57.2127  -28.1871  -14.5947 H         1 MOL     0.0618
     36 H         -57.9856  -30.5065  -14.2683 H         1 MOL     0.0624
     37 H         -58.4706  -32.1219  -13.8891 H         1 MOL     0.0377
     38 H         -58.0135  -33.6388  -13.0011 H         1 MOL     0.0377
     39 H         -58.5597  -32.1796  -16.3890 H         1 MOL     0.0629
     40 H         -59.2410  -33.3348  -21.1699 H         1 MOL     0.0480
     41 H         -60.7004  -32.2747  -20.9879 H         1 MOL     0.0480
     42 H         -60.5979  -35.2861  -21.7820 H         1 MOL     0.0480
     43 H         -61.2123  -33.9076  -22.8023 H         1 MOL     0.0480
     44 H         -62.2082  -35.8500  -19.6212 H         1 MOL     0.0480
     45 H         -63.6850  -34.7954  -19.4989 H         1 MOL     0.0480
     46 H         -61.7981  -34.0752  -17.8673 H         1 MOL     0.0480
     47 H         -62.3099  -32.7973  -19.0533 H         1 MOL     0.0480
     48 H         -62.3132  -35.3820  -23.7111 H         1 MOL     0.0394
     49 H         -63.9490  -34.1330  -25.2162 H         1 MOL     0.0273
     50 H         -64.9555  -33.7919  -23.6996 H         1 MOL     0.0273
     51 H         -64.2501  -36.5624  -24.8865 H         1 MOL     0.0273
     52 H         -65.2571  -36.2268  -23.3675 H         1 MOL     0.0273
     53 H         -59.0006  -37.0776  -15.9419 H         1 MOL     0.0646
     54 H         -58.2335  -35.7292  -14.0180 H         1 MOL     0.0621
     55 H         -53.4916  -34.1537  -13.9533 H         1 MOL     0.1921
@<TRIPOS>BOND
     1    1   18 1 
     2    1   21 1 
     3    1   17 am
     4    2   20 1 
     5    2   22 am
     6    2   19 1 
     7    3    4 ar
     8    3   12 ar
     9    4   55 1 
    10    4    5 ar
    11    5    6 ar
    12    5   29 2 
    13    6    7 ar
    14    6   11 ar
    15    7    8 ar
    16    7   33 1 
    17    8    9 ar
    18    8   34 1 
    19    9   10 ar
    20    9   35 1 
    21   10   11 ar
    22   10   36 1 
    23   11   12 ar
    24   12   13 1 
    25   13   14 1 
    26   13   37 1 
    27   13   38 1 
    28   14   15 ar
    29   14   28 ar
    30   15   16 ar
    31   15   39 1 
    32   16   17 1 
    33   16   26 ar
    34   17   31 2 
    35   18   19 1 
    36   18   40 1 
    37   18   41 1 
    38   19   42 1 
    39   19   43 1 
    40   20   21 1 
    41   20   44 1 
    42   20   45 1 
    43   21   46 1 
    44   21   47 1 
    45   22   23 1 
    46   22   30 2 
    47   23   24 1 
    48   23   25 1 
    49   23   48 1 
    50   24   25 1 
    51   24   49 1 
    52   24   50 1 
    53   25   51 1 
    54   25   52 1 
    55   26   27 ar
    56   26   32 1 
    57   27   28 ar
    58   27   53 1 
    59   28   54 1 
@<TRIPOS>SUBSTRUCTURE
1 MOL         1
@<TRIPOS>MOLECULE
query molecule
   55    59     1     0     0
SMALL
NO_CHARGE

@<TRIPOS>ATOM
      1 N         -36.1957  -43.0908   25.0414 N.am      1 MOL    -0.2945
      2 N         -38.5453  -43.0900   23.7788 N.am      1 MOL    -0.2983
      3 N         -31.4369  -43.3640   22.5371 N.ar      1 MOL    -0.1750
      4 N         -31.5822  -44.5343   21.9265 N.ar      1 MOL    -0.2425
      5 C         -30.9257  -45.6996   22.3888 C.ar      1 MOL     0.2725
      6 C         -30.1162  -45.5830   23.5375 C.ar      1 MOL     0.0496
      7 C         -29.4287  -46.6909   24.0389 C.ar      1 MOL     0.0138
      8 C         -28.6286  -46.5690   25.1754 C.ar      1 MOL     0.0008
      9 C         -28.5086  -45.3361   25.8206 C.ar      1 MOL     0.0007
     10 C         -29.1941  -44.2197   25.3304 C.ar      1 MOL     0.0103
     11 C         -30.0043  -44.3150   24.1852 C.ar      1 MOL     0.0106
     12 C         -30.7008  -43.2032   23.6758 C.ar      1 MOL     0.0736
     13 C         -30.6685  -41.8550   24.3455 C.3       1 MOL     0.0925
     14 C         -32.0425  -41.2832   24.4068 C.ar      1 MOL    -0.0406
     15 C         -33.0469  -41.9536   25.1159 C.ar      1 MOL     0.0196
     16 C         -34.3603  -41.4820   25.0953 C.ar      1 MOL     0.0723
     17 C         -35.3930  -42.2849   25.7807 C.2       1 MOL     0.2495
     18 C         -37.2449  -43.8546   25.7207 C.3       1 MOL     0.1268
     19 C         -38.4813  -44.1145   24.7951 C.3       1 MOL     0.1265
     20 C         -37.4022  -43.1007   22.8630 C.3       1 MOL     0.1265
     21 C         -36.0418  -43.2602   23.6020 C.3       1 MOL     0.1268
     22 C         -39.5517  -42.2180   23.5464 C.2       1 MOL     0.2187
     23 C         -40.7955  -42.2720   24.3306 C.3       1 MOL     0.0752
     24 C         -40.9597  -40.9851   25.0784 C.3       1 MOL     0.0134
     25 C         -40.6931  -42.2648   25.8052 C.3       1 MOL     0.0134
     26 C         -34.6640  -40.3071   24.4179 C.ar      1 MOL     0.1355
     27 C         -33.6609  -39.6144   23.7439 C.ar      1 MOL     0.0392
     28 C         -32.3486  -40.0972   23.7348 C.ar      1 MOL     0.0066
     29 O         -31.0783  -46.7608   21.7414 O.2       1 MOL    -0.2658
     30 O         -39.4928  -41.3782   22.6293 O.2       1 MOL    -0.2753
     31 O         -35.4580  -42.1819   27.0098 O.2       1 MOL    -0.2699
     32 F         -35.9311  -39.8310   24.3998 F         1 MOL    -0.2047
     33 H         -29.5223  -47.6422   23.5380 H         1 MOL     0.0625
     34 H         -28.1037  -47.4323   25.5572 H         1 MOL     0.0618
     35 H         -27.8890  -45.2461   26.7020 H         1 MOL     0.0618
     36 H         -29.0972  -43.2709   25.8443 H         1 MOL     0.0624
     37 H         -30.0270  -41.1764   23.7608 H         1 MOL     0.0377
     38 H         -30.2903  -41.9644   25.3775 H         1 MOL     0.0377
     39 H         -32.8098  -42.8550   25.6601 H         1 MOL     0.0629
     40 H         -37.5577  -43.2669   26.6186 H         1 MOL     0.0480
     41 H         -36.8276  -44.8206   26.0828 H         1 MOL     0.0480
     42 H         -39.4266  -44.1415   25.3730 H         1 MOL     0.0480
     43 H         -38.3527  -45.0915   24.2717 H         1 MOL     0.0480
     44 H         -37.4165  -42.1566   22.2677 H         1 MOL     0.0480
     45 H         -37.5293  -43.9481   22.1491 H         1 MOL     0.0480
     46 H         -35.2950  -42.5225   23.2269 H         1 MOL     0.0480
     47 H         -35.6342  -44.2830   23.4140 H         1 MOL     0.0480
     48 H         -41.6294  -42.6855   23.8136 H         1 MOL     0.0394
     49 H         -41.9585  -40.5761   25.1556 H         1 MOL     0.0273
     50 H         -40.1245  -40.2955   25.0690 H         1 MOL     0.0273
     51 H         -41.5244  -42.7005   26.3473 H         1 MOL     0.0273
     52 H         -39.7014  -42.3916   26.2197 H         1 MOL     0.0273
     53 H         -33.9012  -38.6982   23.2206 H         1 MOL     0.0646
     54 H         -31.5789  -39.5565   23.2059 H         1 MOL     0.0621
     55 H         -32.1580  -44.6183   21.1073 H         1 MOL     0.1921
@<TRIPOS>BOND
     1    1   18 1 
     2    1   21 1 
     3    1   17 am
     4    2   20 1 
     5    2   22 am
     6    2   19 1 
     7    3    4 ar
     8    3   12 ar
     9    4   55 1 
    10    4    5 ar
    11    5    6 ar
    12    5   29 2 
    13    6    7 ar
    14    6   11 ar
    15    7    8 ar
    16    7   33 1 
    17    8    9 ar
    18    8   34 1 
    19    9   10 ar
    20    9   35 1 
    21   10   11 ar
    22   10   36 1 
    23   11   12 ar
    24   12   13 1 
    25   13   14 1 
    26   13   37 1 
    27   13   38 1 
    28   14   15 ar
    29   14   28 ar
    30   15   16 ar
    31   15   39 1 
    32   16   17 1 
    33   16   26 ar
    34   17   31 2 
    35   18   19 1 
    36   18   40 1 
    37   18   41 1 
    38   19   42 1 
    39   19   43 1 
    40   20   21 1 
    41   20   44 1 
    42   20   45 1 
    43   21   46 1 
    44   21   47 1 
    45   22   23 1 
    46   22   30 2 
    47   23   24 1 
    48   23   25 1 
    49   23   48 1 
    50   24   25 1 
    51   24   49 1 
    52   24   50 1 
    53   25   51 1 
    54   25   52 1 
    55   26   27 ar
    56   26   32 1 
    57   27   28 ar
    58   27   53 1 
    59   28   54 1 
@<TRIPOS>SUBSTRUCTURE
1 MOL         1
@<TRIPOS>MOLECULE
query molecule
   55    59     1     0     0
SMALL
NO_CHARGE

@<TRIPOS>ATOM
      1 N         -49.5507  -66.9696  -20.6594 N.am      1 MOL    -0.2945
      2 N         -47.9511  -66.7973  -18.2788 N.am      1 MOL    -0.2983
      3 N         -55.0652  -64.2820  -23.2182 N.ar      1 MOL    -0.1750
      4 N         -56.0562  -63.7569  -22.5113 N.ar      1 MOL    -0.2425
      5 C         -56.2153  -62.3555  -22.4209 C.ar      1 MOL     0.2725
      6 C         -55.3041  -61.5302  -23.1171 C.ar      1 MOL     0.0496
      7 C         -55.3698  -60.1385  -23.0274 C.ar      1 MOL     0.0138
      8 C         -54.4918  -59.3347  -23.7529 C.ar      1 MOL     0.0008
      9 C         -53.5529  -59.9239  -24.5997 C.ar      1 MOL     0.0007
     10 C         -53.4652  -61.3138  -24.6876 C.ar      1 MOL     0.0103
     11 C         -54.3033  -62.1414  -23.9251 C.ar      1 MOL     0.0106
     12 C         -54.1768  -63.5418  -23.9416 C.ar      1 MOL     0.0736
     13 C         -53.1274  -64.2529  -24.7226 C.3       1 MOL     0.0925
     14 C         -51.8356  -64.3983  -24.0039 C.ar      1 MOL    -0.0406
     15 C         -51.5655  -65.5262  -23.2164 C.ar      1 MOL     0.0196
     16 C         -50.2934  -65.7096  -22.6435 C.ar      1 MOL     0.0723
     17 C         -50.0028  -66.9717  -21.9314 C.2       1 MOL     0.2495
     18 C         -48.9045  -68.1736  -20.1341 C.3       1 MOL     0.1268
     19 C         -47.6538  -67.8316  -19.2632 C.3       1 MOL     0.1265
     20 C         -48.5674  -65.5916  -18.8205 C.3       1 MOL     0.1265
     21 C         -49.8055  -65.8944  -19.7153 C.3       1 MOL     0.1268
     22 C         -47.5386  -66.8092  -16.9784 C.2       1 MOL     0.2187
     23 C         -46.7944  -68.0082  -16.5079 C.3       1 MOL     0.0752
     24 C         -47.1934  -68.4978  -15.1583 C.3       1 MOL     0.0134
     25 C         -45.9770  -67.6288  -15.3097 C.3       1 MOL     0.0134
     26 C         -49.3188  -64.7259  -22.8176 C.ar      1 MOL     0.1355
     27 C         -49.5920  -63.5790  -23.5664 C.ar      1 MOL     0.0392
     28 C         -50.8456  -63.4182  -24.1585 C.ar      1 MOL     0.0066
     29 O         -57.1650  -61.9260  -21.7497 O.2       1 MOL    -0.2658
     30 O         -47.8003  -65.9068  -16.1783 O.2       1 MOL    -0.2753
     31 O         -50.1276  -68.0018  -22.6058 O.2       1 MOL    -0.2699
     32 F         -48.0852  -64.8779  -22.2805 F         1 MOL    -0.2047
     33 H         -56.1119  -59.6773  -22.3877 H         1 MOL     0.0625
     34 H         -54.5393  -58.2605  -23.6665 H         1 MOL     0.0618
     35 H         -52.8908  -59.3058  -25.1874 H         1 MOL     0.0618
     36 H         -52.7364  -61.7584  -25.3484 H         1 MOL     0.0624
     37 H         -52.9423  -63.6883  -25.6573 H         1 MOL     0.0377
     38 H         -53.5039  -65.2663  -24.9653 H         1 MOL     0.0377
     39 H         -52.3353  -66.2700  -23.0631 H         1 MOL     0.0629
     40 H         -48.6296  -68.8413  -20.9829 H         1 MOL     0.0480
     41 H         -49.6500  -68.7188  -19.5039 H         1 MOL     0.0480
     42 H         -46.8546  -67.4389  -19.9411 H         1 MOL     0.0480
     43 H         -47.2535  -68.7331  -18.7513 H         1 MOL     0.0480
     44 H         -47.7975  -65.0632  -19.4340 H         1 MOL     0.0480
     45 H         -48.8463  -64.9188  -17.9757 H         1 MOL     0.0480
     46 H         -50.1261  -64.9858  -20.2719 H         1 MOL     0.0480
     47 H         -50.6557  -66.2166  -19.0629 H         1 MOL     0.0480
     48 H         -46.4018  -68.6425  -17.2558 H         1 MOL     0.0394
     49 H         -46.9954  -69.5423  -14.9365 H         1 MOL     0.0273
     50 H         -48.0666  -68.0506  -14.7095 H         1 MOL     0.0273
     51 H         -45.0154  -68.1139  -15.1889 H         1 MOL     0.0273
     52 H         -46.0725  -66.6150  -14.9469 H         1 MOL     0.0273
     53 H         -48.8321  -62.8232  -23.7000 H         1 MOL     0.0646
     54 H         -51.0534  -62.5370  -24.7495 H         1 MOL     0.0621
     55 H         -56.7280  -64.3191  -22.0187 H         1 MOL     0.1921
@<TRIPOS>BOND
     1    1   18 1 
     2    1   21 1 
     3    1   17 am
     4    2   20 1 
     5    2   22 am
     6    2   19 1 
     7    3    4 ar
     8    3   12 ar
     9    4   55 1 
    10    4    5 ar
    11    5    6 ar
    12    5   29 2 
    13    6    7 ar
    14    6   11 ar
    15    7    8 ar
    16    7   33 1 
    17    8    9 ar
    18    8   34 1 
    19    9   10 ar
    20    9   35 1 
    21   10   11 ar
    22   10   36 1 
    23   11   12 ar
    24   12   13 1 
    25   13   14 1 
    26   13   37 1 
    27   13   38 1 
    28   14   15 ar
    29   14   28 ar
    30   15   16 ar
    31   15   39 1 
    32   16   17 1 
    33   16   26 ar
    34   17   31 2 
    35   18   19 1 
    36   18   40 1 
    37   18   41 1 
    38   19   42 1 
    39   19   43 1 
    40   20   21 1 
    41   20   44 1 
    42   20   45 1 
    43   21   46 1 
    44   21   47 1 
    45   22   23 1 
    46   22   30 2 
    47   23   24 1 
    48   23   25 1 
    49   23   48 1 
    50   24   25 1 
    51   24   49 1 
    52   24   50 1 
    53   25   51 1 
    54   25   52 1 
    55   26   27 ar
    56   26   32 1 
    57   27   28 ar
    58   27   53 1 
    59   28   54 1 
@<TRIPOS>SUBSTRUCTURE
1 MOL         1
@<TRIPOS>MOLECULE
query molecule
   55    59     1     0     0
SMALL
NO_CHARGE

@<TRIPOS>ATOM
      1 N         -66.3438  -44.3333  -16.2651 N.am      1 MOL    -0.2945
      2 N         -65.5027  -42.2389  -18.0462 N.am      1 MOL    -0.2983
      3 N         -65.6876  -44.8941  -10.8109 N.ar      1 MOL    -0.1750
      4 N         -64.5766  -45.5603  -10.5223 N.ar      1 MOL    -0.2425
      5 C         -64.6250  -46.6989   -9.6971 C.ar      1 MOL     0.2725
      6 C         -65.8843  -47.1160   -9.2111 C.ar      1 MOL     0.0496
      7 C         -65.9902  -48.2415   -8.3927 C.ar      1 MOL     0.0138
      8 C         -67.2284  -48.6509   -7.9028 C.ar      1 MOL     0.0008
      9 C         -68.3782  -47.9356   -8.2382 C.ar      1 MOL     0.0007
     10 C         -68.2891  -46.8099   -9.0616 C.ar      1 MOL     0.0103
     11 C         -67.0511  -46.3752   -9.5622 C.ar      1 MOL     0.0106
     12 C         -66.9381  -45.2422  -10.3867 C.ar      1 MOL     0.0736
     13 C         -68.1217  -44.4171  -10.7973 C.3       1 MOL     0.0925
     14 C         -68.5311  -44.5615  -12.2250 C.ar      1 MOL    -0.0406
     15 C         -67.5911  -44.8833  -13.2098 C.ar      1 MOL     0.0196
     16 C         -67.9503  -44.9942  -14.5522 C.ar      1 MOL     0.0723
     17 C         -66.8524  -45.3186  -15.4846 C.2       1 MOL     0.2495
     18 C         -65.5507  -44.6731  -17.4409 C.3       1 MOL     0.1268
     19 C         -65.6030  -43.5954  -18.5579 C.3       1 MOL     0.1265
     20 C         -66.4075  -41.9186  -16.9441 C.3       1 MOL     0.1265
     21 C         -66.3174  -42.9490  -15.8042 C.3       1 MOL     0.1268
     22 C         -65.0821  -41.1587  -18.7609 C.2       1 MOL     0.2187
     23 C         -64.8198  -41.3077  -20.2098 C.3       1 MOL     0.0752
     24 C         -65.5412  -40.2598  -20.9928 C.3       1 MOL     0.0134
     25 C         -66.0433  -41.6693  -20.9835 C.3       1 MOL     0.0134
     26 C         -69.2712  -44.7919  -14.9237 C.ar      1 MOL     0.1355
     27 C         -70.2378  -44.4742  -13.9576 C.ar      1 MOL     0.0392
     28 C         -69.8667  -44.3549  -12.6079 C.ar      1 MOL     0.0066
     29 O         -63.5597  -47.2755   -9.4393 O.2       1 MOL    -0.2658
     30 O         -64.9039  -40.0444  -18.2403 O.2       1 MOL    -0.2753
     31 O         -66.4441  -46.4873  -15.4867 O.2       1 MOL    -0.2699
     32 F         -69.6483  -44.9002  -16.2205 F         1 MOL    -0.2047
     33 H         -65.1003  -48.7977   -8.1322 H         1 MOL     0.0625
     34 H         -67.2954  -49.5198   -7.2659 H         1 MOL     0.0618
     35 H         -69.3379  -48.2538   -7.8589 H         1 MOL     0.0618
     36 H         -69.1875  -46.2634   -9.3148 H         1 MOL     0.0624
     37 H         -67.8716  -43.3506  -10.6209 H         1 MOL     0.0377
     38 H         -68.9826  -44.7067  -10.1648 H         1 MOL     0.0377
     39 H         -66.5557  -45.0447  -12.9374 H         1 MOL     0.0629
     40 H         -65.8852  -45.6579  -17.8407 H         1 MOL     0.0480
     41 H         -64.4960  -44.7870  -17.0847 H         1 MOL     0.0480
     42 H         -66.5856  -43.6676  -19.0864 H         1 MOL     0.0480
     43 H         -64.8009  -43.7752  -19.3097 H         1 MOL     0.0480
     44 H         -67.4388  -41.9182  -17.3752 H         1 MOL     0.0480
     45 H         -66.1896  -40.8917  -16.5741 H         1 MOL     0.0480
     46 H         -67.1183  -42.7798  -15.0520 H         1 MOL     0.0480
     47 H         -65.3302  -42.8058  -15.2933 H         1 MOL     0.0480
     48 H         -63.8550  -41.6488  -20.4782 H         1 MOL     0.0394
     49 H         -65.0785  -39.9241  -21.9114 H         1 MOL     0.0273
     50 H         -66.1290  -39.5425  -20.4314 H         1 MOL     0.0273
     51 H         -65.8936  -42.2521  -21.8829 H         1 MOL     0.0273
     52 H         -66.9375  -41.8713  -20.4044 H         1 MOL     0.0273
     53 H         -71.2663  -44.3184  -14.2486 H         1 MOL     0.0646
     54 H         -70.6134  -44.0992  -11.8616 H         1 MOL     0.0621
     55 H         -63.6836  -45.2787  -10.8904 H         1 MOL     0.1921
@<TRIPOS>BOND
     1    1   18 1 
     2    1   21 1 
     3    1   17 am
     4    2   20 1 
     5    2   22 am
     6    2   19 1 
     7    3    4 ar
     8    3   12 ar
     9    4   55 1 
    10    4    5 ar
    11    5    6 ar
    12    5   29 2 
    13    6    7 ar
    14    6   11 ar
    15    7    8 ar
    16    7   33 1 
    17    8    9 ar
    18    8   34 1 
    19    9   10 ar
    20    9   35 1 
    21   10   11 ar
    22   10   36 1 
    23   11   12 ar
    24   12   13 1 
    25   13   14 1 
    26   13   37 1 
    27   13   38 1 
    28   14   15 ar
    29   14   28 ar
    30   15   16 ar
    31   15   39 1 
    32   16   17 1 
    33   16   26 ar
    34   17   31 2 
    35   18   19 1 
    36   18   40 1 
    37   18   41 1 
    38   19   42 1 
    39   19   43 1 
    40   20   21 1 
    41   20   44 1 
    42   20   45 1 
    43   21   46 1 
    44   21   47 1 
    45   22   23 1 
    46   22   30 2 
    47   23   24 1 
    48   23   25 1 
    49   23   48 1 
    50   24   25 1 
    51   24   49 1 
    52   24   50 1 
    53   25   51 1 
    54   25   52 1 
    55   26   27 ar
    56   26   32 1 
    57   27   28 ar
    58   27   53 1 
    59   28   54 1 
@<TRIPOS>SUBSTRUCTURE
1 MOL         1
@<TRIPOS>MOLECULE
query molecule
   55    59     1     0     0
SMALL
NO_CHARGE

@<TRIPOS>ATOM
      1 N         -15.8962  -33.2036   12.1964 N.am      1 MOL    -0.2945
      2 N         -15.7098  -32.7251   14.9563 N.am      1 MOL    -0.2983
      3 N         -12.7014  -34.9033    7.6829 N.ar      1 MOL    -0.1750
      4 N         -12.2308  -36.0544    8.1418 N.ar      1 MOL    -0.2425
      5 C         -10.9972  -36.0906    8.8205 C.ar      1 MOL     0.2725
      6 C         -10.2867  -34.8779    8.9821 C.ar      1 MOL     0.0496
      7 C          -9.0339  -34.8581    9.5999 C.ar      1 MOL     0.0138
      8 C          -8.3360  -33.6572    9.7368 C.ar      1 MOL     0.0008
      9 C          -8.8893  -32.4659    9.2632 C.ar      1 MOL     0.0007
     10 C         -10.1415  -32.4704    8.6479 C.ar      1 MOL     0.0103
     11 C         -10.8553  -33.6659    8.4912 C.ar      1 MOL     0.0106
     12 C         -12.0977  -33.6947    7.8500 C.ar      1 MOL     0.0736
     13 C         -12.7813  -32.4711    7.3339 C.3       1 MOL     0.0925
     14 C         -13.9568  -32.0637    8.1479 C.ar      1 MOL    -0.0406
     15 C         -14.5439  -32.9072    9.0972 C.ar      1 MOL     0.0196
     16 C         -15.6122  -32.4814    9.8820 C.ar      1 MOL     0.0723
     17 C         -16.1545  -33.4192   10.8833 C.2       1 MOL     0.2495
     18 C         -16.4582  -34.1682   13.1425 C.3       1 MOL     0.1268
     19 C         -16.8356  -33.5167   14.5022 C.3       1 MOL     0.1265
     20 C         -15.4070  -31.6014   14.0725 C.3       1 MOL     0.1265
     21 C         -14.9967  -32.1600   12.6769 C.3       1 MOL     0.1268
     22 C         -14.8397  -33.0778   15.9378 C.2       1 MOL     0.2187
     23 C         -15.0547  -34.3524   16.6711 C.3       1 MOL     0.0752
     24 C         -13.7867  -34.8696   17.2721 C.3       1 MOL     0.0134
     25 C         -14.3620  -35.5188   16.0480 C.3       1 MOL     0.0134
     26 C         -16.1005  -31.1938    9.7139 C.ar      1 MOL     0.1355
     27 C         -15.5663  -30.3455    8.7440 C.ar      1 MOL     0.0392
     28 C         -14.4910  -30.7788    7.9615 C.ar      1 MOL     0.0066
     29 O         -10.5980  -37.1868    9.2448 O.2       1 MOL    -0.2658
     30 O         -13.8797  -32.3569   16.2557 O.2       1 MOL    -0.2753
     31 O         -16.8065  -34.3987   10.4862 O.2       1 MOL    -0.2699
     32 F         -17.0947  -30.7360   10.5035 F         1 MOL    -0.2047
     33 H          -8.6044  -35.7775    9.9705 H         1 MOL     0.0625
     34 H          -7.3655  -33.6500   10.2108 H         1 MOL     0.0618
     35 H          -8.3469  -31.5383    9.3734 H         1 MOL     0.0618
     36 H         -10.5628  -31.5437    8.2839 H         1 MOL     0.0624
     37 H         -13.1315  -32.6762    6.3036 H         1 MOL     0.0377
     38 H         -12.0524  -31.6380    7.3272 H         1 MOL     0.0377
     39 H         -14.1462  -33.9039    9.2344 H         1 MOL     0.0629
     40 H         -15.6757  -34.9372   13.3542 H         1 MOL     0.0480
     41 H         -17.3205  -34.6841   12.6637 H         1 MOL     0.0480
     42 H         -17.0857  -34.2854   15.2619 H         1 MOL     0.0480
     43 H         -17.7188  -32.8399   14.3859 H         1 MOL     0.0480
     44 H         -14.5996  -30.9787   14.5160 H         1 MOL     0.0480
     45 H         -16.3208  -30.9675   13.9813 H         1 MOL     0.0480
     46 H         -13.9760  -32.6046   12.7896 H         1 MOL     0.0480
     47 H         -14.9228  -31.3529   11.9138 H         1 MOL     0.0480
     48 H         -15.9889  -34.4566   17.1588 H         1 MOL     0.0394
     49 H         -13.8624  -35.4368   18.1896 H         1 MOL     0.0273
     50 H         -12.8854  -34.2861   17.1177 H         1 MOL     0.0273
     51 H         -14.8287  -36.4893   16.1809 H         1 MOL     0.0273
     52 H         -13.8456  -35.3441   15.1141 H         1 MOL     0.0273
     53 H         -15.9774  -29.3564    8.6070 H         1 MOL     0.0646
     54 H         -14.0692  -30.1153    7.2201 H         1 MOL     0.0621
     55 H         -12.7277  -36.9203    8.0203 H         1 MOL     0.1921
@<TRIPOS>BOND
     1    1   18 1 
     2    1   21 1 
     3    1   17 am
     4    2   20 1 
     5    2   22 am
     6    2   19 1 
     7    3    4 ar
     8    3   12 ar
     9    4   55 1 
    10    4    5 ar
    11    5    6 ar
    12    5   29 2 
    13    6    7 ar
    14    6   11 ar
    15    7    8 ar
    16    7   33 1 
    17    8    9 ar
    18    8   34 1 
    19    9   10 ar
    20    9   35 1 
    21   10   11 ar
    22   10   36 1 
    23   11   12 ar
    24   12   13 1 
    25   13   14 1 
    26   13   37 1 
    27   13   38 1 
    28   14   15 ar
    29   14   28 ar
    30   15   16 ar
    31   15   39 1 
    32   16   17 1 
    33   16   26 ar
    34   17   31 2 
    35   18   19 1 
    36   18   40 1 
    37   18   41 1 
    38   19   42 1 
    39   19   43 1 
    40   20   21 1 
    41   20   44 1 
    42   20   45 1 
    43   21   46 1 
    44   21   47 1 
    45   22   23 1 
    46   22   30 2 
    47   23   24 1 
    48   23   25 1 
    49   23   48 1 
    50   24   25 1 
    51   24   49 1 
    52   24   50 1 
    53   25   51 1 
    54   25   52 1 
    55   26   27 ar
    56   26   32 1 
    57   27   28 ar
    58   27   53 1 
    59   28   54 1 
@<TRIPOS>SUBSTRUCTURE
1 MOL         1
@<TRIPOS>MOLECULE
query molecule
   55    59     1     0     0
SMALL
NO_CHARGE

@<TRIPOS>ATOM
      1 N         -46.9065  -71.9795   -2.1999 N.am      1 MOL    -0.2945
      2 N         -46.1843  -69.4811   -3.3218 N.am      1 MOL    -0.2983
      3 N         -52.4215  -71.9801    0.9517 N.ar      1 MOL    -0.1750
      4 N         -52.9267  -72.0751    2.1780 N.ar      1 MOL    -0.2425
      5 C         -54.3188  -72.2183    2.3595 C.ar      1 MOL     0.2725
      6 C         -55.1490  -72.1947    1.2132 C.ar      1 MOL     0.0496
      7 C         -56.5408  -72.2829    1.3278 C.ar      1 MOL     0.0138
      8 C         -57.3436  -72.2390    0.1870 C.ar      1 MOL     0.0008
      9 C         -56.7614  -72.1151   -1.0768 C.ar      1 MOL     0.0007
     10 C         -55.3767  -72.0307   -1.2043 C.ar      1 MOL     0.0103
     11 C         -54.5503  -72.0681   -0.0725 C.ar      1 MOL     0.0106
     12 C         -53.1570  -71.9859   -0.1953 C.ar      1 MOL     0.0736
     13 C         -52.4875  -71.9037   -1.5335 C.3       1 MOL     0.0925
     14 C         -51.3225  -72.8214   -1.5961 C.ar      1 MOL    -0.0406
     15 C         -50.0363  -72.2993   -1.4214 C.ar      1 MOL     0.0196
     16 C         -48.9184  -73.1359   -1.4391 C.ar      1 MOL     0.0723
     17 C         -47.5822  -72.5659   -1.1945 C.2       1 MOL     0.2495
     18 C         -45.5458  -71.5065   -1.9707 C.3       1 MOL     0.1268
     19 C         -45.5274  -69.9589   -2.1027 C.3       1 MOL     0.1265
     20 C         -47.4152  -70.1563   -3.7643 C.3       1 MOL     0.1265
     21 C         -47.4115  -71.6959   -3.5286 C.3       1 MOL     0.1268
     22 C         -46.0443  -68.1846   -3.7558 C.2       1 MOL     0.2187
     23 C         -45.2108  -67.2420   -2.9612 C.3       1 MOL     0.0752
     24 C         -44.5825  -66.1867   -3.8000 C.3       1 MOL     0.0134
     25 C         -43.7583  -67.3293   -3.2793 C.3       1 MOL     0.0134
     26 C         -49.0866  -74.5004   -1.6563 C.ar      1 MOL     0.1355
     27 C         -50.3639  -75.0331   -1.8443 C.ar      1 MOL     0.0392
     28 C         -51.4844  -74.1941   -1.8137 C.ar      1 MOL     0.0066
     29 O         -54.7475  -72.3657    3.5155 O.2       1 MOL    -0.2658
     30 O         -46.6621  -67.7470   -4.7406 O.2       1 MOL    -0.2753
     31 O         -47.1493  -72.6655   -0.0417 O.2       1 MOL    -0.2699
     32 F         -48.0121  -75.3240   -1.6811 F         1 MOL    -0.2047
     33 H         -56.9939  -72.3778    2.3033 H         1 MOL     0.0625
     34 H         -58.4178  -72.2972    0.2828 H         1 MOL     0.0618
     35 H         -57.3840  -72.0856   -1.9589 H         1 MOL     0.0618
     36 H         -54.9326  -71.9349   -2.1855 H         1 MOL     0.0624
     37 H         -52.1287  -70.8715   -1.6895 H         1 MOL     0.0377
     38 H         -53.2123  -72.1945   -2.3151 H         1 MOL     0.0377
     39 H         -49.9076  -71.2392   -1.2598 H         1 MOL     0.0629
     40 H         -44.8751  -71.9829   -2.7259 H         1 MOL     0.0480
     41 H         -45.2101  -71.8291   -0.9608 H         1 MOL     0.0480
     42 H         -44.4884  -69.5676   -2.0708 H         1 MOL     0.0480
     43 H         -46.0825  -69.5353   -1.2247 H         1 MOL     0.0480
     44 H         -47.6299  -69.8875   -4.8224 H         1 MOL     0.0480
     45 H         -48.2488  -69.7424   -3.1408 H         1 MOL     0.0480
     46 H         -46.7447  -72.1875   -4.2760 H         1 MOL     0.0480
     47 H         -48.4317  -72.1235   -3.6440 H         1 MOL     0.0480
     48 H         -45.5552  -67.0394   -1.9773 H         1 MOL     0.0394
     49 H         -44.4256  -65.2208   -3.3340 H         1 MOL     0.0273
     50 H         -44.8115  -66.1984   -4.8580 H         1 MOL     0.0273
     51 H         -43.0668  -67.1028   -2.4764 H         1 MOL     0.0273
     52 H         -43.4577  -68.0807   -3.9971 H         1 MOL     0.0273
     53 H         -50.4831  -76.0941   -2.0078 H         1 MOL     0.0646
     54 H         -52.4730  -74.6084   -1.9512 H         1 MOL     0.0621
     55 H         -52.3431  -72.0495    2.9966 H         1 MOL     0.1921
@<TRIPOS>BOND
     1    1   18 1 
     2    1   21 1 
     3    1   17 am
     4    2   20 1 
     5    2   22 am
     6    2   19 1 
     7    3    4 ar
     8    3   12 ar
     9    4   55 1 
    10    4    5 ar
    11    5    6 ar
    12    5   29 2 
    13    6    7 ar
    14    6   11 ar
    15    7    8 ar
    16    7   33 1 
    17    8    9 ar
    18    8   34 1 
    19    9   10 ar
    20    9   35 1 
    21   10   11 ar
    22   10   36 1 
    23   11   12 ar
    24   12   13 1 
    25   13   14 1 
    26   13   37 1 
    27   13   38 1 
    28   14   15 ar
    29   14   28 ar
    30   15   16 ar
    31   15   39 1 
    32   16   17 1 
    33   16   26 ar
    34   17   31 2 
    35   18   19 1 
    36   18   40 1 
    37   18   41 1 
    38   19   42 1 
    39   19   43 1 
    40   20   21 1 
    41   20   44 1 
    42   20   45 1 
    43   21   46 1 
    44   21   47 1 
    45   22   23 1 
    46   22   30 2 
    47   23   24 1 
    48   23   25 1 
    49   23   48 1 
    50   24   25 1 
    51   24   49 1 
    52   24   50 1 
    53   25   51 1 
    54   25   52 1 
    55   26   27 ar
    56   26   32 1 
    57   27   28 ar
    58   27   53 1 
    59   28   54 1 
@<TRIPOS>SUBSTRUCTURE
1 MOL         1
@<TRIPOS>MOLECULE
query molecule
   55    59     1     0     0
SMALL
NO_CHARGE

@<TRIPOS>ATOM
      1 N         -63.2181  -38.9709   10.3121 N.am      1 MOL    -0.2945
      2 N         -63.3727  -41.7952   10.7315 N.am      1 MOL    -0.2983
      3 N         -64.4140  -35.5337    5.2632 N.ar      1 MOL    -0.1750
      4 N         -63.8181  -35.0268    4.1903 N.ar      1 MOL    -0.2425
      5 C         -64.5421  -34.2830    3.2346 C.ar      1 MOL     0.2725
      6 C         -65.9116  -34.0483    3.4721 C.ar      1 MOL     0.0496
      7 C         -66.6851  -33.2966    2.5824 C.ar      1 MOL     0.0138
      8 C         -68.0299  -33.0444    2.8598 C.ar      1 MOL     0.0008
      9 C         -68.6100  -33.5397    4.0282 C.ar      1 MOL     0.0007
     10 C         -67.8531  -34.3085    4.9118 C.ar      1 MOL     0.0103
     11 C         -66.5005  -34.5870    4.6502 C.ar      1 MOL     0.0106
     12 C         -65.7414  -35.3918    5.5176 C.ar      1 MOL     0.0736
     13 C         -66.3779  -36.0950    6.6710 C.3       1 MOL     0.0925
     14 C         -65.6194  -35.9590    7.9296 C.ar      1 MOL    -0.0406
     15 C         -64.6456  -36.9030    8.2845 C.ar      1 MOL     0.0196
     16 C         -63.9595  -36.7747    9.4937 C.ar      1 MOL     0.0723
     17 C         -62.9087  -37.7228    9.8992 C.2       1 MOL     0.2495
     18 C         -62.2573  -39.6321   11.1997 C.3       1 MOL     0.1268
     19 C         -62.0867  -41.1395   10.8737 C.3       1 MOL     0.1265
     20 C         -64.2783  -41.1773    9.7592 C.3       1 MOL     0.1265
     21 C         -64.4690  -39.6511   10.0268 C.3       1 MOL     0.1268
     22 C         -63.6501  -43.0319   11.2279 C.2       1 MOL     0.2187
     23 C         -62.6060  -43.7700   11.9817 C.3       1 MOL     0.0752
     24 C         -63.1784  -44.4214   13.2014 C.3       1 MOL     0.0134
     25 C         -62.2798  -43.2313   13.3270 C.3       1 MOL     0.0134
     26 C         -64.2523  -35.6992   10.3408 C.ar      1 MOL     0.1355
     27 C         -65.2165  -34.7551    9.9898 C.ar      1 MOL     0.0392
     28 C         -65.9002  -34.8836    8.7796 C.ar      1 MOL     0.0066
     29 O         -63.9306  -33.8709    2.2346 O.2       1 MOL    -0.2658
     30 O         -64.7354  -43.5972   11.0124 O.2       1 MOL    -0.2753
     31 O         -61.7732  -37.2405    9.9669 O.2       1 MOL    -0.2699
     32 F         -63.5986  -35.5610   11.5200 F         1 MOL    -0.2047
     33 H         -66.2418  -32.9036    1.6787 H         1 MOL     0.0625
     34 H         -68.6227  -32.4614    2.1702 H         1 MOL     0.0618
     35 H         -69.6455  -33.3274    4.2489 H         1 MOL     0.0618
     36 H         -68.3116  -34.6941    5.8129 H         1 MOL     0.0624
     37 H         -66.4494  -37.1715    6.4231 H         1 MOL     0.0377
     38 H         -67.3904  -35.6745    6.8265 H         1 MOL     0.0377
     39 H         -64.4243  -37.7277    7.6237 H         1 MOL     0.0629
     40 H         -62.6332  -39.5308   12.2471 H         1 MOL     0.0480
     41 H         -61.2783  -39.1033   11.1374 H         1 MOL     0.0480
     42 H         -61.4995  -41.6562   11.6663 H         1 MOL     0.0480
     43 H         -61.5335  -41.2490    9.9095 H         1 MOL     0.0480
     44 H         -65.2576  -41.7092    9.7770 H         1 MOL     0.0480
     45 H         -63.8368  -41.3164    8.7411 H         1 MOL     0.0480
     46 H         -65.1319  -39.5350   10.9202 H         1 MOL     0.0480
     47 H         -64.9717  -39.1514    9.1669 H         1 MOL     0.0480
     48 H         -61.8910  -44.2807   11.3830 H         1 MOL     0.0394
     49 H         -62.7694  -45.3834   13.4829 H         1 MOL     0.0273
     50 H         -64.2267  -44.2414   13.4100 H         1 MOL     0.0273
     51 H         -61.2832  -43.4292   13.7082 H         1 MOL     0.0273
     52 H         -62.7404  -42.2943   13.6124 H         1 MOL     0.0273
     53 H         -65.4341  -33.9301   10.6513 H         1 MOL     0.0646
     54 H         -66.6478  -34.1548    8.5026 H         1 MOL     0.0621
     55 H         -62.8371  -35.1405    4.0099 H         1 MOL     0.1921
@<TRIPOS>BOND
     1    1   18 1 
     2    1   21 1 
     3    1   17 am
     4    2   20 1 
     5    2   22 am
     6    2   19 1 
     7    3    4 ar
     8    3   12 ar
     9    4   55 1 
    10    4    5 ar
    11    5    6 ar
    12    5   29 2 
    13    6    7 ar
    14    6   11 ar
    15    7    8 ar
    16    7   33 1 
    17    8    9 ar
    18    8   34 1 
    19    9   10 ar
    20    9   35 1 
    21   10   11 ar
    22   10   36 1 
    23   11   12 ar
    24   12   13 1 
    25   13   14 1 
    26   13   37 1 
    27   13   38 1 
    28   14   15 ar
    29   14   28 ar
    30   15   16 ar
    31   15   39 1 
    32   16   17 1 
    33   16   26 ar
    34   17   31 2 
    35   18   19 1 
    36   18   40 1 
    37   18   41 1 
    38   19   42 1 
    39   19   43 1 
    40   20   21 1 
    41   20   44 1 
    42   20   45 1 
    43   21   46 1 
    44   21   47 1 
    45   22   23 1 
    46   22   30 2 
    47   23   24 1 
    48   23   25 1 
    49   23   48 1 
    50   24   25 1 
    51   24   49 1 
    52   24   50 1 
    53   25   51 1 
    54   25   52 1 
    55   26   27 ar
    56   26   32 1 
    57   27   28 ar
    58   27   53 1 
    59   28   54 1 
@<TRIPOS>SUBSTRUCTURE
1 MOL         1
@<TRIPOS>MOLECULE
query molecule
   55    59     1     0     0
SMALL
NO_CHARGE

@<TRIPOS>ATOM
      1 N         -43.5531  -57.2381   31.3127 N.am      1 MOL    -0.2945
      2 N         -41.4373  -55.3643   31.4782 N.am      1 MOL    -0.2983
      3 N         -48.0100  -57.1653   25.6499 N.ar      1 MOL    -0.1750
      4 N         -48.2343  -57.9605   24.6100 N.ar      1 MOL    -0.2425
      5 C         -47.1669  -58.4230   23.8133 C.ar      1 MOL     0.2725
      6 C         -45.8509  -58.0572   24.1587 C.ar      1 MOL     0.0496
      7 C         -44.7505  -58.4289   23.3896 C.ar      1 MOL     0.0138
      8 C         -43.4570  -58.1448   23.8054 C.ar      1 MOL     0.0008
      9 C         -43.2544  -57.4626   25.0008 C.ar      1 MOL     0.0007
     10 C         -44.3371  -57.0174   25.7475 C.ar      1 MOL     0.0103
     11 C         -45.6474  -57.2781   25.3293 C.ar      1 MOL     0.0106
     12 C         -46.7597  -56.7602   26.0111 C.ar      1 MOL     0.0736
     13 C         -46.5960  -55.7406   27.0899 C.3       1 MOL     0.0925
     14 C         -46.7381  -56.3464   28.4246 C.ar      1 MOL    -0.0406
     15 C         -45.6259  -56.9474   29.0164 C.ar      1 MOL     0.0196
     16 C         -45.7377  -57.5214   30.2855 C.ar      1 MOL     0.0723
     17 C         -44.5218  -58.0955   30.9016 C.2       1 MOL     0.2495
     18 C         -42.1975  -57.7305   31.5348 C.3       1 MOL     0.1268
     19 C         -41.1255  -56.7160   31.0442 C.3       1 MOL     0.1265
     20 C         -42.7675  -54.8759   31.1290 C.3       1 MOL     0.1265
     21 C         -43.8483  -55.8518   31.6652 C.3       1 MOL     0.1268
     22 C         -40.5632  -54.5326   32.1039 C.2       1 MOL     0.2187
     23 C         -39.2286  -55.0797   32.4467 C.3       1 MOL     0.0752
     24 C         -38.1620  -54.3550   31.6981 C.3       1 MOL     0.0134
     25 C         -38.3436  -54.1375   33.1742 C.3       1 MOL     0.0134
     26 C         -46.9625  -57.5164   30.9460 C.ar      1 MOL     0.1355
     27 C         -48.0758  -56.9054   30.3624 C.ar      1 MOL     0.0392
     28 C         -47.9616  -56.3135   29.0989 C.ar      1 MOL     0.0066
     29 O         -47.4525  -59.1639   22.8572 O.2       1 MOL    -0.2658
     30 O         -40.8633  -53.3700   32.4173 O.2       1 MOL    -0.2753
     31 O         -44.4215  -59.3246   30.9399 O.2       1 MOL    -0.2699
     32 F         -47.0834  -58.0901   32.1662 F         1 MOL    -0.2047
     33 H         -44.9006  -58.9703   22.4641 H         1 MOL     0.0625
     34 H         -42.6136  -58.4536   23.2062 H         1 MOL     0.0618
     35 H         -42.2482  -57.2730   25.3446 H         1 MOL     0.0618
     36 H         -44.1649  -56.4589   26.6568 H         1 MOL     0.0624
     37 H         -47.3648  -54.9594   26.9641 H         1 MOL     0.0377
     38 H         -45.5830  -55.3067   27.0069 H         1 MOL     0.0377
     39 H         -44.6799  -56.9661   28.4965 H         1 MOL     0.0629
     40 H         -42.0777  -58.7163   31.0312 H         1 MOL     0.0480
     41 H         -42.0608  -57.8840   32.6324 H         1 MOL     0.0480
     42 H         -41.1254  -56.7172   29.9236 H         1 MOL     0.0480
     43 H         -40.1033  -56.9922   31.3816 H         1 MOL     0.0480
     44 H         -42.8378  -54.8066   30.0170 H         1 MOL     0.0480
     45 H         -42.9069  -53.8536   31.5469 H         1 MOL     0.0480
     46 H         -44.8588  -55.5827   31.2827 H         1 MOL     0.0480
     47 H         -43.8729  -55.7796   32.7800 H         1 MOL     0.0480
     48 H         -39.1823  -56.1293   32.5911 H         1 MOL     0.0394
     49 H         -38.4806  -53.5460   31.0520 H         1 MOL     0.0273
     50 H         -37.2940  -54.9270   31.3959 H         1 MOL     0.0273
     51 H         -38.7882  -53.2010   33.4877 H         1 MOL     0.0273
     52 H         -37.5940  -54.5739   33.8239 H         1 MOL     0.0273
     53 H         -49.0201  -56.8863   30.8855 H         1 MOL     0.0646
     54 H         -48.8156  -55.8326   28.6456 H         1 MOL     0.0621
     55 H         -49.1518  -58.2656   24.3391 H         1 MOL     0.1921
@<TRIPOS>BOND
     1    1   18 1 
     2    1   21 1 
     3    1   17 am
     4    2   20 1 
     5    2   22 am
     6    2   19 1 
     7    3    4 ar
     8    3   12 ar
     9    4   55 1 
    10    4    5 ar
    11    5    6 ar
    12    5   29 2 
    13    6    7 ar
    14    6   11 ar
    15    7    8 ar
    16    7   33 1 
    17    8    9 ar
    18    8   34 1 
    19    9   10 ar
    20    9   35 1 
    21   10   11 ar
    22   10   36 1 
    23   11   12 ar
    24   12   13 1 
    25   13   14 1 
    26   13   37 1 
    27   13   38 1 
    28   14   15 ar
    29   14   28 ar
    30   15   16 ar
    31   15   39 1 
    32   16   17 1 
    33   16   26 ar
    34   17   31 2 
    35   18   19 1 
    36   18   40 1 
    37   18   41 1 
    38   19   42 1 
    39   19   43 1 
    40   20   21 1 
    41   20   44 1 
    42   20   45 1 
    43   21   46 1 
    44   21   47 1 
    45   22   23 1 
    46   22   30 2 
    47   23   24 1 
    48   23   25 1 
    49   23   48 1 
    50   24   25 1 
    51   24   49 1 
    52   24   50 1 
    53   25   51 1 
    54   25   52 1 
    55   26   27 ar
    56   26   32 1 
    57   27   28 ar
    58   27   53 1 
    59   28   54 1 
@<TRIPOS>SUBSTRUCTURE
1 MOL         1
@<TRIPOS>MOLECULE
query molecule
   55    59     1     0     0
SMALL
NO_CHARGE

@<TRIPOS>ATOM
      1 N         -65.9617  -38.5492  -17.7155 N.am      1 MOL    -0.2945
      2 N         -65.3867  -40.3733  -19.8290 N.am      1 MOL    -0.2983
      3 N         -64.9516  -40.7823  -11.5559 N.ar      1 MOL    -0.1750
      4 N         -64.2516  -41.7971  -11.0674 N.ar      1 MOL    -0.2425
      5 C         -63.1392  -41.5860  -10.2279 C.ar      1 MOL     0.2725
      6 C         -62.8470  -40.2637   -9.8298 C.ar      1 MOL     0.0496
      7 C         -61.8275  -39.9908   -8.9131 C.ar      1 MOL     0.0138
      8 C         -61.5423  -38.6742   -8.5465 C.ar      1 MOL     0.0008
      9 C         -62.2755  -37.6214   -9.0953 C.ar      1 MOL     0.0007
     10 C         -63.3062  -37.8856   -9.9968 C.ar      1 MOL     0.0103
     11 C         -63.6185  -39.1989  -10.3785 C.ar      1 MOL     0.0106
     12 C         -64.6585  -39.4801  -11.2825 C.ar      1 MOL     0.0736
     13 C         -65.4614  -38.4068  -11.9424 C.3       1 MOL     0.0925
     14 C         -64.8781  -38.0096  -13.2506 C.ar      1 MOL    -0.0406
     15 C         -65.6572  -38.0163  -14.4153 C.ar      1 MOL     0.0196
     16 C         -65.1008  -37.5972  -15.6303 C.ar      1 MOL     0.0723
     17 C         -65.9348  -37.5189  -16.8437 C.2       1 MOL     0.2495
     18 C         -66.5198  -38.3115  -19.0458 C.3       1 MOL     0.1268
     19 C         -65.6553  -38.9807  -20.1532 C.3       1 MOL     0.1265
     20 C         -64.7706  -40.5999  -18.5206 C.3       1 MOL     0.1265
     21 C         -65.5733  -39.9089  -17.3785 C.3       1 MOL     0.1268
     22 C         -65.6040  -41.4220  -20.6682 C.2       1 MOL     0.2187
     23 C         -65.9232  -41.1649  -22.0981 C.3       1 MOL     0.0752
     24 C         -64.9769  -41.8883  -23.0014 C.3       1 MOL     0.0134
     25 C         -64.8451  -40.4110  -22.8064 C.3       1 MOL     0.0134
     26 C         -63.7619  -37.2093  -15.6856 C.ar      1 MOL     0.1355
     27 C         -62.9821  -37.2025  -14.5318 C.ar      1 MOL     0.0392
     28 C         -63.5400  -37.5972  -13.3149 C.ar      1 MOL     0.0066
     29 O         -62.4504  -42.5726   -9.9236 O.2       1 MOL    -0.2658
     30 O         -65.5890  -42.5983  -20.2678 O.2       1 MOL    -0.2753
     31 O         -66.5126  -36.4422  -17.0318 O.2       1 MOL    -0.2699
     32 F         -63.2103  -36.8240  -16.8611 F         1 MOL    -0.2047
     33 H         -61.2582  -40.8033   -8.4859 H         1 MOL     0.0625
     34 H         -60.7524  -38.4696   -7.8388 H         1 MOL     0.0618
     35 H         -62.0465  -36.6023   -8.8207 H         1 MOL     0.0618
     36 H         -63.8742  -37.0627  -10.4096 H         1 MOL     0.0624
     37 H         -65.4776  -37.5194  -11.2835 H         1 MOL     0.0377
     38 H         -66.4871  -38.7808  -12.1118 H         1 MOL     0.0377
     39 H         -66.6895  -38.3315  -14.3773 H         1 MOL     0.0629
     40 H         -66.6079  -37.2142  -19.2158 H         1 MOL     0.0480
     41 H         -67.5489  -38.7457  -19.0710 H         1 MOL     0.0480
     42 H         -64.6778  -38.4469  -20.2331 H         1 MOL     0.0480
     43 H         -66.1601  -38.9229  -21.1436 H         1 MOL     0.0480
     44 H         -63.7415  -40.1621  -18.5493 H         1 MOL     0.0480
     45 H         -64.6699  -41.6928  -18.3395 H         1 MOL     0.0480
     46 H         -65.0046  -39.9021  -16.4219 H         1 MOL     0.0480
     47 H         -66.5127  -40.4937  -17.2125 H         1 MOL     0.0480
     48 H         -66.9456  -41.0487  -22.3456 H         1 MOL     0.0394
     49 H         -65.3396  -42.1998  -23.9737 H         1 MOL     0.0273
     50 H         -64.2191  -42.5041  -22.5317 H         1 MOL     0.0273
     51 H         -65.1445  -39.7753  -23.6302 H         1 MOL     0.0273
     52 H         -64.0240  -40.0635  -22.1892 H         1 MOL     0.0273
     53 H         -61.9501  -36.8879  -14.5781 H         1 MOL     0.0646
     54 H         -62.9396  -37.5831  -12.4165 H         1 MOL     0.0621
     55 H         -64.4813  -42.7554  -11.2679 H         1 MOL     0.1921
@<TRIPOS>BOND
     1    1   18 1 
     2    1   21 1 
     3    1   17 am
     4    2   20 1 
     5    2   22 am
     6    2   19 1 
     7    3    4 ar
     8    3   12 ar
     9    4   55 1 
    10    4    5 ar
    11    5    6 ar
    12    5   29 2 
    13    6    7 ar
    14    6   11 ar
    15    7    8 ar
    16    7   33 1 
    17    8    9 ar
    18    8   34 1 
    19    9   10 ar
    20    9   35 1 
    21   10   11 ar
    22   10   36 1 
    23   11   12 ar
    24   12   13 1 
    25   13   14 1 
    26   13   37 1 
    27   13   38 1 
    28   14   15 ar
    29   14   28 ar
    30   15   16 ar
    31   15   39 1 
    32   16   17 1 
    33   16   26 ar
    34   17   31 2 
    35   18   19 1 
    36   18   40 1 
    37   18   41 1 
    38   19   42 1 
    39   19   43 1 
    40   20   21 1 
    41   20   44 1 
    42   20   45 1 
    43   21   46 1 
    44   21   47 1 
    45   22   23 1 
    46   22   30 2 
    47   23   24 1 
    48   23   25 1 
    49   23   48 1 
    50   24   25 1 
    51   24   49 1 
    52   24   50 1 
    53   25   51 1 
    54   25   52 1 
    55   26   27 ar
    56   26   32 1 
    57   27   28 ar
    58   27   53 1 
    59   28   54 1 
@<TRIPOS>SUBSTRUCTURE
1 MOL         1
@<TRIPOS>MOLECULE
query molecule
   55    59     1     0     0
SMALL
NO_CHARGE

@<TRIPOS>ATOM
      1 N         -14.3867  -66.4872   25.8116 N.am      1 MOL    -0.2945
      2 N         -14.2295  -63.7593   26.5973 N.am      1 MOL    -0.2983
      3 N         -12.4615  -65.5076   20.3161 N.ar      1 MOL    -0.1750
      4 N         -12.2100  -64.3706   19.6638 N.ar      1 MOL    -0.2425
      5 C         -11.3416  -64.3554   18.5549 C.ar      1 MOL     0.2725
      6 C         -10.6771  -65.5438   18.1968 C.ar      1 MOL     0.0496
      7 C          -9.7739  -65.5639   17.1295 C.ar      1 MOL     0.0138
      8 C          -9.1230  -66.7472   16.7832 C.ar      1 MOL     0.0008
      9 C          -9.3751  -67.9171   17.5032 C.ar      1 MOL     0.0007
     10 C         -10.2893  -67.9097   18.5601 C.ar      1 MOL     0.0103
     11 C         -10.9565  -66.7325   18.9277 C.ar      1 MOL     0.0106
     12 C         -11.9281  -66.7054   19.9511 C.ar      1 MOL     0.0736
     13 C         -12.4168  -67.9664   20.5804 C.3       1 MOL     0.0925
     14 C         -12.2330  -68.0330   22.0367 C.ar      1 MOL    -0.0406
     15 C         -13.3262  -67.8250   22.8864 C.ar      1 MOL     0.0196
     16 C         -13.1757  -67.9463   24.2777 C.ar      1 MOL     0.0723
     17 C         -14.3552  -67.6610   25.1340 C.2       1 MOL     0.2495
     18 C         -15.6156  -65.6999   25.8600 C.3       1 MOL     0.1268
     19 C         -15.3273  -64.1664   25.7404 C.3       1 MOL     0.1265
     20 C         -12.9942  -64.5237   26.4428 C.3       1 MOL     0.1265
     21 C         -13.2633  -66.0392   26.6208 C.3       1 MOL     0.1268
     22 C         -14.1881  -62.6237   27.3452 C.2       1 MOL     0.2187
     23 C         -15.3818  -61.7498   27.3699 C.3       1 MOL     0.0752
     24 C         -15.5353  -61.0156   28.6581 C.3       1 MOL     0.0134
     25 C         -16.3973  -62.2057   28.3585 C.3       1 MOL     0.0134
     26 C         -11.9347  -68.3169   24.7957 C.ar      1 MOL     0.1355
     27 C         -10.8333  -68.4944   23.9530 C.ar      1 MOL     0.0392
     28 C         -10.9801  -68.3416   22.5724 C.ar      1 MOL     0.0066
     29 O         -11.2369  -63.2964   17.9021 O.2       1 MOL    -0.2658
     30 O         -13.1714  -62.2751   27.9691 O.2       1 MOL    -0.2753
     31 O         -15.3311  -68.4241   25.0589 O.2       1 MOL    -0.2699
     32 F         -11.7723  -68.5136   26.1254 F         1 MOL    -0.2047
     33 H          -9.5821  -64.6589   16.5697 H         1 MOL     0.0625
     34 H          -8.4217  -66.7579   15.9618 H         1 MOL     0.0618
     35 H          -8.8624  -68.8315   17.2418 H         1 MOL     0.0618
     36 H         -10.4903  -68.8260   19.0980 H         1 MOL     0.0624
     37 H         -11.8830  -68.8206   20.1216 H         1 MOL     0.0377
     38 H         -13.5045  -68.0494   20.3730 H         1 MOL     0.0377
     39 H         -14.2901  -67.5734   22.4692 H         1 MOL     0.0629
     40 H         -16.1140  -65.9012   26.8396 H         1 MOL     0.0480
     41 H         -16.3032  -66.0425   25.0533 H         1 MOL     0.0480
     42 H         -16.2373  -63.5717   26.0001 H         1 MOL     0.0480
     43 H         -15.0545  -63.9228   24.6861 H         1 MOL     0.0480
     44 H         -12.2444  -64.1647   27.1838 H         1 MOL     0.0480
     45 H         -12.5913  -64.3319   25.4196 H         1 MOL     0.0480
     46 H         -13.5097  -66.2440   27.6915 H         1 MOL     0.0480
     47 H         -12.3634  -66.6391   26.3574 H         1 MOL     0.0480
     48 H         -15.6518  -61.3098   26.4438 H         1 MOL     0.0394
     49 H         -16.0115  -60.0440   28.6159 H         1 MOL     0.0273
     50 H         -14.7593  -61.1564   29.4023 H         1 MOL     0.0273
     51 H         -17.4354  -61.9997   28.1253 H         1 MOL     0.0273
     52 H         -16.1802  -63.1121   28.9107 H         1 MOL     0.0273
     53 H          -9.8699  -68.7516   24.3668 H         1 MOL     0.0646
     54 H         -10.1295  -68.4718   21.9190 H         1 MOL     0.0621
     55 H         -12.6211  -63.4928   19.9366 H         1 MOL     0.1921
@<TRIPOS>BOND
     1    1   18 1 
     2    1   21 1 
     3    1   17 am
     4    2   20 1 
     5    2   22 am
     6    2   19 1 
     7    3    4 ar
     8    3   12 ar
     9    4   55 1 
    10    4    5 ar
    11    5    6 ar
    12    5   29 2 
    13    6    7 ar
    14    6   11 ar
    15    7    8 ar
    16    7   33 1 
    17    8    9 ar
    18    8   34 1 
    19    9   10 ar
    20    9   35 1 
    21   10   11 ar
    22   10   36 1 
    23   11   12 ar
    24   12   13 1 
    25   13   14 1 
    26   13   37 1 
    27   13   38 1 
    28   14   15 ar
    29   14   28 ar
    30   15   16 ar
    31   15   39 1 
    32   16   17 1 
    33   16   26 ar
    34   17   31 2 
    35   18   19 1 
    36   18   40 1 
    37   18   41 1 
    38   19   42 1 
    39   19   43 1 
    40   20   21 1 
    41   20   44 1 
    42   20   45 1 
    43   21   46 1 
    44   21   47 1 
    45   22   23 1 
    46   22   30 2 
    47   23   24 1 
    48   23   25 1 
    49   23   48 1 
    50   24   25 1 
    51   24   49 1 
    52   24   50 1 
    53   25   51 1 
    54   25   52 1 
    55   26   27 ar
    56   26   32 1 
    57   27   28 ar
    58   27   53 1 
    59   28   54 1 
@<TRIPOS>SUBSTRUCTURE
1 MOL         1
@<TRIPOS>MOLECULE
query molecule
   55    59     1     0     0
SMALL
NO_CHARGE

@<TRIPOS>ATOM
      1 N         -65.6104  -64.5669    8.3803 N.am      1 MOL    -0.2945
      2 N         -63.9431  -64.3454   10.6541 N.am      1 MOL    -0.2983
      3 N         -67.4628  -70.8205    6.7844 N.ar      1 MOL    -0.1750
      4 N         -67.4840  -71.6936    5.7814 N.ar      1 MOL    -0.2425
      5 C         -68.6735  -72.3873    5.4565 C.ar      1 MOL     0.2725
      6 C         -69.8110  -72.1853    6.2714 C.ar      1 MOL     0.0496
      7 C         -70.9928  -72.9017    6.0539 C.ar      1 MOL     0.0138
      8 C         -72.1038  -72.6965    6.8762 C.ar      1 MOL     0.0008
      9 C         -72.0391  -71.7729    7.9204 C.ar      1 MOL     0.0007
     10 C         -70.8637  -71.0575    8.1493 C.ar      1 MOL     0.0103
     11 C         -69.7333  -71.2465    7.3395 C.ar      1 MOL     0.0106
     12 C         -68.5413  -70.5399    7.5648 C.ar      1 MOL     0.0736
     13 C         -68.4409  -69.5071    8.6435 C.3       1 MOL     0.0925
     14 C         -68.4636  -68.1391    8.0722 C.ar      1 MOL    -0.0406
     15 C         -67.2691  -67.4110    8.0303 C.ar      1 MOL     0.0196
     16 C         -67.2458  -66.1306    7.4729 C.ar      1 MOL     0.0723
     17 C         -65.9695  -65.4038    7.3878 C.2       1 MOL     0.2495
     18 C         -64.3986  -63.7737    8.2495 C.3       1 MOL     0.1268
     19 C         -63.3692  -64.2425    9.3168 C.3       1 MOL     0.1265
     20 C         -65.3177  -64.8421   10.7946 C.3       1 MOL     0.1265
     21 C         -66.2769  -64.3950    9.6520 C.3       1 MOL     0.1268
     22 C         -63.1639  -64.4681   11.7767 C.2       1 MOL     0.2187
     23 C         -61.6834  -64.4812   11.6157 C.3       1 MOL     0.0752
     24 C         -61.1935  -65.8955   11.5772 C.3       1 MOL     0.0134
     25 C         -60.9506  -65.0333   12.7851 C.3       1 MOL     0.0134
     26 C         -68.4225  -65.5705    6.9708 C.ar      1 MOL     0.1355
     27 C         -69.6190  -66.2890    7.0212 C.ar      1 MOL     0.0392
     28 C         -69.6432  -67.5755    7.5690 C.ar      1 MOL     0.0066
     29 O         -68.6680  -73.1322    4.4610 O.2       1 MOL    -0.2658
     30 O         -63.6610  -64.5730   12.9106 O.2       1 MOL    -0.2753
     31 O         -65.2844  -65.6247    6.3879 O.2       1 MOL    -0.2699
     32 F         -68.4144  -64.3318    6.4312 F         1 MOL    -0.2047
     33 H         -71.0470  -73.6222    5.2489 H         1 MOL     0.0625
     34 H         -73.0137  -73.2524    6.7041 H         1 MOL     0.0618
     35 H         -72.8987  -71.6123    8.5540 H         1 MOL     0.0618
     36 H         -70.8197  -70.3496    8.9654 H         1 MOL     0.0624
     37 H         -67.4882  -69.6480    9.1831 H         1 MOL     0.0377
     38 H         -69.3000  -69.6229    9.3276 H         1 MOL     0.0377
     39 H         -66.3624  -67.8476    8.4271 H         1 MOL     0.0629
     40 H         -64.6609  -62.6978    8.3733 H         1 MOL     0.0480
     41 H         -63.9938  -63.9109    7.2222 H         1 MOL     0.0480
     42 H         -62.4752  -63.5808    9.3391 H         1 MOL     0.0480
     43 H         -63.0347  -65.2674    9.0223 H         1 MOL     0.0480
     44 H         -65.7091  -64.5719   11.8006 H         1 MOL     0.0480
     45 H         -65.2498  -65.9587   10.7532 H         1 MOL     0.0480
     46 H         -66.5440  -63.3184    9.7785 H         1 MOL     0.0480
     47 H         -67.2179  -64.9882    9.6713 H         1 MOL     0.0480
     48 H         -61.2673  -63.7631   10.9581 H         1 MOL     0.0394
     49 H         -60.3223  -66.1246   10.9773 H         1 MOL     0.0273
     50 H         -61.9173  -66.6937   11.7053 H         1 MOL     0.0273
     51 H         -59.9400  -64.6822   12.9499 H         1 MOL     0.0273
     52 H         -61.5498  -65.2520   13.6644 H         1 MOL     0.0273
     53 H         -70.5281  -65.8516    6.6290 H         1 MOL     0.0646
     54 H         -70.5680  -68.1311    7.6017 H         1 MOL     0.0621
     55 H         -66.6483  -71.8839    5.2446 H         1 MOL     0.1921
@<TRIPOS>BOND
     1    1   18 1 
     2    1   21 1 
     3    1   17 am
     4    2   20 1 
     5    2   22 am
     6    2   19 1 
     7    3    4 ar
     8    3   12 ar
     9    4   55 1 
    10    4    5 ar
    11    5    6 ar
    12    5   29 2 
    13    6    7 ar
    14    6   11 ar
    15    7    8 ar
    16    7   33 1 
    17    8    9 ar
    18    8   34 1 
    19    9   10 ar
    20    9   35 1 
    21   10   11 ar
    22   10   36 1 
    23   11   12 ar
    24   12   13 1 
    25   13   14 1 
    26   13   37 1 
    27   13   38 1 
    28   14   15 ar
    29   14   28 ar
    30   15   16 ar
    31   15   39 1 
    32   16   17 1 
    33   16   26 ar
    34   17   31 2 
    35   18   19 1 
    36   18   40 1 
    37   18   41 1 
    38   19   42 1 
    39   19   43 1 
    40   20   21 1 
    41   20   44 1 
    42   20   45 1 
    43   21   46 1 
    44   21   47 1 
    45   22   23 1 
    46   22   30 2 
    47   23   24 1 
    48   23   25 1 
    49   23   48 1 
    50   24   25 1 
    51   24   49 1 
    52   24   50 1 
    53   25   51 1 
    54   25   52 1 
    55   26   27 ar
    56   26   32 1 
    57   27   28 ar
    58   27   53 1 
    59   28   54 1 
@<TRIPOS>SUBSTRUCTURE
1 MOL         1
@<TRIPOS>MOLECULE
query molecule
   55    59     1     0     0
SMALL
NO_CHARGE

@<TRIPOS>ATOM
      1 N         -29.7908  -65.0619  -20.5554 N.am      1 MOL    -0.2945
      2 N         -30.0332  -62.2029  -20.3300 N.am      1 MOL    -0.2983
      3 N         -22.9938  -66.5333  -21.8379 N.ar      1 MOL    -0.1750
      4 N         -22.0735  -65.5801  -21.7327 N.ar      1 MOL    -0.2425
      5 C         -22.2525  -64.3270  -22.3546 C.ar      1 MOL     0.2725
      6 C         -23.4382  -64.1153  -23.0859 C.ar      1 MOL     0.0496
      7 C         -23.6737  -62.8893  -23.7096 C.ar      1 MOL     0.0138
      8 C         -24.8654  -62.6775  -24.3987 C.ar      1 MOL     0.0008
      9 C         -25.8163  -63.6928  -24.4905 C.ar      1 MOL     0.0007
     10 C         -25.5843  -64.9252  -23.8823 C.ar      1 MOL     0.0103
     11 C         -24.4034  -65.1568  -23.1637 C.ar      1 MOL     0.0106
     12 C         -24.1695  -66.3782  -22.5124 C.ar      1 MOL     0.0736
     13 C         -25.1698  -67.4900  -22.5421 C.3       1 MOL     0.0925
     14 C         -26.0442  -67.4785  -21.3359 C.ar      1 MOL    -0.0406
     15 C         -27.3067  -66.8599  -21.3513 C.ar      1 MOL     0.0196
     16 C         -28.1342  -66.8798  -20.2197 C.ar      1 MOL     0.0723
     17 C         -29.5045  -66.3264  -20.1874 C.2       1 MOL     0.2495
     18 C         -31.0604  -64.4791  -20.1054 C.3       1 MOL     0.1268
     19 C         -30.8691  -63.0574  -19.4992 C.3       1 MOL     0.1265
     20 C         -28.8219  -62.7954  -20.8882 C.3       1 MOL     0.1265
     21 C         -29.0108  -64.2314  -21.4441 C.3       1 MOL     0.1268
     22 C         -30.0868  -60.8375  -20.3232 C.2       1 MOL     0.2187
     23 C         -31.1515  -60.1544  -19.5410 C.3       1 MOL     0.0752
     24 C         -30.6656  -58.8745  -18.9384 C.3       1 MOL     0.0134
     25 C         -30.8281  -60.0934  -18.0835 C.3       1 MOL     0.0134
     26 C         -27.6519  -67.5050  -19.0555 C.ar      1 MOL     0.1355
     27 C         -26.4040  -68.1242  -19.0275 C.ar      1 MOL     0.0392
     28 C         -25.6021  -68.1166  -20.1687 C.ar      1 MOL     0.0066
     29 O         -21.3642  -63.4728  -22.2168 O.2       1 MOL    -0.2658
     30 O         -29.2892  -60.1377  -20.9716 O.2       1 MOL    -0.2753
     31 O         -30.3635  -67.0833  -19.7066 O.2       1 MOL    -0.2699
     32 F         -28.4031  -67.5244  -17.9266 F         1 MOL    -0.2047
     33 H         -22.9352  -62.1037  -23.6432 H         1 MOL     0.0625
     34 H         -25.0516  -61.7212  -24.8599 H         1 MOL     0.0618
     35 H         -26.7326  -63.5266  -25.0356 H         1 MOL     0.0618
     36 H         -26.3218  -65.7123  -23.9601 H         1 MOL     0.0624
     37 H         -24.6210  -68.4500  -22.5759 H         1 MOL     0.0377
     38 H         -25.7975  -67.3744  -23.4438 H         1 MOL     0.0377
     39 H         -27.6442  -66.3719  -22.2561 H         1 MOL     0.0629
     40 H         -31.5314  -65.1604  -19.3603 H         1 MOL     0.0480
     41 H         -31.7388  -64.4150  -20.9895 H         1 MOL     0.0480
     42 H         -30.3574  -63.1625  -18.5076 H         1 MOL     0.0480
     43 H         -31.8455  -62.5547  -19.3160 H         1 MOL     0.0480
     44 H         -28.0727  -62.8552  -20.0609 H         1 MOL     0.0480
     45 H         -28.4111  -62.1176  -21.6698 H         1 MOL     0.0480
     46 H         -28.0231  -64.7166  -21.6207 H         1 MOL     0.0480
     47 H         -29.5486  -64.1808  -22.4219 H         1 MOL     0.0480
     48 H         -32.1388  -60.2475  -19.9106 H         1 MOL     0.0394
     49 H         -31.3923  -58.0837  -18.8034 H         1 MOL     0.0273
     50 H         -29.6535  -58.5809  -19.1885 H         1 MOL     0.0273
     51 H         -31.6609  -60.0790  -17.3911 H         1 MOL     0.0273
     52 H         -29.9244  -60.6037  -17.7744 H         1 MOL     0.0273
     53 H         -26.0629  -68.6130  -18.1280 H         1 MOL     0.0646
     54 H         -24.6374  -68.6038  -20.1527 H         1 MOL     0.0621
     55 H         -21.2221  -65.7077  -21.2140 H         1 MOL     0.1921
@<TRIPOS>BOND
     1    1   18 1 
     2    1   21 1 
     3    1   17 am
     4    2   20 1 
     5    2   22 am
     6    2   19 1 
     7    3    4 ar
     8    3   12 ar
     9    4   55 1 
    10    4    5 ar
    11    5    6 ar
    12    5   29 2 
    13    6    7 ar
    14    6   11 ar
    15    7    8 ar
    16    7   33 1 
    17    8    9 ar
    18    8   34 1 
    19    9   10 ar
    20    9   35 1 
    21   10   11 ar
    22   10   36 1 
    23   11   12 ar
    24   12   13 1 
    25   13   14 1 
    26   13   37 1 
    27   13   38 1 
    28   14   15 ar
    29   14   28 ar
    30   15   16 ar
    31   15   39 1 
    32   16   17 1 
    33   16   26 ar
    34   17   31 2 
    35   18   19 1 
    36   18   40 1 
    37   18   41 1 
    38   19   42 1 
    39   19   43 1 
    40   20   21 1 
    41   20   44 1 
    42   20   45 1 
    43   21   46 1 
    44   21   47 1 
    45   22   23 1 
    46   22   30 2 
    47   23   24 1 
    48   23   25 1 
    49   23   48 1 
    50   24   25 1 
    51   24   49 1 
    52   24   50 1 
    53   25   51 1 
    54   25   52 1 
    55   26   27 ar
    56   26   32 1 
    57   27   28 ar
    58   27   53 1 
    59   28   54 1 
@<TRIPOS>SUBSTRUCTURE
1 MOL         1
@<TRIPOS>MOLECULE
query molecule
   55    59     1     0     0
SMALL
NO_CHARGE

@<TRIPOS>ATOM
      1 N         -66.2795  -48.4353  -23.2320 N.am      1 MOL    -0.2945
      2 N         -66.6241  -45.8946  -24.5372 N.am      1 MOL    -0.2983
      3 N         -62.4857  -48.3102  -25.7700 N.ar      1 MOL    -0.1750
      4 N         -62.6721  -47.3809  -26.6937 N.ar      1 MOL    -0.2425
      5 C         -62.2166  -47.6044  -28.0104 C.ar      1 MOL     0.2725
      6 C         -61.5549  -48.8202  -28.2945 C.ar      1 MOL     0.0496
      7 C         -61.0684  -49.0876  -29.5774 C.ar      1 MOL     0.0138
      8 C         -60.4054  -50.2866  -29.8430 C.ar      1 MOL     0.0008
      9 C         -60.2267  -51.2300  -28.8300 C.ar      1 MOL     0.0007
     10 C         -60.7104  -50.9748  -27.5466 C.ar      1 MOL     0.0103
     11 C         -61.3724  -49.7731  -27.2493 C.ar      1 MOL     0.0106
     12 C         -61.8240  -49.4869  -25.9494 C.ar      1 MOL     0.0736
     13 C         -61.5499  -50.4053  -24.7947 C.3       1 MOL     0.0925
     14 C         -62.7896  -50.9061  -24.1634 C.ar      1 MOL    -0.0406
     15 C         -63.6717  -50.0190  -23.5417 C.ar      1 MOL     0.0196
     16 C         -64.8941  -50.4647  -23.0352 C.ar      1 MOL     0.0723
     17 C         -65.9012  -49.5205  -22.5109 C.2       1 MOL     0.2495
     18 C         -67.1790  -47.4497  -22.6406 C.3       1 MOL     0.1268
     19 C         -66.9281  -45.9863  -23.1216 C.3       1 MOL     0.1265
     20 C         -65.6682  -46.8583  -25.0725 C.3       1 MOL     0.1265
     21 C         -65.9833  -48.3063  -24.6467 C.3       1 MOL     0.1268
     22 C         -66.8858  -44.8189  -25.3344 C.2       1 MOL     0.2187
     23 C         -67.5565  -43.6285  -24.7551 C.3       1 MOL     0.0752
     24 C         -67.0883  -42.3777  -25.4305 C.3       1 MOL     0.0134
     25 C         -66.6010  -42.7226  -24.0538 C.3       1 MOL     0.0134
     26 C         -65.1777  -51.8338  -23.0548 C.ar      1 MOL     0.1355
     27 C         -64.2891  -52.7353  -23.6422 C.ar      1 MOL     0.0392
     28 C         -63.0950  -52.2711  -24.2036 C.ar      1 MOL     0.0066
     29 O         -62.4199  -46.7139  -28.8518 O.2       1 MOL    -0.2658
     30 O         -66.5969  -44.8112  -26.5439 O.2       1 MOL    -0.2753
     31 O         -66.3481  -49.7924  -21.3983 O.2       1 MOL    -0.2699
     32 F         -66.3352  -52.2967  -22.5216 F         1 MOL    -0.2047
     33 H         -61.2038  -48.3610  -30.3658 H         1 MOL     0.0625
     34 H         -60.0283  -50.4852  -30.8354 H         1 MOL     0.0618
     35 H         -59.7092  -52.1553  -29.0385 H         1 MOL     0.0618
     36 H         -60.5580  -51.7076  -26.7655 H         1 MOL     0.0624
     37 H         -60.9562  -49.8599  -24.0381 H         1 MOL     0.0377
     38 H         -60.9732  -51.2745  -25.1697 H         1 MOL     0.0377
     39 H         -63.4116  -48.9701  -23.4878 H         1 MOL     0.0629
     40 H         -67.1168  -47.5296  -21.5313 H         1 MOL     0.0480
     41 H         -68.2240  -47.7215  -22.9346 H         1 MOL     0.0480
     42 H         -66.0764  -45.5353  -22.5595 H         1 MOL     0.0480
     43 H         -67.8322  -45.3657  -22.9140 H         1 MOL     0.0480
     44 H         -64.6501  -46.5674  -24.7164 H         1 MOL     0.0480
     45 H         -65.6752  -46.7772  -26.1834 H         1 MOL     0.0480
     46 H         -65.1287  -48.9808  -24.8886 H         1 MOL     0.0480
     47 H         -66.8685  -48.6590  -25.2239 H         1 MOL     0.0480
     48 H         -68.5592  -43.7474  -24.4430 H         1 MOL     0.0394
     49 H         -67.8023  -41.5717  -25.5300 H         1 MOL     0.0273
     50 H         -66.3754  -42.5085  -26.2384 H         1 MOL     0.0273
     51 H         -66.9935  -42.1133  -23.2477 H         1 MOL     0.0273
     52 H         -65.5752  -43.0599  -23.9739 H         1 MOL     0.0273
     53 H         -64.5331  -53.7868  -23.6729 H         1 MOL     0.0646
     54 H         -62.4155  -52.9667  -24.6732 H         1 MOL     0.0621
     55 H         -63.1199  -46.5003  -26.5160 H         1 MOL     0.1921
@<TRIPOS>BOND
     1    1   18 1 
     2    1   21 1 
     3    1   17 am
     4    2   20 1 
     5    2   22 am
     6    2   19 1 
     7    3    4 ar
     8    3   12 ar
     9    4   55 1 
    10    4    5 ar
    11    5    6 ar
    12    5   29 2 
    13    6    7 ar
    14    6   11 ar
    15    7    8 ar
    16    7   33 1 
    17    8    9 ar
    18    8   34 1 
    19    9   10 ar
    20    9   35 1 
    21   10   11 ar
    22   10   36 1 
    23   11   12 ar
    24   12   13 1 
    25   13   14 1 
    26   13   37 1 
    27   13   38 1 
    28   14   15 ar
    29   14   28 ar
    30   15   16 ar
    31   15   39 1 
    32   16   17 1 
    33   16   26 ar
    34   17   31 2 
    35   18   19 1 
    36   18   40 1 
    37   18   41 1 
    38   19   42 1 
    39   19   43 1 
    40   20   21 1 
    41   20   44 1 
    42   20   45 1 
    43   21   46 1 
    44   21   47 1 
    45   22   23 1 
    46   22   30 2 
    47   23   24 1 
    48   23   25 1 
    49   23   48 1 
    50   24   25 1 
    51   24   49 1 
    52   24   50 1 
    53   25   51 1 
    54   25   52 1 
    55   26   27 ar
    56   26   32 1 
    57   27   28 ar
    58   27   53 1 
    59   28   54 1 
@<TRIPOS>SUBSTRUCTURE
1 MOL         1
@<TRIPOS>MOLECULE
query molecule
   55    59     1     0     0
SMALL
NO_CHARGE

@<TRIPOS>ATOM
      1 N         -16.6483  -74.9306    7.8281 N.am      1 MOL    -0.2945
      2 N         -15.2773  -75.5209   10.2852 N.am      1 MOL    -0.2983
      3 N         -22.6513  -75.7733    3.9981 N.ar      1 MOL    -0.1750
      4 N         -23.2492  -74.8940    3.2130 N.ar      1 MOL    -0.2425
      5 C         -24.0012  -73.8210    3.7378 C.ar      1 MOL     0.2725
      6 C         -24.1422  -73.7359    5.1368 C.ar      1 MOL     0.0496
      7 C         -24.8925  -72.7300    5.7401 C.ar      1 MOL     0.0138
      8 C         -25.0398  -72.6812    7.1282 C.ar      1 MOL     0.0008
      9 C         -24.4243  -73.6423    7.9311 C.ar      1 MOL     0.0007
     10 C         -23.6539  -74.6451    7.3426 C.ar      1 MOL     0.0103
     11 C         -23.4990  -74.7140    5.9504 C.ar      1 MOL     0.0106
     12 C         -22.7311  -75.7250    5.3546 C.ar      1 MOL     0.0736
     13 C         -22.0103  -76.7659    6.1399 C.3       1 MOL     0.0925
     14 C         -20.5481  -76.7258    5.8902 C.ar      1 MOL    -0.0406
     15 C         -19.7654  -75.7096    6.4444 C.ar      1 MOL     0.0196
     16 C         -18.3770  -75.6757    6.2360 C.ar      1 MOL     0.0723
     17 C         -17.6188  -74.6013    6.9326 C.2       1 MOL     0.2495
     18 C         -15.8967  -73.8698    8.4984 C.3       1 MOL     0.1268
     19 C         -15.6570  -74.1488   10.0149 C.3       1 MOL     0.1265
     20 C         -16.0846  -76.5556    9.6374 C.3       1 MOL     0.1265
     21 C         -16.2650  -76.3013    8.1250 C.3       1 MOL     0.1268
     22 C         -14.4784  -75.9592   11.2925 C.2       1 MOL     0.2187
     23 C         -13.9486  -75.0256   12.3010 C.3       1 MOL     0.0752
     24 C         -14.4338  -75.4941   13.6450 C.3       1 MOL     0.0134
     25 C         -14.9468  -74.2222   13.0502 C.3       1 MOL     0.0134
     26 C         -17.8037  -76.6580    5.4196 C.ar      1 MOL     0.1355
     27 C         -18.5745  -77.6864    4.8673 C.ar      1 MOL     0.0392
     28 C         -19.9485  -77.7237    5.1120 C.ar      1 MOL     0.0066
     29 O         -24.4671  -73.0098    2.9267 O.2       1 MOL    -0.2658
     30 O         -14.1438  -77.1556   11.3917 O.2       1 MOL    -0.2753
     31 O         -17.9489  -73.4285    6.6959 O.2       1 MOL    -0.2699
     32 F         -16.4755  -76.6324    5.1451 F         1 MOL    -0.2047
     33 H         -25.3700  -71.9856    5.1211 H         1 MOL     0.0625
     34 H         -25.6333  -71.8995    7.5793 H         1 MOL     0.0618
     35 H         -24.5430  -73.6164    9.0045 H         1 MOL     0.0618
     36 H         -23.1673  -75.3873    7.9599 H         1 MOL     0.0624
     37 H         -22.3884  -77.7570    5.8306 H         1 MOL     0.0377
     38 H         -22.1964  -76.5932    7.2123 H         1 MOL     0.0377
     39 H         -20.2309  -74.9482    7.0534 H         1 MOL     0.0629
     40 H         -16.4432  -72.9073    8.3708 H         1 MOL     0.0480
     41 H         -14.9123  -73.7678    7.9826 H         1 MOL     0.0480
     42 H         -16.6026  -73.9465   10.5770 H         1 MOL     0.0480
     43 H         -14.8726  -73.4692   10.4191 H         1 MOL     0.0480
     44 H         -17.0818  -76.5780   10.1399 H         1 MOL     0.0480
     45 H         -15.6029  -77.5459    9.8079 H         1 MOL     0.0480
     46 H         -17.0507  -76.9868    7.7266 H         1 MOL     0.0480
     47 H         -15.3134  -76.5242    7.5874 H         1 MOL     0.0480
     48 H         -12.9356  -74.7373   12.1882 H         1 MOL     0.0394
     49 H         -13.7403  -75.4003   14.4701 H         1 MOL     0.0273
     50 H         -15.1376  -76.3177   13.6425 H         1 MOL     0.0273
     51 H         -14.5672  -73.3091   13.4925 H         1 MOL     0.0273
     52 H         -15.9458  -74.2208   12.6393 H         1 MOL     0.0273
     53 H         -18.1083  -78.4463    4.2489 H         1 MOL     0.0646
     54 H         -20.5468  -78.5191    4.6944 H         1 MOL     0.0621
     55 H         -23.1973  -74.9360    2.2090 H         1 MOL     0.1921
@<TRIPOS>BOND
     1    1   18 1 
     2    1   21 1 
     3    1   17 am
     4    2   20 1 
     5    2   22 am
     6    2   19 1 
     7    3    4 ar
     8    3   12 ar
     9    4   55 1 
    10    4    5 ar
    11    5    6 ar
    12    5   29 2 
    13    6    7 ar
    14    6   11 ar
    15    7    8 ar
    16    7   33 1 
    17    8    9 ar
    18    8   34 1 
    19    9   10 ar
    20    9   35 1 
    21   10   11 ar
    22   10   36 1 
    23   11   12 ar
    24   12   13 1 
    25   13   14 1 
    26   13   37 1 
    27   13   38 1 
    28   14   15 ar
    29   14   28 ar
    30   15   16 ar
    31   15   39 1 
    32   16   17 1 
    33   16   26 ar
    34   17   31 2 
    35   18   19 1 
    36   18   40 1 
    37   18   41 1 
    38   19   42 1 
    39   19   43 1 
    40   20   21 1 
    41   20   44 1 
    42   20   45 1 
    43   21   46 1 
    44   21   47 1 
    45   22   23 1 
    46   22   30 2 
    47   23   24 1 
    48   23   25 1 
    49   23   48 1 
    50   24   25 1 
    51   24   49 1 
    52   24   50 1 
    53   25   51 1 
    54   25   52 1 
    55   26   27 ar
    56   26   32 1 
    57   27   28 ar
    58   27   53 1 
    59   28   54 1 
@<TRIPOS>SUBSTRUCTURE
1 MOL         1
@<TRIPOS>MOLECULE
query molecule
   55    59     1     0     0
SMALL
NO_CHARGE

@<TRIPOS>ATOM
      1 N         -66.1487  -67.7833  -11.9472 N.am      1 MOL    -0.2945
      2 N         -65.4427  -69.6515   -9.9488 N.am      1 MOL    -0.2983
      3 N         -64.0524  -61.3562  -16.1403 N.ar      1 MOL    -0.1750
      4 N         -63.2986  -60.3284  -16.5249 N.ar      1 MOL    -0.2425
      5 C         -62.1146  -60.5300  -17.2676 C.ar      1 MOL     0.2725
      6 C         -61.7411  -61.8425  -17.6161 C.ar      1 MOL     0.0496
      7 C         -60.5482  -62.0999  -18.2989 C.ar      1 MOL     0.0138
      8 C         -60.1926  -63.4055  -18.6346 C.ar      1 MOL     0.0008
      9 C         -61.0376  -64.4650  -18.3027 C.ar      1 MOL     0.0007
     10 C         -62.2340  -64.2160  -17.6305 C.ar      1 MOL     0.0103
     11 C         -62.6041  -62.9131  -17.2509 C.ar      1 MOL     0.0106
     12 C         -63.7793  -62.6433  -16.5170 C.ar      1 MOL     0.0736
     13 C         -64.7452  -63.7154  -16.1293 C.3       1 MOL     0.0925
     14 C         -64.3539  -64.5045  -14.9380 C.ar      1 MOL    -0.0406
     15 C         -65.3663  -65.0713  -14.1496 C.ar      1 MOL     0.0196
     16 C         -65.0491  -65.8743  -13.0400 C.ar      1 MOL     0.0723
     17 C         -66.1614  -66.4806  -12.2825 C.2       1 MOL     0.2495
     18 C         -67.2286  -68.3601  -11.1545 C.3       1 MOL     0.1268
     19 C         -66.6587  -68.8549   -9.7928 C.3       1 MOL     0.1265
     20 C         -64.4684  -69.2694  -10.9742 C.3       1 MOL     0.1265
     21 C         -65.1464  -68.7709  -12.2870 C.3       1 MOL     0.1268
     22 C         -64.9985  -70.5034   -8.9732 C.2       1 MOL     0.2187
     23 C         -65.8832  -70.7419   -7.8026 C.3       1 MOL     0.0752
     24 C         -65.3335  -71.7624   -6.8681 C.3       1 MOL     0.0134
     25 C         -66.4617  -72.1119   -7.8006 C.3       1 MOL     0.0134
     26 C         -63.7104  -66.0459  -12.7182 C.ar      1 MOL     0.1355
     27 C         -62.6960  -65.5067  -13.5005 C.ar      1 MOL     0.0392
     28 C         -63.0203  -64.7347  -14.5955 C.ar      1 MOL     0.0066
     29 O         -61.4573  -59.5310  -17.5826 O.2       1 MOL    -0.2658
     30 O         -63.8892  -71.0579   -9.0363 O.2       1 MOL    -0.2753
     31 O         -67.0937  -65.7198  -11.9899 O.2       1 MOL    -0.2699
     32 F         -63.3521  -66.7336  -11.6133 F         1 MOL    -0.2047
     33 H         -59.8969  -61.2820  -18.5706 H         1 MOL     0.0625
     34 H         -59.2670  -63.6003  -19.1547 H         1 MOL     0.0618
     35 H         -60.7664  -65.4776  -18.5649 H         1 MOL     0.0618
     36 H         -62.8811  -65.0477  -17.3810 H         1 MOL     0.0624
     37 H         -64.8498  -64.4155  -16.9823 H         1 MOL     0.0377
     38 H         -65.7230  -63.2386  -15.9174 H         1 MOL     0.0377
     39 H         -66.4034  -64.9006  -14.4029 H         1 MOL     0.0629
     40 H         -67.6350  -69.2331  -11.7252 H         1 MOL     0.0480
     41 H         -68.0490  -67.6243  -11.0273 H         1 MOL     0.0480
     42 H         -67.4175  -69.4484   -9.2353 H         1 MOL     0.0480
     43 H         -66.4031  -67.9563   -9.1786 H         1 MOL     0.0480
     44 H         -63.7721  -70.1147  -11.1639 H         1 MOL     0.0480
     45 H         -63.8677  -68.4170  -10.5643 H         1 MOL     0.0480
     46 H         -65.6470  -69.6166  -12.8141 H         1 MOL     0.0480
     47 H         -64.4030  -68.3213  -12.9821 H         1 MOL     0.0480
     48 H         -66.4351  -69.9070   -7.4517 H         1 MOL     0.0394
     49 H         -65.5835  -71.6631   -5.8199 H         1 MOL     0.0273
     50 H         -64.3528  -72.1538   -7.1126 H         1 MOL     0.0273
     51 H         -67.4363  -72.2392   -7.3451 H         1 MOL     0.0273
     52 H         -66.2270  -72.7345   -8.6551 H         1 MOL     0.0273
     53 H         -61.6625  -65.6812  -13.2415 H         1 MOL     0.0646
     54 H         -62.2316  -64.3075  -15.1988 H         1 MOL     0.0621
     55 H         -63.5311  -59.3705  -16.3151 H         1 MOL     0.1921
@<TRIPOS>BOND
     1    1   18 1 
     2    1   21 1 
     3    1   17 am
     4    2   20 1 
     5    2   22 am
     6    2   19 1 
     7    3    4 ar
     8    3   12 ar
     9    4   55 1 
    10    4    5 ar
    11    5    6 ar
    12    5   29 2 
    13    6    7 ar
    14    6   11 ar
    15    7    8 ar
    16    7   33 1 
    17    8    9 ar
    18    8   34 1 
    19    9   10 ar
    20    9   35 1 
    21   10   11 ar
    22   10   36 1 
    23   11   12 ar
    24   12   13 1 
    25   13   14 1 
    26   13   37 1 
    27   13   38 1 
    28   14   15 ar
    29   14   28 ar
    30   15   16 ar
    31   15   39 1 
    32   16   17 1 
    33   16   26 ar
    34   17   31 2 
    35   18   19 1 
    36   18   40 1 
    37   18   41 1 
    38   19   42 1 
    39   19   43 1 
    40   20   21 1 
    41   20   44 1 
    42   20   45 1 
    43   21   46 1 
    44   21   47 1 
    45   22   23 1 
    46   22   30 2 
    47   23   24 1 
    48   23   25 1 
    49   23   48 1 
    50   24   25 1 
    51   24   49 1 
    52   24   50 1 
    53   25   51 1 
    54   25   52 1 
    55   26   27 ar
    56   26   32 1 
    57   27   28 ar
    58   27   53 1 
    59   28   54 1 
@<TRIPOS>SUBSTRUCTURE
1 MOL         1
