@<TRIPOS>MOLECULE
test_output/ligand_structures/olaparib.pdb
 55 59 0 0 0
SMALL
GASTEIGER

@<TRIPOS>ATOM
      1  N         -2.0560   -1.1080    0.5660 N.am    1  UNL1       -0.2945
      2  N         -4.4580   -0.6950   -0.3330 N.am    1  UNL1       -0.2983
      3  N          4.1830   -1.9090    0.6960 N.ar    1  UNL1       -0.1750
      4  N          4.9940   -2.0200    1.7200 N.ar    1  UNL1       -0.2425
      5  C          5.9920   -1.1590    1.9640 C.ar    1  UNL1        0.2725
      6  C          6.1820   -0.1010    1.0990 C.ar    1  UNL1        0.0496
      7  C          7.2180    0.8130    1.2950 C.ar    1  UNL1       -0.0487
      8  C          7.4020    1.8500    0.4060 C.ar    1  UNL1       -0.0610
      9  C          6.5270    1.9250   -0.6570 C.ar    1  UNL1       -0.0611
     10  C          5.4950    1.0250   -0.8640 C.ar    1  UNL1       -0.0521
     11  C          5.3200    0.0040    0.0230 C.ar    1  UNL1        0.0106
     12  C          4.3060   -0.8870   -0.2060 C.ar    1  UNL1        0.0736
     13  C          3.3010   -0.8410   -1.2600 C.3     1  UNL1        0.0171
     14  C          2.1610    0.0290   -0.8590 C.ar    1  UNL1       -0.0406
     15  C          1.1860   -0.5840   -0.0520 C.ar    1  UNL1       -0.0433
     16  C          0.0900    0.1350    0.3610 C.ar    1  UNL1        0.0723
     17  C         -0.9550   -0.4830    1.2080 C.2     1  UNL1        0.2495
     18  C         -3.0810   -1.7190    1.3490 C.3     1  UNL1        0.0308
     19  C         -4.4150   -1.7600    0.6350 C.3     1  UNL1        0.0305
     20  C         -3.4730   -0.7430   -1.4190 C.3     1  UNL1        0.0305
     21  C         -2.1130   -1.1110   -0.8840 C.3     1  UNL1        0.0308
     22  C         -5.3860    0.3480   -0.2610 C.2     1  UNL1        0.2187
     23  C         -6.4160    0.5420    0.7630 C.3     1  UNL1        0.0358
     24  C         -7.7780    0.9710    0.2660 C.3     1  UNL1       -0.0412
     25  C         -6.9600    1.8940    1.0560 C.3     1  UNL1       -0.0412
     26  C         -0.1180    1.4520    0.0260 C.ar    1  UNL1        0.1355
     27  C          0.8370    2.0510   -0.7640 C.ar    1  UNL1       -0.0254
     28  C          1.9560    1.3200   -1.1880 C.ar    1  UNL1       -0.0555
     29  O          6.7790   -1.2480    2.9410 O.2     1  UNL1       -0.2658
     30  O         -5.3480    1.2420   -1.1800 O.2     1  UNL1       -0.2753
     31  O         -0.8950   -0.4700    2.4590 O.2     1  UNL1       -0.2699
     32  F         -1.2240    2.1230    0.4610 F       1  UNL1       -0.2047
     33  H          7.8470    0.7130    2.1070 H       1  UNL1        0.0625
     34  H          8.1600    2.5380    0.5300 H       1  UNL1        0.0618
     35  H          6.6480    2.6930   -1.3350 H       1  UNL1        0.0618
     36  H          4.8670    1.1250   -1.6770 H       1  UNL1        0.0624
     37  H          2.9400   -1.8310   -1.4460 H       1  UNL1        0.0377
     38  H          3.7470   -0.4370   -2.1450 H       1  UNL1        0.0377
     39  H          1.2930   -1.5710    0.2290 H       1  UNL1        0.0629
     40  H         -3.1950   -1.1640    2.2570 H       1  UNL1        0.0480
     41  H         -2.7840   -2.7300    1.5380 H       1  UNL1        0.0480
     42  H         -5.2060   -1.6340    1.3440 H       1  UNL1        0.0480
     43  H         -4.5340   -2.7030    0.1430 H       1  UNL1        0.0480
     44  H         -3.4180    0.2170   -1.8880 H       1  UNL1        0.0480
     45  H         -3.7760   -1.4840   -2.1290 H       1  UNL1        0.0480
     46  H         -1.3980   -0.4060   -1.2540 H       1  UNL1        0.0480
     47  H         -1.8980   -2.1060   -1.2110 H       1  UNL1        0.0480
     48  H         -6.0040   -0.2350    1.3720 H       1  UNL1        0.0394
     49  H         -8.6620    0.5420    0.6900 H       1  UNL1        0.0273
     50  H         -8.2570    1.0110   -0.6900 H       1  UNL1        0.0273
     51  H         -7.2550    2.1430    2.0540 H       1  UNL1        0.0273
     52  H         -6.6040    2.8910    0.9060 H       1  UNL1        0.0273
     53  H          0.7290    3.0390   -1.0440 H       1  UNL1        0.0646
     54  H          2.6570    1.7930   -1.7800 H       1  UNL1        0.0621
     55  H          4.8630   -2.7730    2.3410 H       1  UNL1        0.1921
@<TRIPOS>BOND
     1     1    18    1
     2     1    21    1
     3     1    17   am
     4     2    20    1
     5     2    22   am
     6     2    19    1
     7     3     4   ar
     8     3    12   ar
     9     4    55    1
    10     4     5   ar
    11     5     6   ar
    12     5    29    2
    13     6     7   ar
    14     6    11   ar
    15     7     8   ar
    16     7    33    1
    17     8     9   ar
    18     8    34    1
    19     9    10   ar
    20     9    35    1
    21    10    11   ar
    22    10    36    1
    23    11    12   ar
    24    12    13    1
    25    13    14    1
    26    13    37    1
    27    13    38    1
    28    14    15   ar
    29    14    28   ar
    30    15    16   ar
    31    15    39    1
    32    16    17    1
    33    16    26   ar
    34    17    31    2
    35    18    19    1
    36    18    40    1
    37    18    41    1
    38    19    42    1
    39    19    43    1
    40    20    21    1
    41    20    44    1
    42    20    45    1
    43    21    46    1
    44    21    47    1
    45    22    23    1
    46    22    30    2
    47    23    24    1
    48    23    25    1
    49    23    48    1
    50    24    25    1
    51    24    49    1
    52    24    50    1
    53    25    51    1
    54    25    52    1
    55    26    27   ar
    56    26    32    1
    57    27    28   ar
    58    27    53    1
    59    28    54    1
