MODEL 1
REMARK VINA RESULT:     -10.5      0.000      0.000
REMARK  4 active torsions:
REMARK  status: ('A' for Active; 'I' for Inactive)
REMARK       I    between atoms: N_1  and  C_17 
REMARK       I    between atoms: N_2  and  C_22 
REMARK    1  A    between atoms: C_12  and  C_13 
REMARK    2  A    between atoms: C_13  and  C_14 
REMARK    3  A    between atoms: C_16  and  C_17 
REMARK    4  A    between atoms: C_22  and  C_23 
ROOT
HETATM    1  C   UNL     1     -39.830 -56.888   4.991  1.00  0.00    -0.051 A 
HETATM    2  C   UNL     1     -40.619 -57.973   4.570  1.00  0.00     0.027 A 
HETATM    3  C   UNL     1     -40.021 -59.169   4.249  1.00  0.00     0.071 A 
HETATM    4  C   UNL     1     -38.663 -59.375   4.316  1.00  0.00     0.132 A 
HETATM    5  C   UNL     1     -37.892 -58.312   4.728  1.00  0.00     0.044 A 
HETATM    6  C   UNL     1     -38.499 -57.091   5.057  1.00  0.00     0.010 A 
HETATM    7  F   UNL     1     -38.118 -60.582   3.987  1.00  0.00    -0.205 F 
ENDROOT
BRANCH   1   8
HETATM    8  C   UNL     1     -40.577 -55.644   5.325  1.00  0.00     0.100 C 
BRANCH   8   9
HETATM    9  C   UNL     1     -41.438 -55.858   6.481  1.00  0.00     0.070 A 
HETATM   10  N   UNL     1     -42.091 -57.059   6.529  1.00  0.00    -0.175 NA
HETATM   11  N   UNL     1     -42.936 -57.342   7.490  1.00  0.00    -0.243 N 
HETATM   12  H   UNL     1     -43.381 -58.220   7.479  1.00  0.00     0.192 HD
HETATM   13  C   UNL     1     -43.224 -56.495   8.488  1.00  0.00     0.272 A 
HETATM   14  C   UNL     1     -42.605 -55.262   8.512  1.00  0.00     0.046 A 
HETATM   15  O   UNL     1     -44.032 -56.747   9.419  1.00  0.00    -0.266 OA
HETATM   16  C   UNL     1     -42.853 -54.350   9.538  1.00  0.00     0.018 A 
HETATM   17  C   UNL     1     -41.716 -54.977   7.492  1.00  0.00     0.006 A 
HETATM   18  C   UNL     1     -42.207 -53.133   9.553  1.00  0.00     0.001 A 
HETATM   19  C   UNL     1     -41.325 -52.881   8.523  1.00  0.00     0.001 A 
HETATM   20  C   UNL     1     -41.069 -53.776   7.498  1.00  0.00     0.014 A 
ENDBRANCH   8   9
ENDBRANCH   1   8
BRANCH   3  21
HETATM   21  C   UNL     1     -40.824 -60.330   3.806  1.00  0.00     0.257 C 
HETATM   22  N   UNL     1     -41.083 -61.364   4.744  1.00  0.00    -0.345 N 
HETATM   23  C   UNL     1     -41.858 -62.498   4.355  1.00  0.00     0.146 C 
HETATM   24  C   UNL     1     -40.549 -61.242   6.088  1.00  0.00     0.146 C 
HETATM   25  C   UNL     1     -41.530 -63.734   5.165  1.00  0.00     0.145 C 
HETATM   26  N   UNL     1     -40.184 -63.621   5.663  1.00  0.00    -0.349 N 
HETATM   27  C   UNL     1     -39.906 -62.512   6.582  1.00  0.00     0.145 C 
HETATM   28  C   UNL     1     -39.172 -64.516   5.302  1.00  0.00     0.224 C 
HETATM   29  O   UNL     1     -38.009 -64.334   5.811  1.00  0.00    -0.273 OA
HETATM   30  O   UNL     1     -41.276 -60.425   2.642  1.00  0.00    -0.267 OA
BRANCH  28  31
HETATM   31  C   UNL     1     -39.289 -65.657   4.391  1.00  0.00     0.078 A 
HETATM   32  C   UNL     1     -39.248 -67.027   5.029  1.00  0.00     0.015 A 
HETATM   33  C   UNL     1     -38.147 -66.583   4.172  1.00  0.00     0.015 A 
ENDBRANCH  28  31
ENDBRANCH   3  21
TORSDOF 4
ENDMDL
MODEL 2
REMARK VINA RESULT:      -9.8     26.601     28.877
REMARK  4 active torsions:
REMARK  status: ('A' for Active; 'I' for Inactive)
REMARK       I    between atoms: N_1  and  C_17 
REMARK       I    between atoms: N_2  and  C_22 
REMARK    1  A    between atoms: C_12  and  C_13 
REMARK    2  A    between atoms: C_13  and  C_14 
REMARK    3  A    between atoms: C_16  and  C_17 
REMARK    4  A    between atoms: C_22  and  C_23 
ROOT
HETATM    1  C   UNL     1     -20.448 -43.123   2.158  1.00  0.00    -0.051 A 
HETATM    2  C   UNL     1     -19.231 -43.827   2.181  1.00  0.00     0.027 A 
HETATM    3  C   UNL     1     -18.579 -44.103   1.004  1.00  0.00     0.071 A 
HETATM    4  C   UNL     1     -19.055 -43.724  -0.229  1.00  0.00     0.132 A 
HETATM    5  C   UNL     1     -20.246 -43.034  -0.250  1.00  0.00     0.044 A 
HETATM    6  C   UNL     1     -20.913 -42.750   0.950  1.00  0.00     0.010 A 
HETATM    7  F   UNL     1     -18.369 -44.021  -1.371  1.00  0.00    -0.205 F 
ENDROOT
BRANCH   1   8
HETATM    8  C   UNL     1     -21.066 -42.866   3.489  1.00  0.00     0.100 C 
BRANCH   8   9
HETATM    9  C   UNL     1     -20.822 -41.493   3.911  1.00  0.00     0.070 A 
HETATM   10  N   UNL     1     -19.652 -41.272   4.587  1.00  0.00    -0.175 NA
HETATM   11  N   UNL     1     -19.351 -40.089   5.066  1.00  0.00    -0.243 N 
HETATM   12  H   UNL     1     -18.498 -39.982   5.546  1.00  0.00     0.192 HD
HETATM   13  C   UNL     1     -20.147 -39.019   4.935  1.00  0.00     0.272 A 
HETATM   14  C   UNL     1     -21.345 -39.160   4.265  1.00  0.00     0.046 A 
HETATM   15  O   UNL     1     -19.876 -37.877   5.388  1.00  0.00    -0.266 OA
HETATM   16  C   UNL     1     -22.201 -38.074   4.083  1.00  0.00     0.018 A 
HETATM   17  C   UNL     1     -21.650 -40.413   3.764  1.00  0.00     0.006 A 
HETATM   18  C   UNL     1     -23.383 -38.234   3.391  1.00  0.00     0.001 A 
HETATM   19  C   UNL     1     -23.656 -39.494   2.903  1.00  0.00     0.001 A 
HETATM   20  C   UNL     1     -22.815 -40.581   3.076  1.00  0.00     0.014 A 
ENDBRANCH   8   9
ENDBRANCH   1   8
BRANCH   3  21
HETATM   21  C   UNL     1     -17.295 -44.840   0.995  1.00  0.00     0.257 C 
HETATM   22  N   UNL     1     -16.092 -44.091   0.911  1.00  0.00    -0.345 N 
HETATM   23  C   UNL     1     -14.835 -44.766   0.905  1.00  0.00     0.146 C 
HETATM   24  C   UNL     1     -16.171 -42.644   0.833  1.00  0.00     0.146 C 
HETATM   25  C   UNL     1     -13.752 -43.977   0.201  1.00  0.00     0.145 C 
HETATM   26  N   UNL     1     -14.367 -43.092  -0.754  1.00  0.00    -0.349 N 
HETATM   27  C   UNL     1     -15.268 -42.063  -0.224  1.00  0.00     0.145 C 
HETATM   28  C   UNL     1     -14.132 -43.192  -2.129  1.00  0.00     0.224 C 
HETATM   29  O   UNL     1     -14.720 -42.347  -2.895  1.00  0.00    -0.273 OA
HETATM   30  O   UNL     1     -17.242 -46.090   1.059  1.00  0.00    -0.267 OA
BRANCH  28  31
HETATM   31  C   UNL     1     -13.276 -44.168  -2.809  1.00  0.00     0.078 A 
HETATM   32  C   UNL     1     -11.821 -43.787  -2.960  1.00  0.00     0.015 A 
HETATM   33  C   UNL     1     -12.684 -43.872  -4.140  1.00  0.00     0.015 A 
ENDBRANCH  28  31
ENDBRANCH   3  21
TORSDOF 4
ENDMDL
MODEL 3
REMARK VINA RESULT:      -9.8      2.434      3.653
REMARK  4 active torsions:
REMARK  status: ('A' for Active; 'I' for Inactive)
REMARK       I    between atoms: N_1  and  C_17 
REMARK       I    between atoms: N_2  and  C_22 
REMARK    1  A    between atoms: C_12  and  C_13 
REMARK    2  A    between atoms: C_13  and  C_14 
REMARK    3  A    between atoms: C_16  and  C_17 
REMARK    4  A    between atoms: C_22  and  C_23 
ROOT
HETATM    1  C   UNL     1     -41.279 -58.381   5.851  1.00  0.00    -0.051 A 
HETATM    2  C   UNL     1     -41.287 -59.775   6.035  1.00  0.00     0.027 A 
HETATM    3  C   UNL     1     -40.318 -60.548   5.442  1.00  0.00     0.071 A 
HETATM    4  C   UNL     1     -39.315 -60.030   4.658  1.00  0.00     0.132 A 
HETATM    5  C   UNL     1     -39.308 -58.665   4.478  1.00  0.00     0.044 A 
HETATM    6  C   UNL     1     -40.295 -57.873   5.083  1.00  0.00     0.010 A 
HETATM    7  F   UNL     1     -38.375 -60.841   4.090  1.00  0.00    -0.205 F 
ENDROOT
BRANCH   1   8
HETATM    8  C   UNL     1     -42.365 -57.636   6.546  1.00  0.00     0.100 C 
BRANCH   8   9
HETATM    9  C   UNL     1     -41.966 -56.256   6.788  1.00  0.00     0.070 A 
HETATM   10  N   UNL     1     -41.145 -55.695   5.848  1.00  0.00    -0.175 NA
HETATM   11  N   UNL     1     -40.675 -54.479   5.987  1.00  0.00    -0.243 N 
HETATM   12  H   UNL     1     -40.086 -54.122   5.282  1.00  0.00     0.192 HD
HETATM   13  C   UNL     1     -40.954 -53.699   7.040  1.00  0.00     0.272 A 
HETATM   14  C   UNL     1     -41.777 -54.192   8.031  1.00  0.00     0.046 A 
HETATM   15  O   UNL     1     -40.512 -52.531   7.191  1.00  0.00    -0.266 OA
HETATM   16  C   UNL     1     -42.117 -53.415   9.139  1.00  0.00     0.018 A 
HETATM   17  C   UNL     1     -42.267 -55.476   7.872  1.00  0.00     0.006 A 
HETATM   18  C   UNL     1     -42.958 -53.921  10.107  1.00  0.00     0.001 A 
HETATM   19  C   UNL     1     -43.430 -55.202   9.917  1.00  0.00     0.001 A 
HETATM   20  C   UNL     1     -43.102 -55.985   8.823  1.00  0.00     0.014 A 
ENDBRANCH   8   9
ENDBRANCH   1   8
BRANCH   3  21
HETATM   21  C   UNL     1     -40.298 -62.018   5.619  1.00  0.00     0.257 C 
HETATM   22  N   UNL     1     -40.861 -62.825   4.596  1.00  0.00    -0.345 N 
HETATM   23  C   UNL     1     -40.855 -64.246   4.729  1.00  0.00     0.146 C 
HETATM   24  C   UNL     1     -41.433 -62.180   3.429  1.00  0.00     0.146 C 
HETATM   25  C   UNL     1     -41.979 -64.909   3.962  1.00  0.00     0.145 C 
HETATM   26  N   UNL     1     -43.057 -63.967   3.809  1.00  0.00    -0.349 N 
HETATM   27  C   UNL     1     -42.774 -62.750   3.041  1.00  0.00     0.145 C 
HETATM   28  C   UNL     1     -44.325 -64.181   4.359  1.00  0.00     0.224 C 
HETATM   29  O   UNL     1     -45.220 -63.286   4.155  1.00  0.00    -0.273 OA
HETATM   30  O   UNL     1     -39.804 -62.561   6.634  1.00  0.00    -0.267 OA
BRANCH  28  31
HETATM   31  C   UNL     1     -44.756 -65.332   5.157  1.00  0.00     0.078 A 
HETATM   32  C   UNL     1     -45.372 -66.481   4.391  1.00  0.00     0.015 A 
HETATM   33  C   UNL     1     -46.197 -65.673   5.293  1.00  0.00     0.015 A 
ENDBRANCH  28  31
ENDBRANCH   3  21
TORSDOF 4
ENDMDL
MODEL 4
REMARK VINA RESULT:      -9.7     27.183     28.969
REMARK  4 active torsions:
REMARK  status: ('A' for Active; 'I' for Inactive)
REMARK       I    between atoms: N_1  and  C_17 
REMARK       I    between atoms: N_2  and  C_22 
REMARK    1  A    between atoms: C_12  and  C_13 
REMARK    2  A    between atoms: C_13  and  C_14 
REMARK    3  A    between atoms: C_16  and  C_17 
REMARK    4  A    between atoms: C_22  and  C_23 
ROOT
HETATM    1  C   UNL     1     -13.637 -66.430  -2.345  1.00  0.00    -0.051 A 
HETATM    2  C   UNL     1     -13.813 -67.802  -2.093  1.00  0.00     0.027 A 
HETATM    3  C   UNL     1     -12.772 -68.674  -2.305  1.00  0.00     0.071 A 
HETATM    4  C   UNL     1     -11.537 -68.278  -2.762  1.00  0.00     0.132 A 
HETATM    5  C   UNL     1     -11.367 -66.935  -3.010  1.00  0.00     0.044 A 
HETATM    6  C   UNL     1     -12.426 -66.042  -2.793  1.00  0.00     0.010 A 
HETATM    7  F   UNL     1     -10.535 -69.184  -2.957  1.00  0.00    -0.205 F 
ENDROOT
BRANCH   1   8
HETATM    8  C   UNL     1     -14.823 -65.571  -2.072  1.00  0.00     0.100 C 
BRANCH   8   9
HETATM    9  C   UNL     1     -14.450 -64.162  -2.089  1.00  0.00     0.070 A 
HETATM   10  N   UNL     1     -14.345 -63.584  -3.325  1.00  0.00    -0.175 NA
HETATM   11  N   UNL     1     -13.961 -62.339  -3.469  1.00  0.00    -0.243 N 
HETATM   12  H   UNL     1     -13.902 -61.970  -4.380  1.00  0.00     0.192 HD
HETATM   13  C   UNL     1     -13.646 -61.543  -2.437  1.00  0.00     0.272 A 
HETATM   14  C   UNL     1     -13.727 -62.053  -1.157  1.00  0.00     0.046 A 
HETATM   15  O   UNL     1     -13.275 -60.348  -2.555  1.00  0.00    -0.266 OA
HETATM   16  C   UNL     1     -13.429 -61.262  -0.047  1.00  0.00     0.018 A 
HETATM   17  C   UNL     1     -14.133 -63.367  -1.020  1.00  0.00     0.006 A 
HETATM   18  C   UNL     1     -13.537 -61.786   1.223  1.00  0.00     0.001 A 
HETATM   19  C   UNL     1     -13.947 -63.098   1.326  1.00  0.00     0.001 A 
HETATM   20  C   UNL     1     -14.246 -63.894   0.233  1.00  0.00     0.014 A 
ENDBRANCH   8   9
ENDBRANCH   1   8
BRANCH   3  21
HETATM   21  C   UNL     1     -12.924 -70.123  -2.045  1.00  0.00     0.257 C 
HETATM   22  N   UNL     1     -13.687 -70.893  -2.962  1.00  0.00    -0.345 N 
HETATM   23  C   UNL     1     -13.852 -72.294  -2.747  1.00  0.00     0.146 C 
HETATM   24  C   UNL     1     -14.286 -70.231  -4.105  1.00  0.00     0.146 C 
HETATM   25  C   UNL     1     -15.124 -72.834  -3.366  1.00  0.00     0.145 C 
HETATM   26  N   UNL     1     -16.081 -71.764  -3.471  1.00  0.00    -0.349 N 
HETATM   27  C   UNL     1     -15.721 -70.631  -4.332  1.00  0.00     0.145 C 
HETATM   28  C   UNL     1     -17.303 -71.780  -2.793  1.00  0.00     0.224 C 
HETATM   29  O   UNL     1     -18.091 -70.782  -2.963  1.00  0.00    -0.273 OA
HETATM   30  O   UNL     1     -12.405 -70.682  -1.051  1.00  0.00    -0.267 OA
BRANCH  28  31
HETATM   31  C   UNL     1     -17.798 -72.825  -1.892  1.00  0.00     0.078 A 
HETATM   32  C   UNL     1     -18.607 -73.929  -2.533  1.00  0.00     0.015 A 
HETATM   33  C   UNL     1     -19.251 -72.980  -1.623  1.00  0.00     0.015 A 
ENDBRANCH  28  31
ENDBRANCH   3  21
TORSDOF 4
ENDMDL
MODEL 5
REMARK VINA RESULT:      -9.5     19.682     24.828
REMARK  4 active torsions:
REMARK  status: ('A' for Active; 'I' for Inactive)
REMARK       I    between atoms: N_1  and  C_17 
REMARK       I    between atoms: N_2  and  C_22 
REMARK    1  A    between atoms: C_12  and  C_13 
REMARK    2  A    between atoms: C_13  and  C_14 
REMARK    3  A    between atoms: C_16  and  C_17 
REMARK    4  A    between atoms: C_22  and  C_23 
ROOT
HETATM    1  C   UNL     1     -19.121 -71.120  -1.285  1.00  0.00    -0.051 A 
HETATM    2  C   UNL     1     -20.113 -70.203  -0.896  1.00  0.00     0.027 A 
HETATM    3  C   UNL     1     -21.296 -70.138  -1.593  1.00  0.00     0.071 A 
HETATM    4  C   UNL     1     -21.577 -70.935  -2.677  1.00  0.00     0.132 A 
HETATM    5  C   UNL     1     -20.605 -71.833  -3.057  1.00  0.00     0.044 A 
HETATM    6  C   UNL     1     -19.397 -71.902  -2.347  1.00  0.00     0.010 A 
HETATM    7  F   UNL     1     -22.767 -70.833  -3.336  1.00  0.00    -0.205 F 
ENDROOT
BRANCH   1   8
HETATM    8  C   UNL     1     -17.884 -71.117  -0.456  1.00  0.00     0.100 C 
BRANCH   8   9
HETATM    9  C   UNL     1     -17.089 -69.926  -0.726  1.00  0.00     0.070 A 
HETATM   10  N   UNL     1     -17.563 -68.756  -0.196  1.00  0.00    -0.175 NA
HETATM   11  N   UNL     1     -16.965 -67.612  -0.419  1.00  0.00    -0.243 N 
HETATM   12  H   UNL     1     -17.346 -66.798  -0.016  1.00  0.00     0.192 HD
HETATM   13  C   UNL     1     -15.860 -67.493  -1.170  1.00  0.00     0.272 A 
HETATM   14  C   UNL     1     -15.320 -68.628  -1.739  1.00  0.00     0.046 A 
HETATM   15  O   UNL     1     -15.273 -66.405  -1.397  1.00  0.00    -0.266 OA
HETATM   16  C   UNL     1     -14.161 -68.565  -2.513  1.00  0.00     0.018 A 
HETATM   17  C   UNL     1     -15.961 -69.829  -1.495  1.00  0.00     0.006 A 
HETATM   18  C   UNL     1     -13.627 -69.715  -3.054  1.00  0.00     0.001 A 
HETATM   19  C   UNL     1     -14.288 -70.895  -2.790  1.00  0.00     0.001 A 
HETATM   20  C   UNL     1     -15.440 -70.973  -2.024  1.00  0.00     0.014 A 
ENDBRANCH   8   9
ENDBRANCH   1   8
BRANCH   3  21
HETATM   21  C   UNL     1     -22.360 -69.185  -1.205  1.00  0.00     0.257 C 
HETATM   22  N   UNL     1     -23.404 -69.652  -0.364  1.00  0.00    -0.345 N 
HETATM   23  C   UNL     1     -24.446 -68.761   0.035  1.00  0.00     0.146 C 
HETATM   24  C   UNL     1     -23.387 -71.035   0.074  1.00  0.00     0.146 C 
HETATM   25  C   UNL     1     -25.739 -69.481   0.352  1.00  0.00     0.145 C 
HETATM   26  N   UNL     1     -25.770 -70.725  -0.372  1.00  0.00    -0.349 N 
HETATM   27  C   UNL     1     -24.729 -71.707  -0.050  1.00  0.00     0.145 C 
HETATM   28  C   UNL     1     -26.736 -71.005  -1.342  1.00  0.00     0.224 C 
HETATM   29  O   UNL     1     -26.683 -72.148  -1.922  1.00  0.00    -0.273 OA
HETATM   30  O   UNL     1     -22.365 -67.994  -1.594  1.00  0.00    -0.267 OA
BRANCH  28  31
HETATM   31  C   UNL     1     -27.824 -70.127  -1.782  1.00  0.00     0.078 A 
HETATM   32  C   UNL     1     -29.099 -70.187  -0.972  1.00  0.00     0.015 A 
HETATM   33  C   UNL     1     -29.079 -70.687  -2.348  1.00  0.00     0.015 A 
ENDBRANCH  28  31
ENDBRANCH   3  21
TORSDOF 4
ENDMDL
MODEL 6
REMARK VINA RESULT:      -9.4     26.596     28.932
REMARK  4 active torsions:
REMARK  status: ('A' for Active; 'I' for Inactive)
REMARK       I    between atoms: N_1  and  C_17 
REMARK       I    between atoms: N_2  and  C_22 
REMARK    1  A    between atoms: C_12  and  C_13 
REMARK    2  A    between atoms: C_13  and  C_14 
REMARK    3  A    between atoms: C_16  and  C_17 
REMARK    4  A    between atoms: C_22  and  C_23 
ROOT
HETATM    1  C   UNL     1     -19.911 -41.490   2.800  1.00  0.00    -0.051 A 
HETATM    2  C   UNL     1     -21.046 -41.086   3.525  1.00  0.00     0.027 A 
HETATM    3  C   UNL     1     -21.214 -39.760   3.848  1.00  0.00     0.071 A 
HETATM    4  C   UNL     1     -20.319 -38.779   3.496  1.00  0.00     0.132 A 
HETATM    5  C   UNL     1     -19.208 -39.175   2.786  1.00  0.00     0.044 A 
HETATM    6  C   UNL     1     -19.033 -40.526   2.454  1.00  0.00     0.010 A 
HETATM    7  F   UNL     1     -20.532 -37.475   3.840  1.00  0.00    -0.205 F 
ENDROOT
BRANCH   1   8
HETATM    8  C   UNL     1     -19.831 -42.945   2.493  1.00  0.00     0.100 C 
BRANCH   8   9
HETATM    9  C   UNL     1     -19.538 -43.155   1.081  1.00  0.00     0.070 A 
HETATM   10  N   UNL     1     -20.575 -42.937   0.214  1.00  0.00    -0.175 NA
HETATM   11  N   UNL     1     -20.448 -43.149  -1.073  1.00  0.00    -0.243 N 
HETATM   12  H   UNL     1     -21.224 -42.979  -1.654  1.00  0.00     0.192 HD
HETATM   13  C   UNL     1     -19.313 -43.588  -1.637  1.00  0.00     0.272 A 
HETATM   14  C   UNL     1     -18.221 -43.830  -0.830  1.00  0.00     0.046 A 
HETATM   15  O   UNL     1     -19.172 -43.798  -2.869  1.00  0.00    -0.266 OA
HETATM   16  C   UNL     1     -17.010 -44.268  -1.368  1.00  0.00     0.018 A 
HETATM   17  C   UNL     1     -18.369 -43.602   0.526  1.00  0.00     0.006 A 
HETATM   18  C   UNL     1     -15.926 -44.483  -0.544  1.00  0.00     0.001 A 
HETATM   19  C   UNL     1     -16.106 -44.244   0.802  1.00  0.00     0.001 A 
HETATM   20  C   UNL     1     -17.301 -43.809   1.349  1.00  0.00     0.014 A 
ENDBRANCH   8   9
ENDBRANCH   1   8
BRANCH   3  21
HETATM   21  C   UNL     1     -22.400 -39.303   4.608  1.00  0.00     0.257 C 
HETATM   22  N   UNL     1     -23.600 -39.055   3.892  1.00  0.00    -0.345 N 
HETATM   23  C   UNL     1     -24.766 -38.618   4.591  1.00  0.00     0.146 C 
HETATM   24  C   UNL     1     -23.614 -39.253   2.455  1.00  0.00     0.146 C 
HETATM   25  C   UNL     1     -25.705 -37.815   3.716  1.00  0.00     0.145 C 
HETATM   26  N   UNL     1     -24.947 -37.214   2.650  1.00  0.00    -0.349 N 
HETATM   27  C   UNL     1     -24.279 -38.123   1.712  1.00  0.00     0.145 C 
HETATM   28  C   UNL     1     -24.838 -35.829   2.495  1.00  0.00     0.224 C 
HETATM   29  O   UNL     1     -24.149 -35.393   1.505  1.00  0.00    -0.273 OA
HETATM   30  O   UNL     1     -22.373 -39.132   5.848  1.00  0.00    -0.267 OA
BRANCH  28  31
HETATM   31  C   UNL     1     -25.430 -34.797   3.351  1.00  0.00     0.078 A 
HETATM   32  C   UNL     1     -26.894 -34.498   3.119  1.00  0.00     0.015 A 
HETATM   33  C   UNL     1     -25.878 -33.497   2.786  1.00  0.00     0.015 A 
ENDBRANCH  28  31
ENDBRANCH   3  21
TORSDOF 4
ENDMDL
MODEL 7
REMARK VINA RESULT:      -9.4     27.432     30.514
REMARK  4 active torsions:
REMARK  status: ('A' for Active; 'I' for Inactive)
REMARK       I    between atoms: N_1  and  C_17 
REMARK       I    between atoms: N_2  and  C_22 
REMARK    1  A    between atoms: C_12  and  C_13 
REMARK    2  A    between atoms: C_13  and  C_14 
REMARK    3  A    between atoms: C_16  and  C_17 
REMARK    4  A    between atoms: C_22  and  C_23 
ROOT
HETATM    1  C   UNL     1     -16.571 -44.221   0.309  1.00  0.00    -0.051 A 
HETATM    2  C   UNL     1     -16.750 -43.068   1.095  1.00  0.00     0.027 A 
HETATM    3  C   UNL     1     -17.857 -42.276   0.903  1.00  0.00     0.071 A 
HETATM    4  C   UNL     1     -18.825 -42.546  -0.035  1.00  0.00     0.132 A 
HETATM    5  C   UNL     1     -18.648 -43.674  -0.804  1.00  0.00     0.044 A 
HETATM    6  C   UNL     1     -17.521 -44.486  -0.610  1.00  0.00     0.010 A 
HETATM    7  F   UNL     1     -19.906 -41.727  -0.187  1.00  0.00    -0.205 F 
ENDROOT
BRANCH   1   8
HETATM    8  C   UNL     1     -15.347 -45.015   0.606  1.00  0.00     0.100 C 
BRANCH   8   9
HETATM    9  C   UNL     1     -14.150 -44.257   0.266  1.00  0.00     0.070 A 
HETATM   10  N   UNL     1     -13.559 -43.575   1.295  1.00  0.00    -0.175 NA
HETATM   11  N   UNL     1     -12.510 -42.814   1.100  1.00  0.00    -0.243 N 
HETATM   12  H   UNL     1     -12.122 -42.344   1.874  1.00  0.00     0.192 HD
HETATM   13  C   UNL     1     -11.940 -42.642  -0.101  1.00  0.00     0.272 A 
HETATM   14  C   UNL     1     -12.477 -43.296  -1.190  1.00  0.00     0.046 A 
HETATM   15  O   UNL     1     -10.935 -41.915  -0.309  1.00  0.00    -0.266 OA
HETATM   16  C   UNL     1     -11.911 -43.169  -2.459  1.00  0.00     0.018 A 
HETATM   17  C   UNL     1     -13.583 -44.097  -0.970  1.00  0.00     0.006 A 
HETATM   18  C   UNL     1     -12.452 -43.849  -3.529  1.00  0.00     0.001 A 
HETATM   19  C   UNL     1     -13.552 -44.640  -3.275  1.00  0.00     0.001 A 
HETATM   20  C   UNL     1     -14.124 -44.776  -2.021  1.00  0.00     0.014 A 
ENDBRANCH   8   9
ENDBRANCH   1   8
BRANCH   3  21
HETATM   21  C   UNL     1     -18.075 -41.058   1.716  1.00  0.00     0.257 C 
HETATM   22  N   UNL     1     -19.016 -41.121   2.778  1.00  0.00    -0.345 N 
HETATM   23  C   UNL     1     -19.250 -39.969   3.587  1.00  0.00     0.146 C 
HETATM   24  C   UNL     1     -19.722 -42.366   3.017  1.00  0.00     0.146 C 
HETATM   25  C   UNL     1     -20.633 -39.959   4.202  1.00  0.00     0.145 C 
HETATM   26  N   UNL     1     -21.515 -40.744   3.378  1.00  0.00    -0.349 N 
HETATM   27  C   UNL     1     -21.200 -42.170   3.237  1.00  0.00     0.145 C 
HETATM   28  C   UNL     1     -22.626 -40.195   2.731  1.00  0.00     0.224 C 
HETATM   29  O   UNL     1     -23.355 -40.982   2.029  1.00  0.00    -0.273 OA
HETATM   30  O   UNL     1     -17.461 -39.989   1.497  1.00  0.00    -0.267 OA
BRANCH  28  31
HETATM   31  C   UNL     1     -23.061 -38.796   2.763  1.00  0.00     0.078 A 
HETATM   32  C   UNL     1     -24.335 -38.511   3.526  1.00  0.00     0.015 A 
HETATM   33  C   UNL     1     -24.302 -38.364   2.069  1.00  0.00     0.015 A 
ENDBRANCH  28  31
ENDBRANCH   3  21
TORSDOF 4
ENDMDL
MODEL 8
REMARK VINA RESULT:      -9.4     26.934     29.160
REMARK  4 active torsions:
REMARK  status: ('A' for Active; 'I' for Inactive)
REMARK       I    between atoms: N_1  and  C_17 
REMARK       I    between atoms: N_2  and  C_22 
REMARK    1  A    between atoms: C_12  and  C_13 
REMARK    2  A    between atoms: C_13  and  C_14 
REMARK    3  A    between atoms: C_16  and  C_17 
REMARK    4  A    between atoms: C_22  and  C_23 
ROOT
HETATM    1  C   UNL     1     -19.080 -42.944   1.529  1.00  0.00    -0.051 A 
HETATM    2  C   UNL     1     -18.281 -43.949   0.955  1.00  0.00     0.027 A 
HETATM    3  C   UNL     1     -17.657 -43.722  -0.248  1.00  0.00     0.071 A 
HETATM    4  C   UNL     1     -17.769 -42.542  -0.945  1.00  0.00     0.132 A 
HETATM    5  C   UNL     1     -18.551 -41.559  -0.382  1.00  0.00     0.044 A 
HETATM    6  C   UNL     1     -19.188 -41.787   0.846  1.00  0.00     0.010 A 
HETATM    7  F   UNL     1     -17.129 -42.365  -2.137  1.00  0.00    -0.205 F 
ENDROOT
BRANCH   1   8
HETATM    8  C   UNL     1     -19.700 -43.288   2.839  1.00  0.00     0.100 C 
BRANCH   8   9
HETATM    9  C   UNL     1     -20.805 -42.386   3.135  1.00  0.00     0.070 A 
HETATM   10  N   UNL     1     -21.955 -42.591   2.420  1.00  0.00    -0.175 NA
HETATM   11  N   UNL     1     -22.996 -41.807   2.559  1.00  0.00    -0.243 N 
HETATM   12  H   UNL     1     -23.799 -41.997   2.021  1.00  0.00     0.192 HD
HETATM   13  C   UNL     1     -23.022 -40.760   3.396  1.00  0.00     0.272 A 
HETATM   14  C   UNL     1     -21.901 -40.487   4.152  1.00  0.00     0.046 A 
HETATM   15  O   UNL     1     -24.011 -39.996   3.541  1.00  0.00    -0.266 OA
HETATM   16  C   UNL     1     -21.881 -39.422   5.053  1.00  0.00     0.018 A 
HETATM   17  C   UNL     1     -20.810 -41.322   3.997  1.00  0.00     0.006 A 
HETATM   18  C   UNL     1     -20.758 -39.181   5.814  1.00  0.00     0.001 A 
HETATM   19  C   UNL     1     -19.688 -40.033   5.637  1.00  0.00     0.001 A 
HETATM   20  C   UNL     1     -19.694 -41.094   4.747  1.00  0.00     0.014 A 
ENDBRANCH   8   9
ENDBRANCH   1   8
BRANCH   3  21
HETATM   21  C   UNL     1     -16.808 -44.759  -0.877  1.00  0.00     0.257 C 
HETATM   22  N   UNL     1     -15.401 -44.666  -0.708  1.00  0.00    -0.345 N 
HETATM   23  C   UNL     1     -14.550 -45.650  -1.294  1.00  0.00     0.146 C 
HETATM   24  C   UNL     1     -14.859 -43.564   0.065  1.00  0.00     0.146 C 
HETATM   25  C   UNL     1     -13.161 -45.122  -1.584  1.00  0.00     0.145 C 
HETATM   26  N   UNL     1     -13.232 -43.694  -1.755  1.00  0.00    -0.349 N 
HETATM   27  C   UNL     1     -13.677 -42.907  -0.600  1.00  0.00     0.145 C 
HETATM   28  C   UNL     1     -12.899 -43.065  -2.958  1.00  0.00     0.224 C 
HETATM   29  O   UNL     1     -12.985 -41.786  -3.003  1.00  0.00    -0.273 OA
HETATM   30  O   UNL     1     -17.289 -45.703  -1.544  1.00  0.00    -0.267 OA
BRANCH  28  31
HETATM   31  C   UNL     1     -12.455 -43.709  -4.197  1.00  0.00     0.078 A 
HETATM   32  C   UNL     1     -13.246 -43.378  -5.442  1.00  0.00     0.015 A 
HETATM   33  C   UNL     1     -13.299 -44.728  -4.875  1.00  0.00     0.015 A 
ENDBRANCH  28  31
ENDBRANCH   3  21
TORSDOF 4
ENDMDL
MODEL 9
REMARK VINA RESULT:      -9.3      7.495     12.522
REMARK  4 active torsions:
REMARK  status: ('A' for Active; 'I' for Inactive)
REMARK       I    between atoms: N_1  and  C_17 
REMARK       I    between atoms: N_2  and  C_22 
REMARK    1  A    between atoms: C_12  and  C_13 
REMARK    2  A    between atoms: C_13  and  C_14 
REMARK    3  A    between atoms: C_16  and  C_17 
REMARK    4  A    between atoms: C_22  and  C_23 
ROOT
HETATM    1  C   UNL     1     -44.956 -65.484  -1.648  1.00  0.00    -0.051 A 
HETATM    2  C   UNL     1     -44.078 -64.621  -0.969  1.00  0.00     0.027 A 
HETATM    3  C   UNL     1     -44.344 -64.259   0.330  1.00  0.00     0.071 A 
HETATM    4  C   UNL     1     -45.444 -64.701   1.025  1.00  0.00     0.132 A 
HETATM    5  C   UNL     1     -46.303 -65.546   0.360  1.00  0.00     0.044 A 
HETATM    6  C   UNL     1     -46.034 -65.917  -0.966  1.00  0.00     0.010 A 
HETATM    7  F   UNL     1     -45.664 -64.313   2.316  1.00  0.00    -0.205 F 
ENDROOT
BRANCH   1   8
HETATM    8  C   UNL     1     -44.570 -65.821  -3.046  1.00  0.00     0.100 C 
BRANCH   8   9
HETATM    9  C   UNL     1     -44.089 -67.194  -3.128  1.00  0.00     0.070 A 
HETATM   10  N   UNL     1     -43.109 -67.541  -2.238  1.00  0.00    -0.175 NA
HETATM   11  N   UNL     1     -42.559 -68.731  -2.254  1.00  0.00    -0.243 N 
HETATM   12  H   UNL     1     -41.857 -68.930  -1.592  1.00  0.00     0.192 HD
HETATM   13  C   UNL     1     -42.903 -69.688  -3.126  1.00  0.00     0.272 A 
HETATM   14  C   UNL     1     -43.885 -69.416  -4.056  1.00  0.00     0.046 A 
HETATM   15  O   UNL     1     -42.386 -70.834  -3.158  1.00  0.00    -0.266 OA
HETATM   16  C   UNL     1     -44.296 -70.384  -4.974  1.00  0.00     0.018 A 
HETATM   17  C   UNL     1     -44.458 -68.158  -4.028  1.00  0.00     0.006 A 
HETATM   18  C   UNL     1     -45.294 -70.097  -5.881  1.00  0.00     0.001 A 
HETATM   19  C   UNL     1     -45.845 -68.834  -5.825  1.00  0.00     0.001 A 
HETATM   20  C   UNL     1     -45.448 -67.865  -4.919  1.00  0.00     0.014 A 
ENDBRANCH   8   9
ENDBRANCH   1   8
BRANCH   3  21
HETATM   21  C   UNL     1     -43.437 -63.355   1.072  1.00  0.00     0.257 C 
HETATM   22  N   UNL     1     -42.307 -63.920   1.718  1.00  0.00    -0.345 N 
HETATM   23  C   UNL     1     -41.407 -63.080   2.440  1.00  0.00     0.146 C 
HETATM   24  C   UNL     1     -42.091 -65.352   1.628  1.00  0.00     0.146 C 
HETATM   25  C   UNL     1     -40.679 -63.815   3.544  1.00  0.00     0.145 C 
HETATM   26  N   UNL     1     -41.475 -64.941   3.958  1.00  0.00    -0.349 N 
HETATM   27  C   UNL     1     -41.735 -65.977   2.953  1.00  0.00     0.145 C 
HETATM   28  C   UNL     1     -41.989 -65.062   5.252  1.00  0.00     0.224 C 
HETATM   29  O   UNL     1     -42.678 -66.110   5.523  1.00  0.00    -0.273 OA
HETATM   30  O   UNL     1     -43.637 -62.120   1.145  1.00  0.00    -0.267 OA
BRANCH  28  31
HETATM   31  C   UNL     1     -41.830 -64.111   6.356  1.00  0.00     0.078 A 
HETATM   32  C   UNL     1     -40.604 -64.294   7.222  1.00  0.00     0.015 A 
HETATM   33  C   UNL     1     -41.937 -64.555   7.771  1.00  0.00     0.015 A 
ENDBRANCH  28  31
ENDBRANCH   3  21
TORSDOF 4
ENDMDL
MODEL 10
REMARK VINA RESULT:      -9.1     19.532     21.419
REMARK  4 active torsions:
REMARK  status: ('A' for Active; 'I' for Inactive)
REMARK       I    between atoms: N_1  and  C_17 
REMARK       I    between atoms: N_2  and  C_22 
REMARK    1  A    between atoms: C_12  and  C_13 
REMARK    2  A    between atoms: C_13  and  C_14 
REMARK    3  A    between atoms: C_16  and  C_17 
REMARK    4  A    between atoms: C_22  and  C_23 
ROOT
HETATM    1  C   UNL     1     -42.031 -53.958 -15.164  1.00  0.00    -0.051 A 
HETATM    2  C   UNL     1     -40.881 -53.913 -14.356  1.00  0.00     0.027 A 
HETATM    3  C   UNL     1     -40.588 -52.773 -13.647  1.00  0.00     0.071 A 
HETATM    4  C   UNL     1     -41.369 -51.642 -13.682  1.00  0.00     0.132 A 
HETATM    5  C   UNL     1     -42.494 -51.687 -14.474  1.00  0.00     0.044 A 
HETATM    6  C   UNL     1     -42.797 -52.850 -15.197  1.00  0.00     0.010 A 
HETATM    7  F   UNL     1     -41.035 -50.534 -12.959  1.00  0.00    -0.205 F 
ENDROOT
BRANCH   1   8
HETATM    8  C   UNL     1     -42.262 -55.244 -15.879  1.00  0.00     0.100 C 
BRANCH   8   9
HETATM    9  C   UNL     1     -42.390 -56.342 -14.931  1.00  0.00     0.070 A 
HETATM   10  N   UNL     1     -43.416 -56.241 -14.030  1.00  0.00    -0.175 NA
HETATM   11  N   UNL     1     -43.595 -57.140 -13.093  1.00  0.00    -0.243 N 
HETATM   12  H   UNL     1     -44.348 -57.021 -12.469  1.00  0.00     0.192 HD
HETATM   13  C   UNL     1     -42.805 -58.212 -12.941  1.00  0.00     0.272 A 
HETATM   14  C   UNL     1     -41.748 -58.385 -13.811  1.00  0.00     0.046 A 
HETATM   15  O   UNL     1     -42.960 -59.083 -12.048  1.00  0.00    -0.266 OA
HETATM   16  C   UNL     1     -40.906 -59.494 -13.710  1.00  0.00     0.018 A 
HETATM   17  C   UNL     1     -41.570 -57.431 -14.795  1.00  0.00     0.006 A 
HETATM   18  C   UNL     1     -39.869 -59.658 -14.603  1.00  0.00     0.001 A 
HETATM   19  C   UNL     1     -39.721 -58.689 -15.573  1.00  0.00     0.001 A 
HETATM   20  C   UNL     1     -40.549 -57.585 -15.685  1.00  0.00     0.014 A 
ENDBRANCH   8   9
ENDBRANCH   1   8
BRANCH   3  21
HETATM   21  C   UNL     1     -39.387 -52.696 -12.785  1.00  0.00     0.257 C 
HETATM   22  N   UNL     1     -38.113 -52.657 -13.410  1.00  0.00    -0.345 N 
HETATM   23  C   UNL     1     -36.933 -52.578 -12.612  1.00  0.00     0.146 C 
HETATM   24  C   UNL     1     -38.042 -52.698 -14.859  1.00  0.00     0.146 C 
HETATM   25  C   UNL     1     -35.721 -53.165 -13.302  1.00  0.00     0.145 C 
HETATM   26  N   UNL     1     -36.161 -54.142 -14.264  1.00  0.00    -0.349 N 
HETATM   27  C   UNL     1     -36.998 -53.658 -15.368  1.00  0.00     0.145 C 
HETATM   28  C   UNL     1     -35.819 -55.494 -14.171  1.00  0.00     0.224 C 
HETATM   29  O   UNL     1     -36.253 -56.281 -15.086  1.00  0.00    -0.273 OA
HETATM   30  O   UNL     1     -39.464 -52.664 -11.535  1.00  0.00    -0.267 OA
BRANCH  28  31
HETATM   31  C   UNL     1     -35.009 -56.129 -13.128  1.00  0.00     0.078 A 
HETATM   32  C   UNL     1     -33.558 -56.379 -13.471  1.00  0.00     0.015 A 
HETATM   33  C   UNL     1     -34.478 -57.506 -13.302  1.00  0.00     0.015 A 
ENDBRANCH  28  31
ENDBRANCH   3  21
TORSDOF 4
ENDMDL
MODEL 11
REMARK VINA RESULT:      -9.0     21.272     23.280
REMARK  4 active torsions:
REMARK  status: ('A' for Active; 'I' for Inactive)
REMARK       I    between atoms: N_1  and  C_17 
REMARK       I    between atoms: N_2  and  C_22 
REMARK    1  A    between atoms: C_12  and  C_13 
REMARK    2  A    between atoms: C_13  and  C_14 
REMARK    3  A    between atoms: C_16  and  C_17 
REMARK    4  A    between atoms: C_22  and  C_23 
ROOT
HETATM    1  C   UNL     1     -40.883 -51.791 -14.062  1.00  0.00    -0.051 A 
HETATM    2  C   UNL     1     -41.242 -52.305 -15.321  1.00  0.00     0.027 A 
HETATM    3  C   UNL     1     -41.656 -51.451 -16.315  1.00  0.00     0.071 A 
HETATM    4  C   UNL     1     -41.744 -50.089 -16.151  1.00  0.00     0.132 A 
HETATM    5  C   UNL     1     -41.392 -49.587 -14.918  1.00  0.00     0.044 A 
HETATM    6  C   UNL     1     -40.968 -50.455 -13.902  1.00  0.00     0.010 A 
HETATM    7  F   UNL     1     -42.161 -49.282 -17.170  1.00  0.00    -0.205 F 
ENDROOT
BRANCH   1   8
HETATM    8  C   UNL     1     -40.438 -52.800 -13.061  1.00  0.00     0.100 C 
BRANCH   8   9
HETATM    9  C   UNL     1     -39.035 -52.601 -12.722  1.00  0.00     0.070 A 
HETATM   10  N   UNL     1     -38.788 -52.022 -11.506  1.00  0.00    -0.175 NA
HETATM   11  N   UNL     1     -37.569 -51.742 -11.116  1.00  0.00    -0.243 N 
HETATM   12  H   UNL     1     -37.444 -51.325 -10.232  1.00  0.00     0.192 HD
HETATM   13  C   UNL     1     -36.483 -51.993 -11.861  1.00  0.00     0.272 A 
HETATM   14  C   UNL     1     -36.648 -52.576 -13.100  1.00  0.00     0.046 A 
HETATM   15  O   UNL     1     -35.305 -51.730 -11.505  1.00  0.00    -0.266 OA
HETATM   16  C   UNL     1     -35.551 -52.877 -13.907  1.00  0.00     0.018 A 
HETATM   17  C   UNL     1     -37.940 -52.867 -13.499  1.00  0.00     0.006 A 
HETATM   18  C   UNL     1     -35.739 -53.479 -15.133  1.00  0.00     0.001 A 
HETATM   19  C   UNL     1     -37.038 -53.758 -15.500  1.00  0.00     0.001 A 
HETATM   20  C   UNL     1     -38.137 -53.465 -14.709  1.00  0.00     0.014 A 
ENDBRANCH   8   9
ENDBRANCH   1   8
BRANCH   3  21
HETATM   21  C   UNL     1     -42.038 -51.960 -17.651  1.00  0.00     0.257 C 
HETATM   22  N   UNL     1     -43.404 -52.263 -17.889  1.00  0.00    -0.345 N 
HETATM   23  C   UNL     1     -43.811 -52.752 -19.167  1.00  0.00     0.146 C 
HETATM   24  C   UNL     1     -44.363 -52.064 -16.818  1.00  0.00     0.146 C 
HETATM   25  C   UNL     1     -45.066 -53.595 -19.096  1.00  0.00     0.145 C 
HETATM   26  N   UNL     1     -45.173 -54.162 -17.777  1.00  0.00    -0.349 N 
HETATM   27  C   UNL     1     -45.313 -53.223 -16.659  1.00  0.00     0.145 C 
HETATM   28  C   UNL     1     -45.145 -55.541 -17.548  1.00  0.00     0.224 C 
HETATM   29  O   UNL     1     -45.258 -55.945 -16.336  1.00  0.00    -0.273 OA
HETATM   30  O   UNL     1     -41.199 -52.130 -18.566  1.00  0.00    -0.267 OA
BRANCH  28  31
HETATM   31  C   UNL     1     -44.997 -56.598 -18.552  1.00  0.00     0.078 A 
HETATM   32  C   UNL     1     -46.277 -57.124 -19.161  1.00  0.00     0.015 A 
HETATM   33  C   UNL     1     -45.474 -57.980 -18.285  1.00  0.00     0.015 A 
ENDBRANCH  28  31
ENDBRANCH   3  21
TORSDOF 4
ENDMDL
MODEL 12
REMARK VINA RESULT:      -8.9      4.626      7.661
REMARK  4 active torsions:
REMARK  status: ('A' for Active; 'I' for Inactive)
REMARK       I    between atoms: N_1  and  C_17 
REMARK       I    between atoms: N_2  and  C_22 
REMARK    1  A    between atoms: C_12  and  C_13 
REMARK    2  A    between atoms: C_13  and  C_14 
REMARK    3  A    between atoms: C_16  and  C_17 
REMARK    4  A    between atoms: C_22  and  C_23 
ROOT
HETATM    1  C   UNL     1     -45.424 -63.314   5.096  1.00  0.00    -0.051 A 
HETATM    2  C   UNL     1     -44.293 -62.805   4.433  1.00  0.00     0.027 A 
HETATM    3  C   UNL     1     -43.339 -63.667   3.948  1.00  0.00     0.071 A 
HETATM    4  C   UNL     1     -43.422 -65.033   4.076  1.00  0.00     0.132 A 
HETATM    5  C   UNL     1     -44.529 -65.531   4.726  1.00  0.00     0.044 A 
HETATM    6  C   UNL     1     -45.505 -64.654   5.221  1.00  0.00     0.010 A 
HETATM    7  F   UNL     1     -42.448 -65.848   3.577  1.00  0.00    -0.205 F 
ENDROOT
BRANCH   1   8
HETATM    8  C   UNL     1     -46.401 -62.296   5.571  1.00  0.00     0.100 C 
BRANCH   8   9
HETATM    9  C   UNL     1     -46.455 -62.277   7.027  1.00  0.00     0.070 A 
HETATM   10  N   UNL     1     -45.470 -61.563   7.654  1.00  0.00    -0.175 NA
HETATM   11  N   UNL     1     -45.382 -61.520   8.961  1.00  0.00    -0.243 N 
HETATM   12  H   UNL     1     -44.654 -60.993   9.364  1.00  0.00     0.192 HD
HETATM   13  C   UNL     1     -46.232 -62.159   9.777  1.00  0.00     0.272 A 
HETATM   14  C   UNL     1     -47.255 -62.901   9.220  1.00  0.00     0.046 A 
HETATM   15  O   UNL     1     -46.163 -62.131  11.032  1.00  0.00    -0.266 OA
HETATM   16  C   UNL     1     -48.180 -63.569  10.023  1.00  0.00     0.018 A 
HETATM   17  C   UNL     1     -47.336 -62.937   7.841  1.00  0.00     0.006 A 
HETATM   18  C   UNL     1     -49.205 -64.286   9.446  1.00  0.00     0.001 A 
HETATM   19  C   UNL     1     -49.259 -64.300   8.068  1.00  0.00     0.001 A 
HETATM   20  C   UNL     1     -48.349 -63.642   7.259  1.00  0.00     0.014 A 
ENDBRANCH   8   9
ENDBRANCH   1   8
BRANCH   3  21
HETATM   21  C   UNL     1     -42.140 -63.162   3.242  1.00  0.00     0.257 C 
HETATM   22  N   UNL     1     -41.001 -62.817   4.017  1.00  0.00    -0.345 N 
HETATM   23  C   UNL     1     -39.824 -62.331   3.372  1.00  0.00     0.146 C 
HETATM   24  C   UNL     1     -41.061 -62.968   5.459  1.00  0.00     0.146 C 
HETATM   25  C   UNL     1     -38.989 -61.445   4.270  1.00  0.00     0.145 C 
HETATM   26  N   UNL     1     -39.844 -60.857   5.269  1.00  0.00    -0.349 N 
HETATM   27  C   UNL     1     -40.511 -61.776   6.198  1.00  0.00     0.145 C 
HETATM   28  C   UNL     1     -40.045 -59.477   5.368  1.00  0.00     0.224 C 
HETATM   29  O   UNL     1     -40.817 -59.054   6.301  1.00  0.00    -0.273 OA
HETATM   30  O   UNL     1     -42.103 -63.033   1.997  1.00  0.00    -0.267 OA
BRANCH  28  31
HETATM   31  C   UNL     1     -39.465 -58.439   4.512  1.00  0.00     0.078 A 
HETATM   32  C   UNL     1     -38.167 -57.829   4.990  1.00  0.00     0.015 A 
HETATM   33  C   UNL     1     -39.392 -57.025   4.965  1.00  0.00     0.015 A 
ENDBRANCH  28  31
ENDBRANCH   3  21
TORSDOF 4
ENDMDL
MODEL 13
REMARK VINA RESULT:      -8.9     23.108     25.956
REMARK  4 active torsions:
REMARK  status: ('A' for Active; 'I' for Inactive)
REMARK       I    between atoms: N_1  and  C_17 
REMARK       I    between atoms: N_2  and  C_22 
REMARK    1  A    between atoms: C_12  and  C_13 
REMARK    2  A    between atoms: C_13  and  C_14 
REMARK    3  A    between atoms: C_16  and  C_17 
REMARK    4  A    between atoms: C_22  and  C_23 
ROOT
HETATM    1  C   UNL     1     -46.300 -35.047   5.416  1.00  0.00    -0.051 A 
HETATM    2  C   UNL     1     -44.964 -35.184   5.835  1.00  0.00     0.027 A 
HETATM    3  C   UNL     1     -44.585 -36.287   6.561  1.00  0.00     0.071 A 
HETATM    4  C   UNL     1     -45.454 -37.292   6.915  1.00  0.00     0.132 A 
HETATM    5  C   UNL     1     -46.761 -37.157   6.505  1.00  0.00     0.044 A 
HETATM    6  C   UNL     1     -47.151 -36.033   5.762  1.00  0.00     0.010 A 
HETATM    7  F   UNL     1     -45.029 -38.369   7.638  1.00  0.00    -0.205 F 
ENDROOT
BRANCH   1   8
HETATM    8  C   UNL     1     -46.602 -33.822   4.625  1.00  0.00     0.100 C 
BRANCH   8   9
HETATM    9  C   UNL     1     -46.368 -34.058   3.206  1.00  0.00     0.070 A 
HETATM   10  N   UNL     1     -47.417 -34.588   2.506  1.00  0.00    -0.175 NA
HETATM   11  N   UNL     1     -47.307 -34.896   1.236  1.00  0.00    -0.243 N 
HETATM   12  H   UNL     1     -48.090 -35.276   0.777  1.00  0.00     0.192 HD
HETATM   13  C   UNL     1     -46.179 -34.720   0.532  1.00  0.00     0.272 A 
HETATM   14  C   UNL     1     -45.076 -34.188   1.168  1.00  0.00     0.046 A 
HETATM   15  O   UNL     1     -46.054 -35.010  -0.685  1.00  0.00    -0.266 OA
HETATM   16  C   UNL     1     -43.884 -33.966   0.478  1.00  0.00     0.018 A 
HETATM   17  C   UNL     1     -45.206 -33.868   2.507  1.00  0.00     0.006 A 
HETATM   18  C   UNL     1     -42.802 -33.414   1.128  1.00  0.00     0.001 A 
HETATM   19  C   UNL     1     -42.965 -33.103   2.462  1.00  0.00     0.001 A 
HETATM   20  C   UNL     1     -44.142 -33.319   3.159  1.00  0.00     0.014 A 
ENDBRANCH   8   9
ENDBRANCH   1   8
BRANCH   3  21
HETATM   21  C   UNL     1     -43.187 -36.462   7.014  1.00  0.00     0.257 C 
HETATM   22  N   UNL     1     -42.749 -35.720   8.142  1.00  0.00    -0.345 N 
HETATM   23  C   UNL     1     -41.409 -35.866   8.611  1.00  0.00     0.146 C 
HETATM   24  C   UNL     1     -43.684 -34.825   8.799  1.00  0.00     0.146 C 
HETATM   25  C   UNL     1     -40.909 -34.637   9.341  1.00  0.00     0.145 C 
HETATM   26  N   UNL     1     -41.639 -33.488   8.872  1.00  0.00    -0.349 N 
HETATM   27  C   UNL     1     -43.086 -33.477   9.109  1.00  0.00     0.145 C 
HETATM   28  C   UNL     1     -41.018 -32.420   8.217  1.00  0.00     0.224 C 
HETATM   29  O   UNL     1     -41.756 -31.438   7.849  1.00  0.00    -0.273 OA
HETATM   30  O   UNL     1     -42.389 -37.235   6.435  1.00  0.00    -0.267 OA
BRANCH  28  31
HETATM   31  C   UNL     1     -39.594 -32.292   7.895  1.00  0.00     0.078 A 
HETATM   32  C   UNL     1     -38.763 -31.479   8.862  1.00  0.00     0.015 A 
HETATM   33  C   UNL     1     -39.012 -30.980   7.507  1.00  0.00     0.015 A 
ENDBRANCH  28  31
ENDBRANCH   3  21
TORSDOF 4
ENDMDL
MODEL 14
REMARK VINA RESULT:      -8.8     22.879     25.824
REMARK  4 active torsions:
REMARK  status: ('A' for Active; 'I' for Inactive)
REMARK       I    between atoms: N_1  and  C_17 
REMARK       I    between atoms: N_2  and  C_22 
REMARK    1  A    between atoms: C_12  and  C_13 
REMARK    2  A    between atoms: C_13  and  C_14 
REMARK    3  A    between atoms: C_16  and  C_17 
REMARK    4  A    between atoms: C_22  and  C_23 
ROOT
HETATM    1  C   UNL     1     -38.479 -34.499  13.191  1.00  0.00    -0.051 A 
HETATM    2  C   UNL     1     -38.676 -34.184  11.835  1.00  0.00     0.027 A 
HETATM    3  C   UNL     1     -39.127 -35.150  10.967  1.00  0.00     0.071 A 
HETATM    4  C   UNL     1     -39.404 -36.440  11.352  1.00  0.00     0.132 A 
HETATM    5  C   UNL     1     -39.210 -36.748  12.680  1.00  0.00     0.044 A 
HETATM    6  C   UNL     1     -38.751 -35.765  13.568  1.00  0.00     0.010 A 
HETATM    7  F   UNL     1     -39.850 -37.363  10.452  1.00  0.00    -0.205 F 
ENDROOT
BRANCH   1   8
HETATM    8  C   UNL     1     -38.000 -33.379  14.047  1.00  0.00     0.100 C 
BRANCH   8   9
HETATM    9  C   UNL     1     -36.757 -33.741  14.717  1.00  0.00     0.070 A 
HETATM   10  N   UNL     1     -35.654 -33.849  13.915  1.00  0.00    -0.175 NA
HETATM   11  N   UNL     1     -34.493 -34.224  14.395  1.00  0.00    -0.243 N 
HETATM   12  H   UNL     1     -33.729 -34.288  13.776  1.00  0.00     0.192 HD
HETATM   13  C   UNL     1     -34.294 -34.526  15.685  1.00  0.00     0.272 A 
HETATM   14  C   UNL     1     -35.358 -34.439  16.559  1.00  0.00     0.046 A 
HETATM   15  O   UNL     1     -33.188 -34.888  16.164  1.00  0.00    -0.266 OA
HETATM   16  C   UNL     1     -35.201 -34.722  17.916  1.00  0.00     0.018 A 
HETATM   17  C   UNL     1     -36.577 -34.042  16.040  1.00  0.00     0.006 A 
HETATM   18  C   UNL     1     -36.274 -34.609  18.774  1.00  0.00     0.001 A 
HETATM   19  C   UNL     1     -37.474 -34.209  18.225  1.00  0.00     0.001 A 
HETATM   20  C   UNL     1     -37.644 -33.924  16.880  1.00  0.00     0.014 A 
ENDBRANCH   8   9
ENDBRANCH   1   8
BRANCH   3  21
HETATM   21  C   UNL     1     -39.348 -34.847   9.535  1.00  0.00     0.257 C 
HETATM   22  N   UNL     1     -40.602 -34.306   9.149  1.00  0.00    -0.345 N 
HETATM   23  C   UNL     1     -40.850 -33.998   7.778  1.00  0.00     0.146 C 
HETATM   24  C   UNL     1     -41.610 -34.078  10.167  1.00  0.00     0.146 C 
HETATM   25  C   UNL     1     -42.321 -34.050   7.425  1.00  0.00     0.145 C 
HETATM   26  N   UNL     1     -42.989 -34.938   8.341  1.00  0.00    -0.349 N 
HETATM   27  C   UNL     1     -42.978 -34.562   9.759  1.00  0.00     0.145 C 
HETATM   28  C   UNL     1     -43.624 -36.111   7.922  1.00  0.00     0.224 C 
HETATM   29  O   UNL     1     -44.200 -36.827   8.817  1.00  0.00    -0.273 OA
HETATM   30  O   UNL     1     -38.470 -35.053   8.666  1.00  0.00    -0.267 OA
BRANCH  28  31
HETATM   31  C   UNL     1     -43.708 -36.626   6.553  1.00  0.00     0.078 A 
HETATM   32  C   UNL     1     -44.998 -36.349   5.814  1.00  0.00     0.015 A 
HETATM   33  C   UNL     1     -44.654 -37.718   6.202  1.00  0.00     0.015 A 
ENDBRANCH  28  31
ENDBRANCH   3  21
TORSDOF 4
ENDMDL
MODEL 15
REMARK VINA RESULT:      -8.7     26.644     28.273
REMARK  4 active torsions:
REMARK  status: ('A' for Active; 'I' for Inactive)
REMARK       I    between atoms: N_1  and  C_17 
REMARK       I    between atoms: N_2  and  C_22 
REMARK    1  A    between atoms: C_12  and  C_13 
REMARK    2  A    between atoms: C_13  and  C_14 
REMARK    3  A    between atoms: C_16  and  C_17 
REMARK    4  A    between atoms: C_22  and  C_23 
ROOT
HETATM    1  C   UNL     1     -23.778 -40.523  17.589  1.00  0.00    -0.051 A 
HETATM    2  C   UNL     1     -23.120 -41.633  17.029  1.00  0.00     0.027 A 
HETATM    3  C   UNL     1     -23.156 -42.846  17.674  1.00  0.00     0.071 A 
HETATM    4  C   UNL     1     -23.812 -43.047  18.865  1.00  0.00     0.132 A 
HETATM    5  C   UNL     1     -24.455 -41.960  19.413  1.00  0.00     0.044 A 
HETATM    6  C   UNL     1     -24.421 -40.722  18.757  1.00  0.00     0.010 A 
HETATM    7  F   UNL     1     -23.819 -44.273  19.467  1.00  0.00    -0.205 F 
ENDROOT
BRANCH   1   8
HETATM    8  C   UNL     1     -23.686 -39.261  16.805  1.00  0.00     0.100 C 
BRANCH   8   9
HETATM    9  C   UNL     1     -24.252 -38.148  17.556  1.00  0.00     0.070 A 
HETATM   10  N   UNL     1     -23.588 -37.799  18.701  1.00  0.00    -0.175 NA
HETATM   11  N   UNL     1     -24.035 -36.851  19.489  1.00  0.00    -0.243 N 
HETATM   12  H   UNL     1     -23.521 -36.638  20.302  1.00  0.00     0.192 HD
HETATM   13  C   UNL     1     -25.157 -36.159  19.245  1.00  0.00     0.272 A 
HETATM   14  C   UNL     1     -25.883 -36.452  18.109  1.00  0.00     0.046 A 
HETATM   15  O   UNL     1     -25.601 -35.248  19.989  1.00  0.00    -0.266 OA
HETATM   16  C   UNL     1     -27.046 -35.749  17.796  1.00  0.00     0.018 A 
HETATM   17  C   UNL     1     -25.400 -37.453  17.286  1.00  0.00     0.006 A 
HETATM   18  C   UNL     1     -27.744 -36.044  16.644  1.00  0.00     0.001 A 
HETATM   19  C   UNL     1     -27.235 -37.046  15.845  1.00  0.00     0.001 A 
HETATM   20  C   UNL     1     -26.082 -37.752  16.143  1.00  0.00     0.014 A 
ENDBRANCH   8   9
ENDBRANCH   1   8
BRANCH   3  21
HETATM   21  C   UNL     1     -22.477 -44.034  17.108  1.00  0.00     0.257 C 
HETATM   22  N   UNL     1     -21.058 -44.066  17.123  1.00  0.00    -0.345 N 
HETATM   23  C   UNL     1     -20.368 -45.196  16.591  1.00  0.00     0.146 C 
HETATM   24  C   UNL     1     -20.337 -42.939  17.685  1.00  0.00     0.146 C 
HETATM   25  C   UNL     1     -18.979 -44.852  16.098  1.00  0.00     0.145 C 
HETATM   26  N   UNL     1     -18.941 -43.457  15.747  1.00  0.00    -0.349 N 
HETATM   27  C   UNL     1     -19.183 -42.492  16.825  1.00  0.00     0.145 C 
HETATM   28  C   UNL     1     -18.689 -43.017  14.444  1.00  0.00     0.224 C 
HETATM   29  O   UNL     1     -18.666 -41.751  14.238  1.00  0.00    -0.273 OA
HETATM   30  O   UNL     1     -23.112 -44.998  16.623  1.00  0.00    -0.267 OA
BRANCH  28  31
HETATM   31  C   UNL     1     -18.445 -43.851  13.264  1.00  0.00     0.078 A 
HETATM   32  C   UNL     1     -17.021 -44.318  13.061  1.00  0.00     0.015 A 
HETATM   33  C   UNL     1     -17.618 -43.354  12.133  1.00  0.00     0.015 A 
ENDBRANCH  28  31
ENDBRANCH   3  21
TORSDOF 4
ENDMDL
MODEL 16
REMARK VINA RESULT:      -8.7     28.269     30.739
REMARK  4 active torsions:
REMARK  status: ('A' for Active; 'I' for Inactive)
REMARK       I    between atoms: N_1  and  C_17 
REMARK       I    between atoms: N_2  and  C_22 
REMARK    1  A    between atoms: C_12  and  C_13 
REMARK    2  A    between atoms: C_13  and  C_14 
REMARK    3  A    between atoms: C_16  and  C_17 
REMARK    4  A    between atoms: C_22  and  C_23 
ROOT
HETATM    1  C   UNL     1     -13.516 -66.390  -3.034  1.00  0.00    -0.051 A 
HETATM    2  C   UNL     1     -13.830 -67.613  -3.655  1.00  0.00     0.027 A 
HETATM    3  C   UNL     1     -12.824 -68.406  -4.150  1.00  0.00     0.071 A 
HETATM    4  C   UNL     1     -11.493 -68.071  -4.075  1.00  0.00     0.132 A 
HETATM    5  C   UNL     1     -11.186 -66.874  -3.468  1.00  0.00     0.044 A 
HETATM    6  C   UNL     1     -12.211 -66.062  -2.961  1.00  0.00     0.010 A 
HETATM    7  F   UNL     1     -10.529 -68.894  -4.582  1.00  0.00    -0.205 F 
ENDROOT
BRANCH   1   8
HETATM    8  C   UNL     1     -14.679 -65.613  -2.523  1.00  0.00     0.100 C 
BRANCH   8   9
HETATM    9  C   UNL     1     -14.359 -64.193  -2.463  1.00  0.00     0.070 A 
HETATM   10  N   UNL     1     -14.277 -63.545  -3.666  1.00  0.00    -0.175 NA
HETATM   11  N   UNL     1     -13.940 -62.280  -3.740  1.00  0.00    -0.243 N 
HETATM   12  H   UNL     1     -13.895 -61.860  -4.630  1.00  0.00     0.192 HD
HETATM   13  C   UNL     1     -13.655 -61.530  -2.666  1.00  0.00     0.272 A 
HETATM   14  C   UNL     1     -13.716 -62.111  -1.416  1.00  0.00     0.046 A 
HETATM   15  O   UNL     1     -13.329 -60.317  -2.718  1.00  0.00    -0.266 OA
HETATM   16  C   UNL     1     -13.448 -61.372  -0.264  1.00  0.00     0.018 A 
HETATM   17  C   UNL     1     -14.073 -63.446  -1.352  1.00  0.00     0.006 A 
HETATM   18  C   UNL     1     -13.536 -61.968   0.976  1.00  0.00     0.001 A 
HETATM   19  C   UNL     1     -13.896 -63.298   1.006  1.00  0.00     0.001 A 
HETATM   20  C   UNL     1     -14.166 -64.044  -0.130  1.00  0.00     0.014 A 
ENDBRANCH   8   9
ENDBRANCH   1   8
BRANCH   3  21
HETATM   21  C   UNL     1     -13.122 -69.700  -4.804  1.00  0.00     0.257 C 
HETATM   22  N   UNL     1     -13.087 -70.877  -4.012  1.00  0.00    -0.345 N 
HETATM   23  C   UNL     1     -13.374 -72.142  -4.606  1.00  0.00     0.146 C 
HETATM   24  C   UNL     1     -12.758 -70.764  -2.603  1.00  0.00     0.146 C 
HETATM   25  C   UNL     1     -12.710 -73.293  -3.881  1.00  0.00     0.145 C 
HETATM   26  N   UNL     1     -11.542 -72.800  -3.197  1.00  0.00    -0.349 N 
HETATM   27  C   UNL     1     -11.759 -71.797  -2.149  1.00  0.00     0.145 C 
HETATM   28  C   UNL     1     -10.251 -73.242  -3.502  1.00  0.00     0.224 C 
HETATM   29  O   UNL     1      -9.279 -72.749  -2.826  1.00  0.00    -0.273 OA
HETATM   30  O   UNL     1     -13.401 -69.783  -6.023  1.00  0.00    -0.267 OA
BRANCH  28  31
HETATM   31  C   UNL     1      -9.874 -74.221  -4.525  1.00  0.00     0.078 A 
HETATM   32  C   UNL     1      -9.841 -75.667  -4.083  1.00  0.00     0.015 A 
HETATM   33  C   UNL     1      -8.597 -74.976  -4.428  1.00  0.00     0.015 A 
ENDBRANCH  28  31
ENDBRANCH   3  21
TORSDOF 4
ENDMDL
MODEL 17
REMARK VINA RESULT:      -8.7     26.952     29.883
REMARK  4 active torsions:
REMARK  status: ('A' for Active; 'I' for Inactive)
REMARK       I    between atoms: N_1  and  C_17 
REMARK       I    between atoms: N_2  and  C_22 
REMARK    1  A    between atoms: C_12  and  C_13 
REMARK    2  A    between atoms: C_13  and  C_14 
REMARK    3  A    between atoms: C_16  and  C_17 
REMARK    4  A    between atoms: C_22  and  C_23 
ROOT
HETATM    1  C   UNL     1     -19.668 -54.677 -13.385  1.00  0.00    -0.051 A 
HETATM    2  C   UNL     1     -19.572 -54.053 -12.128  1.00  0.00     0.027 A 
HETATM    3  C   UNL     1     -19.275 -52.713 -12.052  1.00  0.00     0.071 A 
HETATM    4  C   UNL     1     -19.059 -51.924 -13.157  1.00  0.00     0.132 A 
HETATM    5  C   UNL     1     -19.154 -52.537 -14.386  1.00  0.00     0.044 A 
HETATM    6  C   UNL     1     -19.458 -53.903 -14.468  1.00  0.00     0.010 A 
HETATM    7  F   UNL     1     -18.768 -50.597 -13.029  1.00  0.00    -0.205 F 
ENDROOT
BRANCH   1   8
HETATM    8  C   UNL     1     -20.006 -56.127 -13.356  1.00  0.00     0.100 C 
BRANCH   8   9
HETATM    9  C   UNL     1     -19.600 -56.773 -14.598  1.00  0.00     0.070 A 
HETATM   10  N   UNL     1     -18.253 -56.816 -14.839  1.00  0.00    -0.175 NA
HETATM   11  N   UNL     1     -17.772 -57.321 -15.949  1.00  0.00    -0.243 N 
HETATM   12  H   UNL     1     -16.796 -57.328 -16.075  1.00  0.00     0.192 HD
HETATM   13  C   UNL     1     -18.544 -57.826 -16.922  1.00  0.00     0.272 A 
HETATM   14  C   UNL     1     -19.913 -57.819 -16.753  1.00  0.00     0.046 A 
HETATM   15  O   UNL     1     -18.102 -58.313 -17.994  1.00  0.00    -0.266 OA
HETATM   16  C   UNL     1     -20.762 -58.351 -17.726  1.00  0.00     0.018 A 
HETATM   17  C   UNL     1     -20.407 -57.285 -15.578  1.00  0.00     0.006 A 
HETATM   18  C   UNL     1     -22.126 -58.352 -17.526  1.00  0.00     0.001 A 
HETATM   19  C   UNL     1     -22.585 -57.814 -16.343  1.00  0.00     0.001 A 
HETATM   20  C   UNL     1     -21.755 -57.284 -15.369  1.00  0.00     0.014 A 
ENDBRANCH   8   9
ENDBRANCH   1   8
BRANCH   3  21
HETATM   21  C   UNL     1     -19.170 -52.027 -10.745  1.00  0.00     0.257 C 
HETATM   22  N   UNL     1     -17.951 -52.138 -10.024  1.00  0.00    -0.345 N 
HETATM   23  C   UNL     1     -17.811 -51.486  -8.763  1.00  0.00     0.146 C 
HETATM   24  C   UNL     1     -16.869 -52.919 -10.594  1.00  0.00     0.146 C 
HETATM   25  C   UNL     1     -16.802 -52.167  -7.863  1.00  0.00     0.145 C 
HETATM   26  N   UNL     1     -16.704 -53.554  -8.239  1.00  0.00    -0.349 N 
HETATM   27  C   UNL     1     -16.222 -53.843  -9.594  1.00  0.00     0.145 C 
HETATM   28  C   UNL     1     -17.047 -54.594  -7.370  1.00  0.00     0.224 C 
HETATM   29  O   UNL     1     -16.912 -55.795  -7.798  1.00  0.00    -0.273 OA
HETATM   30  O   UNL     1     -20.113 -51.359 -10.263  1.00  0.00    -0.267 OA
BRANCH  28  31
HETATM   31  C   UNL     1     -17.553 -54.467  -6.001  1.00  0.00     0.078 A 
HETATM   32  C   UNL     1     -16.512 -54.443  -4.905  1.00  0.00     0.015 A 
HETATM   33  C   UNL     1     -17.422 -55.584  -5.029  1.00  0.00     0.015 A 
ENDBRANCH  28  31
ENDBRANCH   3  21
TORSDOF 4
ENDMDL
MODEL 18
REMARK VINA RESULT:      -8.7     28.127     31.254
REMARK  4 active torsions:
REMARK  status: ('A' for Active; 'I' for Inactive)
REMARK       I    between atoms: N_1  and  C_17 
REMARK       I    between atoms: N_2  and  C_22 
REMARK    1  A    between atoms: C_12  and  C_13 
REMARK    2  A    between atoms: C_13  and  C_14 
REMARK    3  A    between atoms: C_16  and  C_17 
REMARK    4  A    between atoms: C_22  and  C_23 
ROOT
HETATM    1  C   UNL     1     -15.885 -39.760   0.246  1.00  0.00    -0.051 A 
HETATM    2  C   UNL     1     -16.482 -39.066   1.314  1.00  0.00     0.027 A 
HETATM    3  C   UNL     1     -17.704 -38.460   1.138  1.00  0.00     0.071 A 
HETATM    4  C   UNL     1     -18.396 -38.490  -0.049  1.00  0.00     0.132 A 
HETATM    5  C   UNL     1     -17.811 -39.170  -1.093  1.00  0.00     0.044 A 
HETATM    6  C   UNL     1     -16.566 -39.790  -0.917  1.00  0.00     0.010 A 
HETATM    7  F   UNL     1     -19.607 -37.874  -0.173  1.00  0.00    -0.205 F 
ENDROOT
BRANCH   1   8
HETATM    8  C   UNL     1     -14.569 -40.388   0.546  1.00  0.00     0.100 C 
BRANCH   8   9
HETATM    9  C   UNL     1     -14.586 -41.803   0.196  1.00  0.00     0.070 A 
HETATM   10  N   UNL     1     -15.440 -42.590   0.920  1.00  0.00    -0.175 NA
HETATM   11  N   UNL     1     -15.500 -43.886   0.734  1.00  0.00    -0.243 N 
HETATM   12  H   UNL     1     -16.131 -44.408   1.281  1.00  0.00     0.192 HD
HETATM   13  C   UNL     1     -14.745 -44.536  -0.163  1.00  0.00     0.272 A 
HETATM   14  C   UNL     1     -13.858 -43.812  -0.933  1.00  0.00     0.046 A 
HETATM   15  O   UNL     1     -14.787 -45.778  -0.354  1.00  0.00    -0.266 OA
HETATM   16  C   UNL     1     -13.063 -44.435  -1.895  1.00  0.00     0.018 A 
HETATM   17  C   UNL     1     -13.805 -42.445  -0.727  1.00  0.00     0.006 A 
HETATM   18  C   UNL     1     -12.199 -43.689  -2.667  1.00  0.00     0.001 A 
HETATM   19  C   UNL     1     -12.172 -42.329  -2.439  1.00  0.00     0.001 A 
HETATM   20  C   UNL     1     -12.956 -41.697  -1.488  1.00  0.00     0.014 A 
ENDBRANCH   8   9
ENDBRANCH   1   8
BRANCH   3  21
HETATM   21  C   UNL     1     -18.359 -37.726   2.244  1.00  0.00     0.257 C 
HETATM   22  N   UNL     1     -19.180 -38.458   3.142  1.00  0.00    -0.345 N 
HETATM   23  C   UNL     1     -19.824 -37.785   4.223  1.00  0.00     0.146 C 
HETATM   24  C   UNL     1     -19.344 -39.885   2.937  1.00  0.00     0.146 C 
HETATM   25  C   UNL     1     -21.090 -38.482   4.672  1.00  0.00     0.145 C 
HETATM   26  N   UNL     1     -21.617 -39.247   3.572  1.00  0.00    -0.349 N 
HETATM   27  C   UNL     1     -20.778 -40.334   3.055  1.00  0.00     0.145 C 
HETATM   28  C   UNL     1     -22.867 -38.983   3.004  1.00  0.00     0.224 C 
HETATM   29  O   UNL     1     -23.249 -39.730   2.034  1.00  0.00    -0.273 OA
HETATM   30  O   UNL     1     -18.211 -36.493   2.407  1.00  0.00    -0.267 OA
BRANCH  28  31
HETATM   31  C   UNL     1     -23.809 -37.931   3.397  1.00  0.00     0.078 A 
HETATM   32  C   UNL     1     -24.902 -38.340   4.358  1.00  0.00     0.015 A 
HETATM   33  C   UNL     1     -25.234 -37.983   2.976  1.00  0.00     0.015 A 
ENDBRANCH  28  31
ENDBRANCH   3  21
TORSDOF 4
ENDMDL
MODEL 19
REMARK VINA RESULT:      -8.6     26.830     29.246
REMARK  4 active torsions:
REMARK  status: ('A' for Active; 'I' for Inactive)
REMARK       I    between atoms: N_1  and  C_17 
REMARK       I    between atoms: N_2  and  C_22 
REMARK    1  A    between atoms: C_12  and  C_13 
REMARK    2  A    between atoms: C_13  and  C_14 
REMARK    3  A    between atoms: C_16  and  C_17 
REMARK    4  A    between atoms: C_22  and  C_23 
ROOT
HETATM    1  C   UNL     1     -22.177 -36.270   0.817  1.00  0.00    -0.051 A 
HETATM    2  C   UNL     1     -21.475 -37.454   1.106  1.00  0.00     0.027 A 
HETATM    3  C   UNL     1     -20.219 -37.386   1.659  1.00  0.00     0.071 A 
HETATM    4  C   UNL     1     -19.587 -36.201   1.953  1.00  0.00     0.132 A 
HETATM    5  C   UNL     1     -20.274 -35.043   1.669  1.00  0.00     0.044 A 
HETATM    6  C   UNL     1     -21.557 -35.108   1.106  1.00  0.00     0.010 A 
HETATM    7  F   UNL     1     -18.338 -36.187   2.503  1.00  0.00    -0.205 F 
ENDROOT
BRANCH   1   8
HETATM    8  C   UNL     1     -23.533 -36.455   0.231  1.00  0.00     0.100 C 
BRANCH   8   9
HETATM    9  C   UNL     1     -24.536 -36.553   1.283  1.00  0.00     0.070 A 
HETATM   10  N   UNL     1     -24.743 -37.804   1.800  1.00  0.00    -0.175 NA
HETATM   11  N   UNL     1     -25.660 -38.026   2.710  1.00  0.00    -0.243 N 
HETATM   12  H   UNL     1     -25.770 -38.944   3.049  1.00  0.00     0.192 HD
HETATM   13  C   UNL     1     -26.455 -37.065   3.202  1.00  0.00     0.272 A 
HETATM   14  C   UNL     1     -26.307 -35.776   2.732  1.00  0.00     0.046 A 
HETATM   15  O   UNL     1     -27.341 -37.258   4.074  1.00  0.00    -0.266 OA
HETATM   16  C   UNL     1     -27.095 -34.735   3.225  1.00  0.00     0.018 A 
HETATM   17  C   UNL     1     -25.337 -35.556   1.773  1.00  0.00     0.006 A 
HETATM   18  C   UNL     1     -26.915 -33.451   2.756  1.00  0.00     0.001 A 
HETATM   19  C   UNL     1     -25.938 -33.265   1.801  1.00  0.00     0.001 A 
HETATM   20  C   UNL     1     -25.149 -34.289   1.304  1.00  0.00     0.014 A 
ENDBRANCH   8   9
ENDBRANCH   1   8
BRANCH   3  21
HETATM   21  C   UNL     1     -19.457 -38.615   1.978  1.00  0.00     0.257 C 
HETATM   22  N   UNL     1     -18.447 -39.032   1.073  1.00  0.00    -0.345 N 
HETATM   23  C   UNL     1     -17.688 -40.209   1.349  1.00  0.00     0.146 C 
HETATM   24  C   UNL     1     -18.207 -38.244  -0.122  1.00  0.00     0.146 C 
HETATM   25  C   UNL     1     -17.149 -40.864   0.095  1.00  0.00     0.145 C 
HETATM   26  N   UNL     1     -17.994 -40.510  -1.015  1.00  0.00    -0.349 N 
HETATM   27  C   UNL     1     -18.074 -39.088  -1.364  1.00  0.00     0.145 C 
HETATM   28  C   UNL     1     -18.717 -41.461  -1.741  1.00  0.00     0.224 C 
HETATM   29  O   UNL     1     -19.433 -41.044  -2.720  1.00  0.00    -0.273 OA
HETATM   30  O   UNL     1     -19.677 -39.287   3.012  1.00  0.00    -0.267 OA
BRANCH  28  31
HETATM   31  C   UNL     1     -18.753 -42.908  -1.507  1.00  0.00     0.078 A 
HETATM   32  C   UNL     1     -17.866 -43.749  -2.397  1.00  0.00     0.015 A 
HETATM   33  C   UNL     1     -19.323 -43.834  -2.521  1.00  0.00     0.015 A 
ENDBRANCH  28  31
ENDBRANCH   3  21
TORSDOF 4
ENDMDL
MODEL 20
REMARK VINA RESULT:      -8.6     32.292     34.824
REMARK  4 active torsions:
REMARK  status: ('A' for Active; 'I' for Inactive)
REMARK       I    between atoms: N_1  and  C_17 
REMARK       I    between atoms: N_2  and  C_22 
REMARK    1  A    between atoms: C_12  and  C_13 
REMARK    2  A    between atoms: C_13  and  C_14 
REMARK    3  A    between atoms: C_16  and  C_17 
REMARK    4  A    between atoms: C_22  and  C_23 
ROOT
HETATM    1  C   UNL     1     -13.132 -44.410  -4.570  1.00  0.00    -0.051 A 
HETATM    2  C   UNL     1     -12.753 -43.442  -5.517  1.00  0.00     0.027 A 
HETATM    3  C   UNL     1     -13.427 -43.356  -6.712  1.00  0.00     0.071 A 
HETATM    4  C   UNL     1     -14.475 -44.179  -7.048  1.00  0.00     0.132 A 
HETATM    5  C   UNL     1     -14.845 -45.126  -6.120  1.00  0.00     0.044 A 
HETATM    6  C   UNL     1     -14.160 -45.216  -4.900  1.00  0.00     0.010 A 
HETATM    7  F   UNL     1     -15.113 -44.052  -8.248  1.00  0.00    -0.205 F 
ENDROOT
BRANCH   1   8
HETATM    8  C   UNL     1     -12.345 -44.412  -3.305  1.00  0.00     0.100 C 
BRANCH   8   9
HETATM    9  C   UNL     1     -13.214 -44.165  -2.162  1.00  0.00     0.070 A 
HETATM   10  N   UNL     1     -13.435 -42.851  -1.849  1.00  0.00    -0.175 NA
HETATM   11  N   UNL     1     -14.152 -42.507  -0.807  1.00  0.00    -0.243 N 
HETATM   12  H   UNL     1     -14.281 -41.548  -0.624  1.00  0.00     0.192 HD
HETATM   13  C   UNL     1     -14.718 -43.395   0.022  1.00  0.00     0.272 A 
HETATM   14  C   UNL     1     -14.542 -44.741  -0.227  1.00  0.00     0.046 A 
HETATM   15  O   UNL     1     -15.408 -43.084   1.027  1.00  0.00    -0.266 OA
HETATM   16  C   UNL     1     -15.126 -45.707   0.593  1.00  0.00     0.018 A 
HETATM   17  C   UNL     1     -13.784 -45.090  -1.329  1.00  0.00     0.006 A 
HETATM   18  C   UNL     1     -14.954 -47.046   0.313  1.00  0.00     0.001 A 
HETATM   19  C   UNL     1     -14.194 -47.361  -0.794  1.00  0.00     0.001 A 
HETATM   20  C   UNL     1     -13.610 -46.412  -1.616  1.00  0.00     0.014 A 
ENDBRANCH   8   9
ENDBRANCH   1   8
BRANCH   3  21
HETATM   21  C   UNL     1     -13.055 -42.345  -7.728  1.00  0.00     0.257 C 
HETATM   22  N   UNL     1     -12.072 -42.693  -8.691  1.00  0.00    -0.345 N 
HETATM   23  C   UNL     1     -11.690 -41.747  -9.689  1.00  0.00     0.146 C 
HETATM   24  C   UNL     1     -11.473 -44.014  -8.637  1.00  0.00     0.146 C 
HETATM   25  C   UNL     1     -10.283 -41.972 -10.199  1.00  0.00     0.145 C 
HETATM   26  N   UNL     1      -9.521 -42.647  -9.181  1.00  0.00    -0.349 N 
HETATM   27  C   UNL     1      -9.974 -43.986  -8.790  1.00  0.00     0.145 C 
HETATM   28  C   UNL     1      -8.398 -42.073  -8.579  1.00  0.00     0.224 C 
HETATM   29  O   UNL     1      -7.782 -42.763  -7.690  1.00  0.00    -0.273 OA
HETATM   30  O   UNL     1     -13.577 -41.207  -7.761  1.00  0.00    -0.267 OA
BRANCH  28  31
HETATM   31  C   UNL     1      -7.833 -40.748  -8.850  1.00  0.00     0.078 A 
HETATM   32  C   UNL     1      -6.721 -40.694  -9.872  1.00  0.00     0.015 A 
HETATM   33  C   UNL     1      -6.437 -40.417  -8.462  1.00  0.00     0.015 A 
ENDBRANCH  28  31
ENDBRANCH   3  21
TORSDOF 4
ENDMDL
