@<TRIPOS>MOLECULE
aspirin_entry_00001_conf_02
20 20 1
SMALL
NO_CHARGES


@<TRIPOS>ATOM
      1 C         -13.9949  -57.7687    2.0126 C.3       1 UNL1        0.0000
      2 C         -14.1109  -58.7360    0.8920 C.2       1 UNL1        0.0000
      3 C         -13.9900  -59.2203   -1.4940 C.ar      1 UNL1        0.0000
      4 C         -13.4973  -60.5072   -1.5398 C.ar      1 UNL1        0.0000
      5 C         -13.5897  -61.3185   -2.6533 C.ar      1 UNL1        0.0000
      6 C         -14.2061  -60.8153   -3.7732 C.ar      1 UNL1        0.0000
      7 C         -14.7158  -59.5352   -3.7818 C.ar      1 UNL1        0.0000
      8 C         -14.6036  -58.7452   -2.6368 C.ar      1 UNL1        0.0000
      9 C         -15.1562  -57.3970   -2.6880 C.2       1 UNL1        0.0000
     10 O         -14.3960  -59.9587    1.0726 O.2       1 UNL1        0.0000
     11 O         -13.9207  -58.3825   -0.4140 O.3       1 UNL1        0.0000
     12 O         -15.6959  -56.9583   -3.7357 O.co2     1 UNL1       -0.5000
     13 O         -15.1066  -56.5514   -1.5924 O.co2     1 UNL1       -0.5000
     14 H         -14.1859  -58.2712    2.9378 H         1 UNL1        0.0000
     15 H         -14.7082  -56.9825    1.8799 H         1 UNL1        0.0000
     16 H         -13.0079  -57.3564    2.0266 H         1 UNL1        0.0000
     17 H         -13.0354  -60.8839   -0.6977 H         1 UNL1        0.0000
     18 H         -13.2069  -62.2774   -2.6440 H         1 UNL1        0.0000
     19 H         -14.2880  -61.4021   -4.6183 H         1 UNL1        0.0000
     20 H         -15.1777  -59.1640   -4.6271 H         1 UNL1        0.0000
@<TRIPOS>BOND
     1    1    2 1
     2    1   14 1
     3    1   15 1
     4    1   16 1
     5    2   10 2
     6    2   11 1
     7    3    4 ar
     8    3    8 ar
     9    3   11 1
    10    4    5 ar
    11    4   17 1
    12    5    6 ar
    13    5   18 1
    14    6    7 ar
    15    6   19 1
    16    7    8 ar
    17    7   20 1
    18    8    9 1
    19    9   12 ar
    20    9   13 ar
@<TRIPOS>SUBSTRUCTURE
1 UNL1 1
@<TRIPOS>COMMENT
aspirin
PLANTSproteinTorsions
102
1 34.5596
42 208.4399
151 177.9198
173 171.7371
432 128.5069
491 52.6716
531 144.5144
563 152.2604
572 291.3361
629 10.0272
730 64.5970
826 60.2738
895 50.5720
921 256.2270
954 56.5795
1044 195.3481
1258 180.8764
1480 228.0214
1534 179.3794
1612 255.7090
1654 234.9422
1680 261.0053
1704 111.5690
1767 267.4853
1795 85.9578
1847 113.7907
1879 182.7000
1921 175.1161
1944 52.6153
1966 59.1530
1975 224.3569
2067 327.5952
2118 61.5763
2167 139.2368
2220 97.1412
2243 176.4269
2272 121.0255
2294 35.8088
2609 256.5595
2728 302.3639
2931 134.5645
3031 145.5825
3044 52.5483
3058 209.9120
3085 155.5319
3166 13.2266
3188 129.8071
3496 175.1968
3614 351.5084
3656 244.4104
3697 18.2126
3722 169.5223
3847 76.7901
3888 60.1301
4051 137.5564
4174 78.9520
4734 343.7366
4804 330.5698
4952 27.1393
5093 60.4942
5103 233.7357
5144 291.2643
5332 231.2641
5363 85.4731
5457 253.4299
5683 14.9657
5900 253.3392
6049 261.4750
6089 73.9127
6125 142.7731
6181 196.5812
6190 61.1457
6214 132.7623
6331 15.6389
6344 348.1421
6432 225.6076
7006 204.6235
7253 28.1308
7344 104.7379
7385 212.6495
7394 169.0067
7408 269.3401
7540 182.3775
7948 234.2530
8021 258.3605
8226 260.2188
8265 288.6254
8391 130.3403
8443 92.7769
8487 54.8575
8515 267.9403
8527 211.8901
8693 221.0659
8705 23.9980
8731 222.4963
8771 291.5405
8793 252.7923
8887 223.0453
8910 50.9976
8921 273.6999
8973 192.4858
8998 204.7912
PLANTSmolcadARTstart hb
PLANTSmolcadARTstart HB
LINES
-14.396 -59.9587 1.07262 -16.346 -59.843 1.833 0 255 0 5
-15.6959 -56.9583 -3.73574 -16.6598 -58.1895 -5.13748 0 255 0 5
PLANTSmolcadARTstart HBCH
LINES
PLANTSmolcadARTstart HB-CHO
LINES
PLANTSmolcadARTend
PLANTSmolcadARTstart HB_WATER
LINES
PLANTSmolcadARTend

PLANTSmolcadARTend

