@<TRIPOS>MOLECULE
aspirin_entry_00001_conf_08
20 20 1
SMALL
NO_CHARGES


@<TRIPOS>ATOM
      1 C         -32.4114  -47.3433    7.0857 C.3       1 UNL1        0.0000
      2 C         -33.3305  -47.3035    5.9202 C.2       1 UNL1        0.0000
      3 C         -33.5506  -44.8765    5.8606 C.ar      1 UNL1        0.0000
      4 C         -33.4800  -44.5180    7.1900 C.ar      1 UNL1        0.0000
      5 C         -33.2193  -43.2315    7.6187 C.ar      1 UNL1        0.0000
      6 C         -33.0192  -42.2593    6.6689 C.ar      1 UNL1        0.0000
      7 C         -33.0791  -42.5631    5.3263 C.ar      1 UNL1        0.0000
      8 C         -33.3447  -43.8752    4.9316 C.ar      1 UNL1        0.0000
      9 C         -33.3993  -44.1538    3.5016 C.2       1 UNL1        0.0000
     10 O         -33.7378  -48.3532    5.3361 O.2       1 UNL1        0.0000
     11 O         -33.8058  -46.1367    5.3915 O.3       1 UNL1        0.0000
     12 O         -33.9211  -45.2128    3.0682 O.co2     1 UNL1       -0.5000
     13 O         -32.8801  -43.2698    2.5707 O.co2     1 UNL1       -0.5000
     14 H         -32.1769  -48.3608    7.3195 H         1 UNL1        0.0000
     15 H         -32.8843  -46.8838    7.9282 H         1 UNL1        0.0000
     16 H         -31.5124  -46.8143    6.8487 H         1 UNL1        0.0000
     17 H         -33.6298  -45.2494    7.9021 H         1 UNL1        0.0000
     18 H         -33.1750  -43.0068    8.6255 H         1 UNL1        0.0000
     19 H         -32.8224  -41.2901    6.9638 H         1 UNL1        0.0000
     20 H         -32.9275  -41.8272    4.6183 H         1 UNL1        0.0000
@<TRIPOS>BOND
     1    1    2 1
     2    1   14 1
     3    1   15 1
     4    1   16 1
     5    2   10 2
     6    2   11 1
     7    3    4 ar
     8    3    8 ar
     9    3   11 1
    10    4    5 ar
    11    4   17 1
    12    5    6 ar
    13    5   18 1
    14    6    7 ar
    15    6   19 1
    16    7    8 ar
    17    7   20 1
    18    8    9 1
    19    9   12 ar
    20    9   13 ar
@<TRIPOS>SUBSTRUCTURE
1 UNL1 1
@<TRIPOS>COMMENT
aspirin
PLANTSproteinTorsions
102
1 188.2182
42 80.6223
151 164.7822
173 66.9352
432 110.0431
491 153.7543
531 123.5538
563 238.8678
572 36.3190
629 232.4909
730 172.8689
826 271.7053
895 56.9791
921 198.1828
954 58.9117
1044 167.9078
1258 16.3597
1480 186.5410
1534 29.7988
1612 216.7229
1654 211.1586
1680 219.5558
1704 97.6229
1767 257.2195
1795 193.5007
1847 6.9961
1879 240.6042
1921 235.8326
1944 54.0267
1966 10.7263
1975 150.9047
2067 155.2826
2118 49.7989
2167 102.8736
2220 231.2775
2243 174.7204
2272 101.3755
2294 160.6362
2609 118.6917
2728 17.5768
2931 211.2694
3031 150.0946
3044 121.6192
3058 3.2302
3085 51.9477
3166 356.5632
3188 6.1403
3496 141.6564
3614 116.2182
3656 203.9105
3697 285.3683
3722 19.0579
3847 110.9334
3888 89.6127
4051 243.0385
4174 261.0755
4734 330.9318
4804 83.1794
4952 258.9857
5093 24.4049
5103 291.0052
5144 158.9382
5332 276.9130
5363 117.1219
5457 243.1037
5683 108.8154
5900 182.8621
6049 170.8981
6089 278.1055
6125 165.0799
6181 173.8967
6190 74.2781
6214 71.6017
6331 44.9065
6344 319.0290
6432 85.4523
7006 12.8433
7253 85.5188
7344 106.0648
7385 18.8287
7394 153.7606
7408 186.0218
7540 106.3851
7948 316.8380
8021 290.0242
8226 72.4800
8265 217.0938
8391 317.5133
8443 217.1606
8487 92.3883
8515 73.7950
8527 143.4461
8693 195.0199
8705 126.3310
8731 198.2036
8771 203.6628
8793 142.2883
8887 205.1471
8910 82.9144
8921 141.3295
8973 260.0211
8998 211.3162
PLANTSmolcadARTstart hb
PLANTSmolcadARTstart HB
LINES
-33.9211 -45.2128 3.06824 -34.1379 -46.9997 1.98108 0 255 0 5
PLANTSmolcadARTstart HBCH
LINES
PLANTSmolcadARTstart HB-CHO
LINES
PLANTSmolcadARTend
PLANTSmolcadARTstart HB_WATER
LINES
PLANTSmolcadARTend

PLANTSmolcadARTend

