@<TRIPOS>MOLECULE
aspirin_entry_00001_conf_22
20 20 1
SMALL
NO_CHARGES


@<TRIPOS>ATOM
      1 C         -12.4051  -42.0741   -0.0842 C.3       1 UNL1        0.0000
      2 C         -12.7619  -43.4509    0.3423 C.2       1 UNL1        0.0000
      3 C         -13.9465  -45.5420   -0.0655 C.ar      1 UNL1        0.0000
      4 C         -14.2193  -45.9750    1.2148 C.ar      1 UNL1        0.0000
      5 C         -14.6171  -47.2629    1.5143 C.ar      1 UNL1        0.0000
      6 C         -14.7483  -48.1582    0.4806 C.ar      1 UNL1        0.0000
      7 C         -14.4878  -47.7782   -0.8179 C.ar      1 UNL1        0.0000
      8 C         -14.0881  -46.4672   -1.0813 C.ar      1 UNL1        0.0000
      9 C         -13.8226  -46.1065   -2.4688 C.2       1 UNL1        0.0000
     10 O         -12.3583  -43.9531    1.4349 O.2       1 UNL1        0.0000
     11 O         -13.5503  -44.2774   -0.4075 O.3       1 UNL1        0.0000
     12 O         -13.2009  -45.0516   -2.7554 O.co2     1 UNL1       -0.5000
     13 O         -14.2438  -46.9054   -3.5185 O.co2     1 UNL1       -0.5000
     14 H         -11.7839  -41.6208    0.6598 H         1 UNL1        0.0000
     15 H         -13.2972  -41.4959   -0.2044 H         1 UNL1        0.0000
     16 H         -11.8781  -42.1145   -1.0142 H         1 UNL1        0.0000
     17 H         -14.1211  -45.3012    1.9899 H         1 UNL1        0.0000
     18 H         -14.8117  -47.5448    2.4883 H         1 UNL1        0.0000
     19 H         -15.0446  -49.1268    0.6785 H         1 UNL1        0.0000
     20 H         -14.5887  -48.4566   -1.5895 H         1 UNL1        0.0000
@<TRIPOS>BOND
     1    1    2 1
     2    1   14 1
     3    1   15 1
     4    1   16 1
     5    2   10 2
     6    2   11 1
     7    3    4 ar
     8    3    8 ar
     9    3   11 1
    10    4    5 ar
    11    4   17 1
    12    5    6 ar
    13    5   18 1
    14    6    7 ar
    15    6   19 1
    16    7    8 ar
    17    7   20 1
    18    8    9 1
    19    9   12 ar
    20    9   13 ar
@<TRIPOS>SUBSTRUCTURE
1 UNL1 1
@<TRIPOS>COMMENT
aspirin
PLANTSproteinTorsions
102
1 19.1502
42 0.3357
151 238.4508
173 45.6129
432 89.7082
491 36.8480
531 172.9343
563 142.0580
572 10.1644
629 198.2735
730 47.3787
826 61.4257
895 257.4741
921 312.4669
954 49.5530
1044 101.5877
1258 168.3884
1480 14.4367
1534 79.4762
1612 217.5195
1654 189.5521
1680 254.5779
1704 165.6138
1767 162.6445
1795 80.6648
1847 113.7193
1879 182.7425
1921 80.7661
1944 65.7890
1966 141.8083
1975 324.5085
2067 315.4470
2118 50.8715
2167 266.8962
2220 156.9406
2243 169.9510
2272 296.0872
2294 124.9819
2609 77.9945
2728 240.0131
2931 110.2971
3031 115.1308
3044 45.1423
3058 263.1519
3085 133.1605
3166 7.1724
3188 75.1807
3496 176.1937
3614 328.3853
3656 318.1541
3697 23.9839
3722 188.0296
3847 72.0273
3888 284.8680
4051 140.0627
4174 131.0822
4734 268.1030
4804 292.6501
4952 201.1427
5093 326.5090
5103 296.4586
5144 184.2066
5332 232.2228
5363 87.2313
5457 191.2588
5683 7.2822
5900 255.3097
6049 263.3294
6089 125.3518
6125 133.3749
6181 144.4136
6190 59.4387
6214 132.4581
6331 192.4793
6344 269.5193
6432 268.4400
7006 163.5497
7253 36.5747
7344 100.5984
7385 209.6310
7394 166.6687
7408 63.6984
7540 187.7505
7948 184.7765
8021 167.7949
8226 142.8189
8265 267.4961
8391 248.4424
8443 95.9891
8487 44.9149
8515 209.7924
8527 191.7286
8693 263.0548
8705 68.5565
8731 53.5031
8771 282.9771
8793 262.2529
8887 232.0900
8910 51.9458
8921 261.8292
8973 211.6790
8998 329.1214
PLANTSmolcadARTstart hb
PLANTSmolcadARTstart HB
LINES
-12.3583 -43.9531 1.43487 -10.4881 -44.0989 1.28336 0 255 0 5
PLANTSmolcadARTstart HBCH
LINES
PLANTSmolcadARTstart HB-CHO
LINES
PLANTSmolcadARTend
PLANTSmolcadARTstart HB_WATER
LINES
PLANTSmolcadARTend

PLANTSmolcadARTend

