@<TRIPOS>MOLECULE
aspirin_entry_00001_conf_69
20 20 1
SMALL
NO_CHARGES


@<TRIPOS>ATOM
      1 C         -63.6911  -44.6840   -7.4857 C.3       1 UNL1        0.0000
      2 C         -64.4412  -44.4173   -8.7391 C.2       1 UNL1        0.0000
      3 C         -65.9812  -46.2941   -8.5201 C.ar      1 UNL1        0.0000
      4 C         -66.1621  -46.3648   -7.1551 C.ar      1 UNL1        0.0000
      5 C         -66.7166  -47.4561   -6.5161 C.ar      1 UNL1        0.0000
      6 C         -67.1088  -48.5265   -7.2828 C.ar      1 UNL1        0.0000
      7 C         -66.9504  -48.5085   -8.6514 C.ar      1 UNL1        0.0000
      8 C         -66.3861  -47.3872   -9.2613 C.ar      1 UNL1        0.0000
      9 C         -66.2364  -47.4089  -10.7114 C.2       1 UNL1        0.0000
     10 O         -64.2064  -43.4104   -9.4738 O.2       1 UNL1        0.0000
     11 O         -65.4371  -45.2346   -9.1942 O.3       1 UNL1        0.0000
     12 O         -66.4014  -48.4718  -11.3630 O.co2     1 UNL1       -0.5000
     13 O         -65.9068  -46.2677  -11.4231 O.co2     1 UNL1       -0.5000
     14 H         -62.9643  -43.9133   -7.3350 H         1 UNL1        0.0000
     15 H         -63.1973  -45.6301   -7.5604 H         1 UNL1        0.0000
     16 H         -64.3712  -44.7007   -6.6601 H         1 UNL1        0.0000
     17 H         -65.8678  -45.5598   -6.5807 H         1 UNL1        0.0000
     18 H         -66.8342  -47.4668   -5.4904 H         1 UNL1        0.0000
     19 H         -67.5263  -49.3541   -6.8290 H         1 UNL1        0.0000
     20 H         -67.2476  -49.3165   -9.2210 H         1 UNL1        0.0000
@<TRIPOS>BOND
     1    1    2 1
     2    1   14 1
     3    1   15 1
     4    1   16 1
     5    2   10 2
     6    2   11 1
     7    3    4 ar
     8    3    8 ar
     9    3   11 1
    10    4    5 ar
    11    4   17 1
    12    5    6 ar
    13    5   18 1
    14    6    7 ar
    15    6   19 1
    16    7    8 ar
    17    7   20 1
    18    8    9 1
    19    9   12 ar
    20    9   13 ar
@<TRIPOS>SUBSTRUCTURE
1 UNL1 1
@<TRIPOS>COMMENT
aspirin
PLANTSproteinTorsions
102
1 23.4380
42 345.5880
151 88.8624
173 73.9219
432 354.3519
491 252.3021
531 24.7017
563 354.6382
572 115.8351
629 163.6005
730 136.1401
826 285.4458
895 140.0557
921 134.9676
954 0.5069
1044 83.6668
1258 213.0261
1480 347.3138
1534 32.0659
1612 183.5242
1654 325.1957
1680 141.6689
1704 226.9791
1767 178.4173
1795 235.5078
1847 98.4279
1879 174.0203
1921 161.6906
1944 109.8376
1966 14.7929
1975 183.3294
2067 121.5631
2118 292.9388
2167 193.9574
2220 48.8765
2243 106.7653
2272 226.5829
2294 225.9283
2609 341.8821
2728 85.2020
2931 178.6517
3031 12.5271
3044 140.3477
3058 184.4278
3085 218.8859
3166 165.7099
3188 199.8365
3496 132.9830
3614 197.5748
3656 108.6892
3697 332.7794
3722 303.5804
3847 102.6428
3888 32.5838
4051 240.4873
4174 236.4740
4734 208.4779
4804 68.7450
4952 75.6590
5093 0.7952
5103 256.0847
5144 255.6169
5332 68.6543
5363 124.2893
5457 226.4972
5683 252.8588
5900 98.6188
6049 163.8117
6089 342.9956
6125 91.2595
6181 55.2321
6190 304.0353
6214 136.5319
6331 139.6014
6344 130.0090
6432 75.6630
7006 247.3055
7253 101.5750
7344 236.9556
7385 258.5100
7394 209.9333
7408 346.2699
7540 256.5995
7948 99.3261
8021 148.1251
8226 167.4123
8265 120.7500
8391 268.2740
8443 155.1017
8487 237.6182
8515 105.0740
8527 224.4641
8693 30.8564
8705 253.4915
8731 170.1795
8771 137.0515
8793 54.6616
8887 337.8189
8910 67.9038
8921 158.5196
8973 266.2533
8998 298.3386
PLANTSmolcadARTstart hb
PLANTSmolcadARTstart HB
LINES
-66.4014 -48.4718 -11.363 -67.8039 -50.2392 -11.7767 0 255 0 5
PLANTSmolcadARTstart HBCH
LINES
-66.4014 -48.4718 -11.363 -64.7586 -48.3665 -12.6688 255 0 0 5
-65.9068 -46.2677 -11.4231 -64.1627 -46.8765 -12.3663 255 0 0 5
PLANTSmolcadARTstart HB-CHO
LINES
PLANTSmolcadARTend
PLANTSmolcadARTstart HB_WATER
LINES
PLANTSmolcadARTend

PLANTSmolcadARTend

