@<TRIPOS>MOLECULE
aspirin_entry_00001_conf_27
20 20 1
SMALL
NO_CHARGES


@<TRIPOS>ATOM
      1 C         -12.9086  -64.1105   -2.0308 C.3       1 UNL1        0.0000
      2 C         -13.2546  -62.9812   -1.1310 C.2       1 UNL1        0.0000
      3 C         -13.4878  -60.5824   -0.7654 C.ar      1 UNL1        0.0000
      4 C         -13.2380  -60.5220    0.5892 C.ar      1 UNL1        0.0000
      5 C         -13.4360  -59.3868    1.3499 C.ar      1 UNL1        0.0000
      6 C         -13.9061  -58.2589    0.7219 C.ar      1 UNL1        0.0000
      7 C         -14.1727  -58.2646   -0.6299 C.ar      1 UNL1        0.0000
      8 C         -13.9596  -59.4313   -1.3656 C.ar      1 UNL1        0.0000
      9 C         -14.2543  -59.3945   -2.7930 C.2       1 UNL1        0.0000
     10 O         -13.5254  -63.1455    0.0972 O.2       1 UNL1        0.0000
     11 O         -13.3061  -61.6840   -1.5570 O.3       1 UNL1        0.0000
     12 O         -14.6431  -58.3342   -3.3463 O.co2     1 UNL1       -0.5000
     13 O         -14.1204  -60.5191   -3.5898 O.co2     1 UNL1       -0.5000
     14 H         -12.9310  -65.0262   -1.4777 H         1 UNL1        0.0000
     15 H         -11.9279  -63.9597   -2.4310 H         1 UNL1        0.0000
     16 H         -13.6168  -64.1585   -2.8310 H         1 UNL1        0.0000
     17 H         -12.8842  -61.3696    1.0592 H         1 UNL1        0.0000
     18 H         -13.2353  -59.3854    2.3627 H         1 UNL1        0.0000
     19 H         -14.0621  -57.3975    1.2685 H         1 UNL1        0.0000
     20 H         -14.5256  -57.4132   -1.0949 H         1 UNL1        0.0000
@<TRIPOS>BOND
     1    1    2 1
     2    1   14 1
     3    1   15 1
     4    1   16 1
     5    2   10 2
     6    2   11 1
     7    3    4 ar
     8    3    8 ar
     9    3   11 1
    10    4    5 ar
    11    4   17 1
    12    5    6 ar
    13    5   18 1
    14    6    7 ar
    15    6   19 1
    16    7    8 ar
    17    7   20 1
    18    8    9 1
    19    9   12 ar
    20    9   13 ar
@<TRIPOS>SUBSTRUCTURE
1 UNL1 1
@<TRIPOS>COMMENT
aspirin
PLANTSproteinTorsions
102
1 266.2210
42 131.3714
151 313.9220
173 183.6660
432 122.6684
491 40.0988
531 131.5378
563 274.1967
572 94.5142
629 189.1521
730 50.0394
826 34.6956
895 253.1892
921 223.6913
954 39.3008
1044 60.3697
1258 218.6127
1480 251.8651
1534 62.3603
1612 152.6164
1654 230.2088
1680 334.5037
1704 164.9709
1767 275.9788
1795 256.1183
1847 121.8184
1879 189.0077
1921 84.2683
1944 247.2811
1966 37.0469
1975 80.2576
2067 341.1223
2118 51.9857
2167 85.0555
2220 95.4533
2243 197.1581
2272 120.5912
2294 347.1947
2609 80.3514
2728 305.1861
2931 114.9257
3031 120.2375
3044 308.8510
3058 306.7588
3085 184.2551
3166 336.5925
3188 70.8742
3496 159.2642
3614 312.6814
3656 126.8794
3697 110.0282
3722 203.9490
3847 44.3631
3888 323.6999
4051 221.1861
4174 88.9049
4734 267.8440
4804 222.9891
4952 257.2846
5093 211.3470
5103 240.1142
5144 183.7702
5332 161.3781
5363 102.0161
5457 262.5617
5683 142.1574
5900 164.5448
6049 235.4229
6089 93.9772
6125 113.2011
6181 217.7864
6190 182.6788
6214 239.1905
6331 227.2545
6344 264.8680
6432 253.5022
7006 227.7198
7253 274.1290
7344 75.9840
7385 281.2389
7394 270.2533
7408 264.0661
7540 272.3326
7948 205.4053
8021 271.1485
8226 259.8376
8265 171.9332
8391 286.1574
8443 69.4606
8487 24.1161
8515 290.6705
8527 193.1522
8693 165.0096
8705 20.1358
8731 37.5933
8771 344.4403
8793 325.8369
8887 106.4160
8910 59.1718
8921 253.9549
8973 161.9700
8998 64.6873
PLANTSmolcadARTstart hb
PLANTSmolcadARTstart HB
LINES
PLANTSmolcadARTstart HBCH
LINES
PLANTSmolcadARTstart HB-CHO
LINES
PLANTSmolcadARTend
PLANTSmolcadARTstart HB_WATER
LINES
PLANTSmolcadARTend

PLANTSmolcadARTend

