@<TRIPOS>MOLECULE
aspirin_entry_00001_conf_99
20 20 1
SMALL
NO_CHARGES


@<TRIPOS>ATOM
      1 C         -21.5190  -42.3188  -10.8766 C.3       1 UNL1        0.0000
      2 C         -22.0860  -42.9481   -9.6571 C.2       1 UNL1        0.0000
      3 C         -22.8803  -44.9731  -10.7573 C.ar      1 UNL1        0.0000
      4 C         -22.0452  -45.1073  -11.8461 C.ar      1 UNL1        0.0000
      5 C         -22.3402  -45.8981  -12.9389 C.ar      1 UNL1        0.0000
      6 C         -23.5286  -46.5873  -12.9390 C.ar      1 UNL1        0.0000
      7 C         -24.4003  -46.4887  -11.8765 C.ar      1 UNL1        0.0000
      8 C         -24.0670  -45.6794  -10.7894 C.ar      1 UNL1        0.0000
      9 C         -25.0171  -45.6030   -9.6861 C.2       1 UNL1        0.0000
     10 O         -22.1056  -42.3616   -8.5326 O.2       1 UNL1        0.0000
     11 O         -22.6286  -44.2021   -9.6549 O.3       1 UNL1        0.0000
     12 O         -25.8822  -46.4994   -9.5141 O.co2     1 UNL1       -0.5000
     13 O         -25.0053  -44.5461   -8.7915 O.co2     1 UNL1       -0.5000
     14 H         -21.1555  -41.3414  -10.6367 H         1 UNL1        0.0000
     15 H         -22.2798  -42.2425  -11.6249 H         1 UNL1        0.0000
     16 H         -20.7142  -42.9190  -11.2460 H         1 UNL1        0.0000
     17 H         -21.1527  -44.5896  -11.8442 H         1 UNL1        0.0000
     18 H         -21.6851  -45.9701  -13.7337 H         1 UNL1        0.0000
     19 H         -23.7721  -47.1854  -13.7440 H         1 UNL1        0.0000
     20 H         -25.2915  -47.0097  -11.8836 H         1 UNL1        0.0000
@<TRIPOS>BOND
     1    1    2 1
     2    1   14 1
     3    1   15 1
     4    1   16 1
     5    2   10 2
     6    2   11 1
     7    3    4 ar
     8    3    8 ar
     9    3   11 1
    10    4    5 ar
    11    4   17 1
    12    5    6 ar
    13    5   18 1
    14    6    7 ar
    15    6   19 1
    16    7    8 ar
    17    7   20 1
    18    8    9 1
    19    9   12 ar
    20    9   13 ar
@<TRIPOS>SUBSTRUCTURE
1 UNL1 1
@<TRIPOS>COMMENT
aspirin
PLANTSproteinTorsions
102
1 164.8796
42 14.5584
151 223.8905
173 229.3678
432 4.1755
491 201.8798
531 70.5266
563 198.8298
572 62.8220
629 36.9900
730 241.3804
826 201.3604
895 236.9536
921 4.1162
954 13.9953
1044 356.0235
1258 69.2422
1480 57.1595
1534 2.0036
1612 315.7059
1654 171.4799
1680 217.7633
1704 209.9569
1767 121.6713
1795 72.9831
1847 334.6295
1879 171.0855
1921 169.3596
1944 148.3594
1966 220.5324
1975 10.1801
2067 236.6566
2118 138.4953
2167 162.4908
2220 292.3667
2243 132.5035
2272 94.2812
2294 168.9431
2609 25.4905
2728 80.6669
2931 245.3752
3031 336.8464
3044 159.4683
3058 39.3096
3085 259.3550
3166 2.3918
3188 231.2067
3496 35.1932
3614 318.9609
3656 156.5751
3697 312.1052
3722 41.0071
3847 242.2962
3888 67.0445
4051 259.3574
4174 329.2415
4734 269.5158
4804 105.1558
4952 140.2384
5093 19.4495
5103 214.1290
5144 7.8211
5332 313.7022
5363 203.7707
5457 105.2401
5683 87.4615
5900 176.5915
6049 45.0763
6089 86.0277
6125 7.8193
6181 48.3848
6190 57.1953
6214 9.9196
6331 48.4528
6344 181.0448
6432 358.0605
7006 11.7261
7253 260.6685
7344 316.8867
7385 135.2259
7394 196.4743
7408 154.5198
7540 130.6618
7948 298.2937
8021 184.5770
8226 162.3118
8265 162.6991
8391 233.8893
8443 65.1505
8487 94.7290
8515 16.1286
8527 238.4461
8693 227.1736
8705 156.4202
8731 156.5432
8771 206.7489
8793 263.1196
8887 85.2449
8910 80.9265
8921 249.8489
8973 213.6878
8998 133.2061
PLANTSmolcadARTstart hb
PLANTSmolcadARTstart HB
LINES
PLANTSmolcadARTstart HBCH
LINES
-25.8822 -46.4994 -9.51405 -26.8653 -47.7591 -9.93821 255 0 0 5
PLANTSmolcadARTstart HB-CHO
LINES
PLANTSmolcadARTend
PLANTSmolcadARTstart HB_WATER
LINES
PLANTSmolcadARTend

PLANTSmolcadARTend

