@<TRIPOS>MOLECULE
aspirin_entry_00001_conf_05
20 20 1
SMALL
NO_CHARGES


@<TRIPOS>ATOM
      1 C         -12.1928  -58.7641    0.7438 C.3       1 UNL1        0.0000
      2 C         -12.4083  -60.2126    0.4980 C.2       1 UNL1        0.0000
      3 C         -13.5964  -61.9937   -0.6675 C.ar      1 UNL1        0.0000
      4 C         -13.6413  -62.9743    0.3005 C.ar      1 UNL1        0.0000
      5 C         -13.9771  -64.2879    0.0385 C.ar      1 UNL1        0.0000
      6 C         -14.2828  -64.6335   -1.2555 C.ar      1 UNL1        0.0000
      7 C         -14.2529  -63.6928   -2.2618 C.ar      1 UNL1        0.0000
      8 C         -13.9091  -62.3747   -1.9579 C.ar      1 UNL1        0.0000
      9 C         -13.8896  -61.4110   -3.0518 C.2       1 UNL1        0.0000
     10 O         -11.8063  -61.1136    1.1571 O.2       1 UNL1        0.0000
     11 O         -13.2696  -60.6820   -0.4532 O.3       1 UNL1        0.0000
     12 O         -14.2072  -61.7517   -4.2199 O.co2     1 UNL1       -0.5000
     13 O         -13.5209  -60.0918   -2.8487 O.co2     1 UNL1       -0.5000
     14 H         -11.4794  -58.6391    1.5315 H         1 UNL1        0.0000
     15 H         -13.1189  -58.3089    1.0260 H         1 UNL1        0.0000
     16 H         -11.8253  -58.3021   -0.1482 H         1 UNL1        0.0000
     17 H         -13.4122  -62.7130    1.2720 H         1 UNL1        0.0000
     18 H         -13.9987  -64.9906    0.7946 H         1 UNL1        0.0000
     19 H         -14.5372  -65.6089   -1.4770 H         1 UNL1        0.0000
     20 H         -14.4840  -63.9600   -3.2318 H         1 UNL1        0.0000
@<TRIPOS>BOND
     1    1    2 1
     2    1   14 1
     3    1   15 1
     4    1   16 1
     5    2   10 2
     6    2   11 1
     7    3    4 ar
     8    3    8 ar
     9    3   11 1
    10    4    5 ar
    11    4   17 1
    12    5    6 ar
    13    5   18 1
    14    6    7 ar
    15    6   19 1
    16    7    8 ar
    17    7   20 1
    18    8    9 1
    19    9   12 ar
    20    9   13 ar
@<TRIPOS>SUBSTRUCTURE
1 UNL1 1
@<TRIPOS>COMMENT
aspirin
PLANTSproteinTorsions
102
1 33.3268
42 1.4747
151 239.7219
173 46.9938
432 125.1913
491 28.4980
531 144.1039
563 147.6370
572 296.0827
629 186.9762
730 45.3389
826 1.8871
895 255.2199
921 312.0624
954 43.2141
1044 51.3151
1258 146.9452
1480 57.2521
1534 65.4374
1612 217.7089
1654 190.4108
1680 23.8830
1704 165.5847
1767 264.9897
1795 256.1324
1847 114.9142
1879 187.0632
1921 83.1803
1944 220.5478
1966 56.1691
1975 62.9578
2067 22.8919
2118 247.2876
2167 266.8693
2220 155.3686
2243 174.2906
2272 121.8140
2294 38.9627
2609 258.2373
2728 31.7312
2931 112.2362
3031 71.7256
3044 81.9826
3058 208.0035
3085 183.1199
3166 7.7467
3188 73.8844
3496 172.2967
3614 309.3968
3656 331.0638
3697 96.4884
3722 188.7694
3847 74.9177
3888 284.2988
4051 214.5850
4174 306.7709
4734 267.0416
4804 219.5280
4952 267.6333
5093 197.5691
5103 170.6484
5144 184.7944
5332 248.0638
5363 89.4017
5457 266.3606
5683 77.5825
5900 253.3112
6049 163.4963
6089 297.9251
6125 132.6259
6181 216.6720
6190 195.0260
6214 292.7144
6331 228.7595
6344 94.4273
6432 269.0032
7006 330.1488
7253 265.1381
7344 69.8480
7385 18.1720
7394 165.2418
7408 13.9828
7540 189.4159
7948 187.2124
8021 266.5466
8226 137.4469
8265 269.4922
8391 132.5361
8443 153.2774
8487 267.4972
8515 272.0468
8527 220.1084
8693 229.5650
8705 225.5322
8731 241.0369
8771 275.8724
8793 254.6748
8887 228.3966
8910 67.9275
8921 262.3437
8973 208.0633
8998 332.0347
PLANTSmolcadARTstart hb
PLANTSmolcadARTstart HB
LINES
-13.5209 -60.0918 -2.84872 -11.654 -59.599 -3.055 0 255 0 5
PLANTSmolcadARTstart HBCH
LINES
PLANTSmolcadARTstart HB-CHO
LINES
PLANTSmolcadARTend
PLANTSmolcadARTstart HB_WATER
LINES
PLANTSmolcadARTend

PLANTSmolcadARTend

