@<TRIPOS>MOLECULE
aspirin_entry_00001_conf_51
20 20 1
SMALL
NO_CHARGES


@<TRIPOS>ATOM
      1 C           2.0277  -34.8907    2.2613 C.3       1 UNL1        0.0000
      2 C           1.4210  -35.7635    1.2245 C.2       1 UNL1        0.0000
      3 C          -0.4484  -36.2724   -0.2548 C.ar      1 UNL1        0.0000
      4 C          -0.4823  -37.6487   -0.1800 C.ar      1 UNL1        0.0000
      5 C          -1.2098  -38.4405   -1.0463 C.ar      1 UNL1        0.0000
      6 C          -1.9381  -37.8223   -2.0337 C.ar      1 UNL1        0.0000
      7 C          -1.9392  -36.4497   -2.1538 C.ar      1 UNL1        0.0000
      8 C          -1.1916  -35.6828   -1.2589 C.ar      1 UNL1        0.0000
      9 C          -1.2202  -34.2342   -1.4210 C.2       1 UNL1        0.0000
     10 O           1.9435  -36.8624    0.8665 O.2       1 UNL1        0.0000
     11 O           0.2573  -35.4499    0.5810 O.3       1 UNL1        0.0000
     12 O          -0.3564  -33.5044   -0.8708 O.co2     1 UNL1       -0.5000
     13 O          -2.1947  -33.6092   -2.1808 O.co2     1 UNL1       -0.5000
     14 H           2.9294  -35.3400    2.6217 H         1 UNL1        0.0000
     15 H           1.3405  -34.7703    3.0724 H         1 UNL1        0.0000
     16 H           2.2495  -33.9343    1.8367 H         1 UNL1        0.0000
     17 H           0.0646  -38.1115    0.5625 H         1 UNL1        0.0000
     18 H          -1.2072  -39.4689   -0.9539 H         1 UNL1        0.0000
     19 H          -2.4904  -38.3921   -2.6936 H         1 UNL1        0.0000
     20 H          -2.4890  -35.9923   -2.8982 H         1 UNL1        0.0000
@<TRIPOS>BOND
     1    1    2 1
     2    1   14 1
     3    1   15 1
     4    1   16 1
     5    2   10 2
     6    2   11 1
     7    3    4 ar
     8    3    8 ar
     9    3   11 1
    10    4    5 ar
    11    4   17 1
    12    5    6 ar
    13    5   18 1
    14    6    7 ar
    15    6   19 1
    16    7    8 ar
    17    7   20 1
    18    8    9 1
    19    9   12 ar
    20    9   13 ar
@<TRIPOS>SUBSTRUCTURE
1 UNL1 1
@<TRIPOS>COMMENT
aspirin
PLANTSproteinTorsions
102
1 218.7850
42 230.0368
151 153.0576
173 21.0744
432 342.7094
491 64.1044
531 325.4573
563 173.0398
572 21.1256
629 13.2135
730 234.2627
826 192.2865
895 132.3334
921 68.4488
954 67.4093
1044 47.4621
1258 34.5202
1480 116.5485
1534 125.1198
1612 283.1877
1654 43.4060
1680 124.6127
1704 172.6209
1767 200.7086
1795 307.7356
1847 174.7935
1879 133.8333
1921 234.5007
1944 232.6864
1966 106.6468
1975 13.6168
2067 93.6975
2118 142.7025
2167 76.6952
2220 243.5435
2243 162.0875
2272 285.8069
2294 352.8443
2609 45.0447
2728 198.0147
2931 9.0139
3031 301.9211
3044 187.1895
3058 211.1673
3085 323.5920
3166 261.0763
3188 111.8488
3496 67.9891
3614 29.9838
3656 249.9900
3697 287.0383
3722 141.9943
3847 319.0000
3888 15.0169
4051 46.0178
4174 105.0425
4734 132.0635
4804 297.7668
4952 168.1534
5093 92.1801
5103 112.2155
5144 198.2720
5332 256.3003
5363 125.3388
5457 59.4579
5683 132.4899
5900 48.5291
6049 71.5674
6089 290.1887
6125 207.6451
6181 49.6952
6190 101.7407
6214 180.5954
6331 265.6664
6344 99.7300
6432 200.8012
7006 137.8662
7253 114.8557
7344 112.9908
7385 163.1917
7394 142.3655
7408 105.4241
7540 100.4833
7948 259.5770
8021 86.5715
8226 216.6283
8265 130.6802
8391 59.7598
8443 46.8340
8487 145.0041
8515 212.0901
8527 289.0283
8693 33.8286
8705 313.7787
8731 156.8562
8771 170.7391
8793 175.7983
8887 56.8632
8910 172.0914
8921 180.0607
8973 184.0829
8998 172.8787
PLANTSmolcadARTstart hb
PLANTSmolcadARTstart HB
LINES
PLANTSmolcadARTstart HBCH
LINES
PLANTSmolcadARTstart HB-CHO
LINES
PLANTSmolcadARTend
PLANTSmolcadARTstart HB_WATER
LINES
PLANTSmolcadARTend

PLANTSmolcadARTend

