@<TRIPOS>MOLECULE
aspirin_entry_00001_conf_95
20 20 1
SMALL
NO_CHARGES


@<TRIPOS>ATOM
      1 C         -10.7469  -70.2065   -2.5315 C.3       1 UNL1        0.0000
      2 C         -11.8864  -71.1167   -2.2526 C.2       1 UNL1        0.0000
      3 C         -14.0787  -71.5050   -1.2599 C.ar      1 UNL1        0.0000
      4 C         -14.0392  -72.8545   -0.9804 C.ar      1 UNL1        0.0000
      5 C         -15.1609  -73.6043   -0.6865 C.ar      1 UNL1        0.0000
      6 C         -16.3794  -72.9699   -0.6715 C.ar      1 UNL1        0.0000
      7 C         -16.4758  -71.6228   -0.9440 C.ar      1 UNL1        0.0000
      8 C         -15.3194  -70.8982   -1.2364 C.ar      1 UNL1        0.0000
      9 C         -15.4656  -69.4753   -1.5188 C.2       1 UNL1        0.0000
     10 O         -11.9074  -72.3233   -2.6430 O.2       1 UNL1        0.0000
     11 O         -12.9942  -70.7242   -1.5557 O.3       1 UNL1        0.0000
     12 O         -14.4708  -68.7721   -1.8309 O.co2     1 UNL1       -0.5000
     13 O         -16.6975  -68.8463   -1.4528 O.co2     1 UNL1       -0.5000
     14 H          -9.9992  -70.7322   -3.0877 H         1 UNL1        0.0000
     15 H         -10.3295  -69.8648   -1.6076 H         1 UNL1        0.0000
     16 H         -11.0914  -69.3678   -3.0991 H         1 UNL1        0.0000
     17 H         -13.1232  -73.3293   -0.9914 H         1 UNL1        0.0000
     18 H         -15.0857  -74.6136   -0.4827 H         1 UNL1        0.0000
     19 H         -17.2327  -73.5083   -0.4543 H         1 UNL1        0.0000
     20 H         -17.3950  -71.1529   -0.9307 H         1 UNL1        0.0000
@<TRIPOS>BOND
     1    1    2 1
     2    1   14 1
     3    1   15 1
     4    1   16 1
     5    2   10 2
     6    2   11 1
     7    3    4 ar
     8    3    8 ar
     9    3   11 1
    10    4    5 ar
    11    4   17 1
    12    5    6 ar
    13    5   18 1
    14    6    7 ar
    15    6   19 1
    16    7    8 ar
    17    7   20 1
    18    8    9 1
    19    9   12 ar
    20    9   13 ar
@<TRIPOS>SUBSTRUCTURE
1 UNL1 1
@<TRIPOS>COMMENT
aspirin
PLANTSproteinTorsions
102
1 30.8067
42 4.5959
151 230.0302
173 174.6971
432 203.5285
491 10.8025
531 171.1365
563 280.3273
572 65.9277
629 215.0448
730 349.2365
826 357.8327
895 257.9511
921 218.6905
954 46.7354
1044 154.4023
1258 221.3974
1480 221.1848
1534 77.7615
1612 256.7689
1654 235.5083
1680 329.3297
1704 123.5444
1767 294.8907
1795 79.6273
1847 112.9660
1879 178.0472
1921 81.8438
1944 73.2641
1966 56.0840
1975 66.0791
2067 12.1857
2118 64.6220
2167 266.2390
2220 143.7874
2243 195.3243
2272 167.7879
2294 16.1204
2609 252.8144
2728 21.4111
2931 100.9310
3031 46.2404
3044 79.7863
3058 246.4516
3085 130.7388
3166 10.7193
3188 52.0486
3496 166.9110
3614 34.4599
3656 154.5912
3697 80.0346
3722 175.2536
3847 42.3582
3888 277.0387
4051 168.4179
4174 50.8125
4734 28.6022
4804 213.2924
4952 10.6198
5093 201.1141
5103 110.9779
5144 193.6495
5332 284.5695
5363 82.3226
5457 250.5835
5683 21.3554
5900 252.3657
6049 160.5659
6089 70.1946
6125 141.2512
6181 251.7251
6190 194.3105
6214 291.1659
6331 230.8144
6344 95.0513
6432 253.1198
7006 358.2670
7253 248.0754
7344 111.2810
7385 213.8416
7394 171.7387
7408 259.0859
7540 193.1999
7948 234.8817
8021 243.2056
8226 144.0372
8265 276.2138
8391 238.1849
8443 150.8811
8487 39.5086
8515 209.8729
8527 215.6992
8693 273.4040
8705 12.4271
8731 60.7868
8771 299.5514
8793 13.0541
8887 266.2153
8910 178.4825
8921 307.3443
8973 222.1652
8998 134.4140
PLANTSmolcadARTstart hb
PLANTSmolcadARTstart HB
LINES
PLANTSmolcadARTstart HBCH
LINES
PLANTSmolcadARTstart HB-CHO
LINES
PLANTSmolcadARTend
PLANTSmolcadARTstart HB_WATER
LINES
PLANTSmolcadARTend

PLANTSmolcadARTend

