@<TRIPOS>MOLECULE
aspirin_entry_00001_conf_44
20 20 1
SMALL
NO_CHARGES


@<TRIPOS>ATOM
      1 C         -14.2791  -56.8770    2.1437 C.3       1 UNL1        0.0000
      2 C         -14.5065  -57.4513    0.7935 C.2       1 UNL1        0.0000
      3 C         -13.9189  -59.0666   -0.9351 C.ar      1 UNL1        0.0000
      4 C         -14.4000  -58.4443   -2.0674 C.ar      1 UNL1        0.0000
      5 C         -14.5508  -59.0840   -3.2819 C.ar      1 UNL1        0.0000
      6 C         -14.2016  -60.4101   -3.3642 C.ar      1 UNL1        0.0000
      7 C         -13.7159  -61.0805   -2.2628 C.ar      1 UNL1        0.0000
      8 C         -13.5772  -60.3999   -1.0523 C.ar      1 UNL1        0.0000
      9 C         -13.0597  -61.1461    0.0883 C.2       1 UNL1        0.0000
     10 O         -15.4173  -57.0306    0.0174 O.2       1 UNL1        0.0000
     11 O         -13.7533  -58.4725    0.2867 O.3       1 UNL1        0.0000
     12 O         -12.9831  -62.4010    0.0596 O.co2     1 UNL1       -0.5000
     13 O         -12.6370  -60.5063    1.2413 O.co2     1 UNL1       -0.5000
     14 H         -14.9855  -56.0931    2.3207 H         1 UNL1        0.0000
     15 H         -13.2865  -56.4820    2.2004 H         1 UNL1        0.0000
     16 H         -14.4013  -57.6419    2.8815 H         1 UNL1        0.0000
     17 H         -14.6611  -57.4482   -2.0042 H         1 UNL1        0.0000
     18 H         -14.9149  -58.5791   -4.1056 H         1 UNL1        0.0000
     19 H         -14.3047  -60.9106   -4.2609 H         1 UNL1        0.0000
     20 H         -13.4554  -62.0770   -2.3323 H         1 UNL1        0.0000
@<TRIPOS>BOND
     1    1    2 1
     2    1   14 1
     3    1   15 1
     4    1   16 1
     5    2   10 2
     6    2   11 1
     7    3    4 ar
     8    3    8 ar
     9    3   11 1
    10    4    5 ar
    11    4   17 1
    12    5    6 ar
    13    5   18 1
    14    6    7 ar
    15    6   19 1
    16    7    8 ar
    17    7   20 1
    18    8    9 1
    19    9   12 ar
    20    9   13 ar
@<TRIPOS>SUBSTRUCTURE
1 UNL1 1
@<TRIPOS>COMMENT
aspirin
PLANTSproteinTorsions
102
1 14.5983
42 116.0585
151 319.7807
173 173.7025
432 193.2403
491 35.8089
531 121.3696
563 140.7287
572 303.0839
629 4.1549
730 0.2217
826 55.6352
895 83.6761
921 225.4113
954 37.3200
1044 191.3667
1258 146.7915
1480 217.2928
1534 62.2663
1612 222.6880
1654 186.3852
1680 96.7388
1704 162.9118
1767 268.7905
1795 351.2581
1847 107.0727
1879 216.6802
1921 83.1861
1944 65.3983
1966 170.5012
1975 77.7754
2067 7.7749
2118 62.9505
2167 84.7622
2220 268.2097
2243 23.8631
2272 125.8669
2294 31.2267
2609 94.5012
2728 321.6707
2931 156.3495
3031 53.1121
3044 71.3078
3058 45.7037
3085 157.8349
3166 41.1577
3188 277.4357
3496 149.9172
3614 310.9566
3656 128.1045
3697 121.4915
3722 186.0604
3847 74.9671
3888 57.0050
4051 139.0114
4174 59.1366
4734 66.9525
4804 201.2875
4952 199.9249
5093 242.1100
5103 232.0261
5144 315.0172
5332 275.0052
5363 95.8186
5457 200.8562
5683 184.3260
5900 282.5829
6049 165.3185
6089 70.8699
6125 118.5156
6181 259.1367
6190 113.2415
6214 233.4375
6331 187.6074
6344 110.9346
6432 218.8419
7006 245.3307
7253 170.1458
7344 104.9183
7385 217.2522
7394 175.5153
7408 44.9227
7540 116.2440
7948 355.9495
8021 222.1884
8226 164.8953
8265 156.7746
8391 279.8070
8443 146.7804
8487 264.9937
8515 286.3454
8527 190.9303
8693 230.4283
8705 123.2229
8731 76.6645
8771 295.5900
8793 297.2041
8887 103.1259
8910 201.3583
8921 261.7692
8973 248.0964
8998 286.4109
PLANTSmolcadARTstart hb
PLANTSmolcadARTstart HB
LINES
PLANTSmolcadARTstart HBCH
LINES
PLANTSmolcadARTstart HB-CHO
LINES
PLANTSmolcadARTend
PLANTSmolcadARTstart HB_WATER
LINES
PLANTSmolcadARTend

PLANTSmolcadARTend

