@<TRIPOS>MOLECULE
aspirin_entry_00001_conf_83
20 20 1
SMALL
NO_CHARGES


@<TRIPOS>ATOM
      1 C         -33.8579  -63.0382    3.9876 C.3       1 UNL1        0.0000
      2 C         -34.9960  -63.1525    4.9346 C.2       1 UNL1        0.0000
      3 C         -37.3399  -63.6719    5.3568 C.ar      1 UNL1        0.0000
      4 C         -37.3003  -64.1983    6.6305 C.ar      1 UNL1        0.0000
      5 C         -38.4197  -64.3588    7.4230 C.ar      1 UNL1        0.0000
      6 C         -39.6357  -63.9724    6.9139 C.ar      1 UNL1        0.0000
      7 C         -39.7321  -63.4408    5.6464 C.ar      1 UNL1        0.0000
      8 C         -38.5782  -63.2936    4.8754 C.ar      1 UNL1        0.0000
      9 C         -38.7242  -62.7270    3.5399 C.2       1 UNL1        0.0000
     10 O         -34.8728  -62.9384    6.1786 O.2       1 UNL1        0.0000
     11 O         -36.2578  -63.4950    4.5378 O.3       1 UNL1        0.0000
     12 O         -37.7366  -62.6271    2.7679 O.co2     1 UNL1       -0.5000
     13 O         -39.9481  -62.2777    3.0734 O.co2     1 UNL1       -0.5000
     14 H         -32.9752  -62.7591    4.5241 H         1 UNL1        0.0000
     15 H         -34.0793  -62.2928    3.2529 H         1 UNL1        0.0000
     16 H         -33.7004  -63.9795    3.5046 H         1 UNL1        0.0000
     17 H         -36.3862  -64.4873    7.0117 H         1 UNL1        0.0000
     18 H         -38.3444  -64.7574    8.3725 H         1 UNL1        0.0000
     19 H         -40.4872  -64.0819    7.4867 H         1 UNL1        0.0000
     20 H         -40.6494  -63.1525    5.2707 H         1 UNL1        0.0000
@<TRIPOS>BOND
     1    1    2 1
     2    1   14 1
     3    1   15 1
     4    1   16 1
     5    2   10 2
     6    2   11 1
     7    3    4 ar
     8    3    8 ar
     9    3   11 1
    10    4    5 ar
    11    4   17 1
    12    5    6 ar
    13    5   18 1
    14    6    7 ar
    15    6   19 1
    16    7    8 ar
    17    7   20 1
    18    8    9 1
    19    9   12 ar
    20    9   13 ar
@<TRIPOS>SUBSTRUCTURE
1 UNL1 1
@<TRIPOS>COMMENT
aspirin
PLANTSproteinTorsions
102
1 20.1400
42 102.6211
151 144.1013
173 6.9170
432 97.9508
491 354.5555
531 129.9745
563 263.0577
572 87.6502
629 190.5411
730 42.2031
826 237.4888
895 104.7530
921 317.1772
954 52.8985
1044 312.6942
1258 135.1109
1480 229.2672
1534 37.9156
1612 233.3665
1654 257.6632
1680 35.2734
1704 120.4836
1767 283.3991
1795 85.7467
1847 120.2762
1879 202.0976
1921 96.9207
1944 77.8053
1966 150.4169
1975 206.4872
2067 34.4140
2118 159.3907
2167 115.5457
2220 320.2451
2243 179.3175
2272 105.8904
2294 16.6252
2609 158.4164
2728 334.7027
2931 167.9353
3031 34.3367
3044 93.9232
3058 226.0420
3085 174.8128
3166 292.0229
3188 74.1395
3496 180.2027
3614 253.1580
3656 157.7517
3697 104.9068
3722 200.3311
3847 136.4473
3888 52.7547
4051 165.6219
4174 40.7571
4734 25.2305
4804 6.9973
4952 265.8807
5093 151.2899
5103 206.2897
5144 232.9728
5332 314.5862
5363 119.9980
5457 242.9749
5683 146.3247
5900 247.3664
6049 139.7164
6089 48.2359
6125 82.4870
6181 199.6551
6190 176.7228
6214 49.7781
6331 228.6293
6344 261.4441
6432 269.1771
7006 346.9285
7253 204.6030
7344 191.0464
7385 49.2211
7394 245.6553
7408 22.6265
7540 234.0632
7948 221.6356
8021 278.3297
8226 269.9460
8265 212.9189
8391 263.5063
8443 261.8041
8487 67.0100
8515 206.6463
8527 271.4709
8693 249.7076
8705 264.4876
8731 223.6620
8771 246.6338
8793 33.7696
8887 129.2414
8910 52.2174
8921 226.2499
8973 259.4231
8998 246.3586
PLANTSmolcadARTstart hb
PLANTSmolcadARTstart HB
LINES
-34.8728 -62.9384 6.17863 -35.0814 -60.8897 6.2076 0 255 0 5
-37.7366 -62.6271 2.76791 -36.922 -60.916 1.735 0 255 0 5
PLANTSmolcadARTstart HBCH
LINES
PLANTSmolcadARTstart HB-CHO
LINES
PLANTSmolcadARTend
PLANTSmolcadARTstart HB_WATER
LINES
PLANTSmolcadARTend

PLANTSmolcadARTend

