@<TRIPOS>MOLECULE
aspirin_entry_00001_conf_29
20 20 1
SMALL
NO_CHARGES


@<TRIPOS>ATOM
      1 C         -13.5416  -62.0674   -1.8249 C.3       1 UNL1        0.0000
      2 C         -13.7819  -60.8114   -1.0702 C.2       1 UNL1        0.0000
      3 C         -14.1699  -58.4049   -1.0537 C.ar      1 UNL1        0.0000
      4 C         -13.7038  -58.0604    0.1973 C.ar      1 UNL1        0.0000
      5 C         -13.9528  -56.8398    0.7930 C.ar      1 UNL1        0.0000
      6 C         -14.7041  -55.9213    0.1006 C.ar      1 UNL1        0.0000
      7 C         -15.1951  -56.2142   -1.1530 C.ar      1 UNL1        0.0000
      8 C         -14.9220  -57.4587   -1.7226 C.ar      1 UNL1        0.0000
      9 C         -15.4603  -57.7281   -3.0505 C.2       1 UNL1        0.0000
     10 O         -13.8485  -60.7781    0.1959 O.2       1 UNL1        0.0000
     11 O         -13.9478  -59.6006   -1.6814 O.3       1 UNL1        0.0000
     12 O         -16.3015  -56.9554   -3.5766 O.co2     1 UNL1       -0.5000
     13 O         -15.0703  -58.8395   -3.7787 O.co2     1 UNL1       -0.5000
     14 H         -13.4426  -62.8819   -1.1381 H         1 UNL1        0.0000
     15 H         -12.6429  -61.9727   -2.3975 H         1 UNL1        0.0000
     16 H         -14.3655  -62.2516   -2.4818 H         1 UNL1        0.0000
     17 H         -13.1391  -58.7510    0.7157 H         1 UNL1        0.0000
     18 H         -13.5835  -56.6231    1.7325 H         1 UNL1        0.0000
     19 H         -14.9038  -55.0016    0.5241 H         1 UNL1        0.0000
     20 H         -15.7588  -55.5189   -1.6673 H         1 UNL1        0.0000
@<TRIPOS>BOND
     1    1    2 1
     2    1   14 1
     3    1   15 1
     4    1   16 1
     5    2   10 2
     6    2   11 1
     7    3    4 ar
     8    3    8 ar
     9    3   11 1
    10    4    5 ar
    11    4   17 1
    12    5    6 ar
    13    5   18 1
    14    6    7 ar
    15    6   19 1
    16    7    8 ar
    17    7   20 1
    18    8    9 1
    19    9   12 ar
    20    9   13 ar
@<TRIPOS>SUBSTRUCTURE
1 UNL1 1
@<TRIPOS>COMMENT
aspirin
PLANTSproteinTorsions
102
1 291.7093
42 9.9696
151 338.2083
173 3.9888
432 64.7544
491 30.9807
531 120.9590
563 291.9341
572 181.5659
629 164.0016
730 48.7845
826 34.9875
895 98.5129
921 302.5466
954 65.9411
1044 106.8031
1258 132.7270
1480 214.3470
1534 75.0062
1612 261.5262
1654 225.3680
1680 297.4676
1704 105.3999
1767 279.8786
1795 336.8264
1847 121.5536
1879 210.6733
1921 250.4281
1944 68.3483
1966 115.2821
1975 200.0827
2067 10.7349
2118 190.6797
2167 86.8576
2220 237.4663
2243 180.4840
2272 95.6897
2294 220.6815
2609 76.6973
2728 32.5987
2931 53.6520
3031 51.9368
3044 86.8680
3058 50.1609
3085 191.8707
3166 326.4782
3188 48.9957
3496 162.9245
3614 305.5206
3656 300.7935
3697 64.5666
3722 304.0786
3847 112.2259
3888 86.3571
4051 144.8553
4174 29.6575
4734 264.2046
4804 213.8688
4952 205.5242
5093 207.8558
5103 239.5170
5144 155.0292
5332 270.8539
5363 89.7981
5457 264.5637
5683 125.5905
5900 257.4045
6049 164.4203
6089 73.5242
6125 118.6179
6181 227.5738
6190 175.6573
6214 85.7692
6331 218.6077
6344 72.5120
6432 169.4495
7006 286.9502
7253 204.2061
7344 217.2344
7385 194.8577
7394 231.7547
7408 226.7452
7540 223.7244
7948 169.8093
8021 268.8481
8226 132.9366
8265 221.6431
8391 130.1728
8443 47.7205
8487 257.1262
8515 245.7664
8527 217.5564
8693 256.5126
8705 28.7667
8731 59.4061
8771 295.9475
8793 22.1971
8887 212.4937
8910 223.0003
8921 261.5519
8973 207.0750
8998 74.8087
PLANTSmolcadARTstart hb
PLANTSmolcadARTstart HB
LINES
-15.0703 -58.8395 -3.77871 -16.3392 -58.6841 -5.11393 0 255 0 5
PLANTSmolcadARTstart HBCH
LINES
PLANTSmolcadARTstart HB-CHO
LINES
PLANTSmolcadARTend
PLANTSmolcadARTstart HB_WATER
LINES
PLANTSmolcadARTend

PLANTSmolcadARTend

