@<TRIPOS>MOLECULE
aspirin_entry_00001_conf_94
20 20 1
SMALL
NO_CHARGES


@<TRIPOS>ATOM
      1 C         -50.1258  -59.4547   22.9404 C.3       1 UNL1        0.0000
      2 C         -51.5572  -59.4535   22.5456 C.2       1 UNL1        0.0000
      3 C         -52.2568  -57.7569   24.1500 C.ar      1 UNL1        0.0000
      4 C         -51.1922  -56.8817   24.1897 C.ar      1 UNL1        0.0000
      5 C         -50.9915  -55.9727   25.2097 C.ar      1 UNL1        0.0000
      6 C         -51.9022  -55.9399   26.2377 C.ar      1 UNL1        0.0000
      7 C         -52.9843  -56.7929   26.2480 C.ar      1 UNL1        0.0000
      8 C         -53.1536  -57.6977   25.1989 C.ar      1 UNL1        0.0000
      9 C         -54.3116  -58.5822   25.2485 C.2       1 UNL1        0.0000
     10 O         -52.0073  -60.1803   21.6086 O.2       1 UNL1        0.0000
     11 O         -52.4944  -58.6724   23.1608 O.3       1 UNL1        0.0000
     12 O         -54.3776  -59.6032   24.5172 O.co2     1 UNL1       -0.5000
     13 O         -55.3781  -58.3330   26.0959 O.co2     1 UNL1       -0.5000
     14 H         -49.5865  -60.1415   22.3220 H         1 UNL1        0.0000
     15 H         -50.0388  -59.7528   23.9642 H         1 UNL1        0.0000
     16 H         -49.7220  -58.4716   22.8196 H         1 UNL1        0.0000
     17 H         -50.5095  -56.9071   23.4165 H         1 UNL1        0.0000
     18 H         -50.1798  -55.3347   25.1994 H         1 UNL1        0.0000
     19 H         -51.7747  -55.2692   27.0117 H         1 UNL1        0.0000
     20 H         -53.6646  -56.7623   27.0238 H         1 UNL1        0.0000
@<TRIPOS>BOND
     1    1    2 1
     2    1   14 1
     3    1   15 1
     4    1   16 1
     5    2   10 2
     6    2   11 1
     7    3    4 ar
     8    3    8 ar
     9    3   11 1
    10    4    5 ar
    11    4   17 1
    12    5    6 ar
    13    5   18 1
    14    6    7 ar
    15    6   19 1
    16    7    8 ar
    17    7   20 1
    18    8    9 1
    19    9   12 ar
    20    9   13 ar
@<TRIPOS>SUBSTRUCTURE
1 UNL1 1
@<TRIPOS>COMMENT
aspirin
PLANTSproteinTorsions
102
1 242.4659
42 24.9604
151 292.6678
173 18.7105
432 93.3640
491 95.8279
531 185.0655
563 124.5745
572 34.0037
629 150.5648
730 152.9124
826 351.3091
895 105.1208
921 47.4351
954 187.5883
1044 194.5790
1258 191.4756
1480 24.5286
1534 343.9327
1612 78.1080
1654 343.7856
1680 111.8090
1704 2.8367
1767 81.4810
1795 337.3635
1847 251.4702
1879 216.4775
1921 102.5480
1944 319.0316
1966 167.4472
1975 164.2777
2067 335.0269
2118 252.3917
2167 10.2480
2220 89.7009
2243 6.7337
2272 334.7404
2294 71.9776
2609 232.0846
2728 313.3568
2931 58.2730
3031 75.7969
3044 162.1594
3058 55.1426
3085 2.3415
3166 264.1158
3188 5.2456
3496 202.3258
3614 25.2207
3656 182.5360
3697 203.4329
3722 61.0938
3847 223.8645
3888 209.9189
4051 298.3686
4174 38.4060
4734 156.9835
4804 151.1663
4952 240.3272
5093 66.9590
5103 42.6362
5144 110.8927
5332 141.3426
5363 202.2329
5457 210.4190
5683 305.3413
5900 75.4742
6049 205.7251
6089 261.6606
6125 21.0976
6181 49.5957
6190 137.4364
6214 137.5623
6331 266.8287
6344 102.7475
6432 260.5947
7006 34.9019
7253 27.9164
7344 311.9727
7385 164.5583
7394 188.5858
7408 259.2838
7540 197.9652
7948 201.6949
8021 260.9526
8226 175.3969
8265 165.0311
8391 189.6431
8443 131.3633
8487 218.6793
8515 249.2919
8527 23.8472
8693 250.2707
8705 221.9684
8731 177.5870
8771 85.5630
8793 133.7315
8887 147.9159
8910 172.2393
8921 57.7900
8973 274.3138
8998 178.3089
PLANTSmolcadARTstart hb
PLANTSmolcadARTstart HB
LINES
-52.0073 -60.1803 21.6086 -53.149 -59.867 20.01 0 255 0 5
PLANTSmolcadARTstart HBCH
LINES
PLANTSmolcadARTstart HB-CHO
LINES
PLANTSmolcadARTend
PLANTSmolcadARTstart HB_WATER
LINES
PLANTSmolcadARTend

PLANTSmolcadARTend

