@<TRIPOS>MOLECULE
aspirin_entry_00001_conf_53
20 20 1
SMALL
NO_CHARGES


@<TRIPOS>ATOM
      1 C         -14.2125  -58.9073   -1.7557 C.3       1 UNL1        0.0000
      2 C         -13.8513  -60.3201   -2.0355 C.2       1 UNL1        0.0000
      3 C         -13.9653  -62.6805   -1.4374 C.ar      1 UNL1        0.0000
      4 C         -13.8775  -63.2799   -2.6759 C.ar      1 UNL1        0.0000
      5 C         -13.6299  -64.6266   -2.8541 C.ar      1 UNL1        0.0000
      6 C         -13.4616  -65.4085   -1.7371 C.ar      1 UNL1        0.0000
      7 C         -13.5398  -64.8607   -0.4752 C.ar      1 UNL1        0.0000
      8 C         -13.7913  -63.4950   -0.3354 C.ar      1 UNL1        0.0000
      9 C         -13.8662  -62.9557    1.0171 C.2       1 UNL1        0.0000
     10 O         -13.1841  -60.6643   -3.0578 O.2       1 UNL1        0.0000
     11 O         -14.2086  -61.3522   -1.2145 O.3       1 UNL1        0.0000
     12 O         -14.0155  -63.7144    2.0089 O.co2     1 UNL1       -0.5000
     13 O         -13.7784  -61.5953    1.2606 O.co2     1 UNL1       -0.5000
     14 H         -13.8261  -58.2806   -2.5321 H         1 UNL1        0.0000
     15 H         -13.7932  -58.6115   -0.8170 H         1 UNL1        0.0000
     16 H         -15.2773  -58.8128   -1.7164 H         1 UNL1        0.0000
     17 H         -14.0034  -62.6912   -3.5138 H         1 UNL1        0.0000
     18 H         -13.5718  -65.0344   -3.8008 H         1 UNL1        0.0000
     19 H         -13.2751  -66.4180   -1.8437 H         1 UNL1        0.0000
     20 H         -13.4121  -65.4545    0.3595 H         1 UNL1        0.0000
@<TRIPOS>BOND
     1    1    2 1
     2    1   14 1
     3    1   15 1
     4    1   16 1
     5    2   10 2
     6    2   11 1
     7    3    4 ar
     8    3    8 ar
     9    3   11 1
    10    4    5 ar
    11    4   17 1
    12    5    6 ar
    13    5   18 1
    14    6    7 ar
    15    6   19 1
    16    7    8 ar
    17    7   20 1
    18    8    9 1
    19    9   12 ar
    20    9   13 ar
@<TRIPOS>SUBSTRUCTURE
1 UNL1 1
@<TRIPOS>COMMENT
aspirin
PLANTSproteinTorsions
102
1 321.3784
42 121.2032
151 297.3593
173 150.3669
432 129.1121
491 38.4935
531 164.2686
563 95.7850
572 220.7733
629 218.8097
730 223.8520
826 237.3477
895 90.6532
921 252.8226
954 47.6753
1044 53.0090
1258 182.2689
1480 317.3251
1534 179.5904
1612 181.4111
1654 230.7179
1680 302.7901
1704 174.2990
1767 159.9003
1795 254.6861
1847 115.3136
1879 175.4506
1921 174.2411
1944 220.4528
1966 88.9367
1975 225.3559
2067 21.2830
2118 63.2941
2167 82.1611
2220 168.8556
2243 121.7130
2272 270.4930
2294 41.4760
2609 61.9008
2728 94.5201
2931 151.5234
3031 48.7654
3044 78.1782
3058 203.4549
3085 162.7487
3166 11.2998
3188 74.5745
3496 146.2272
3614 17.9353
3656 237.5532
3697 173.7304
3722 166.9395
3847 73.9899
3888 90.3104
4051 136.7718
4174 311.5634
4734 263.8490
4804 217.7385
4952 143.8785
5093 57.4113
5103 325.7553
5144 200.0490
5332 240.7764
5363 91.1326
5457 93.4090
5683 6.5816
5900 221.4754
6049 158.2198
6089 72.6670
6125 127.6280
6181 196.8556
6190 108.1035
6214 268.5728
6331 15.9227
6344 72.4841
6432 264.8048
7006 163.9739
7253 36.6426
7344 109.4779
7385 312.7856
7394 140.0109
7408 64.9243
7540 70.6963
7948 234.5650
8021 262.0100
8226 133.8756
8265 158.3503
8391 136.7423
8443 157.2107
8487 58.6491
8515 281.4149
8527 198.8247
8693 298.9222
8705 26.0130
8731 236.4788
8771 291.9408
8793 296.0807
8887 72.4799
8910 256.7418
8921 220.7636
8973 206.8717
8998 288.0317
PLANTSmolcadARTstart hb
PLANTSmolcadARTstart HB
LINES
-13.1841 -60.6643 -3.05783 -11.654 -59.599 -3.055 0 255 0 5
PLANTSmolcadARTstart HBCH
LINES
PLANTSmolcadARTstart HB-CHO
LINES
PLANTSmolcadARTend
PLANTSmolcadARTstart HB_WATER
LINES
PLANTSmolcadARTend

PLANTSmolcadARTend

