@<TRIPOS>MOLECULE
aspirin_entry_00001_conf_54
20 20 1
SMALL
NO_CHARGES


@<TRIPOS>ATOM
      1 C         -13.1676  -55.7104   10.3480 C.3       1 UNL1        0.0000
      2 C         -13.4089  -57.1687   10.4894 C.2       1 UNL1        0.0000
      3 C         -12.5609  -59.4541   10.4879 C.ar      1 UNL1        0.0000
      4 C         -13.7396  -60.1084   10.7766 C.ar      1 UNL1        0.0000
      5 C         -13.8371  -61.4797   10.9062 C.ar      1 UNL1        0.0000
      6 C         -12.6985  -62.2298   10.7375 C.ar      1 UNL1        0.0000
      7 C         -11.4939  -61.6267   10.4483 C.ar      1 UNL1        0.0000
      8 C         -11.4351  -60.2377   10.3246 C.ar      1 UNL1        0.0000
      9 C         -10.1412  -59.6398   10.0179 C.2       1 UNL1        0.0000
     10 O         -14.5538  -57.6491   10.7483 O.2       1 UNL1        0.0000
     11 O         -12.4186  -58.0998   10.3506 O.3       1 UNL1        0.0000
     12 O          -9.0847  -60.3197   10.0737 O.co2     1 UNL1       -0.5000
     13 O         -10.0257  -58.3078    9.6576 O.co2     1 UNL1       -0.5000
     14 H         -14.0859  -55.1816   10.4971 H         1 UNL1        0.0000
     15 H         -12.7930  -55.5046    9.3672 H         1 UNL1        0.0000
     16 H         -12.4510  -55.3954   11.0770 H         1 UNL1        0.0000
     17 H         -14.5940  -59.5438   10.9022 H         1 UNL1        0.0000
     18 H         -14.7411  -61.9290   11.1229 H         1 UNL1        0.0000
     19 H         -12.7453  -63.2567   10.8290 H         1 UNL1        0.0000
     20 H         -10.6426  -62.1969   10.3228 H         1 UNL1        0.0000
@<TRIPOS>BOND
     1    1    2 1
     2    1   14 1
     3    1   15 1
     4    1   16 1
     5    2   10 2
     6    2   11 1
     7    3    4 ar
     8    3    8 ar
     9    3   11 1
    10    4    5 ar
    11    4   17 1
    12    5    6 ar
    13    5   18 1
    14    6    7 ar
    15    6   19 1
    16    7    8 ar
    17    7   20 1
    18    8    9 1
    19    9   12 ar
    20    9   13 ar
@<TRIPOS>SUBSTRUCTURE
1 UNL1 1
@<TRIPOS>COMMENT
aspirin
PLANTSproteinTorsions
102
1 278.2059
42 7.5240
151 321.0681
173 26.9773
432 103.6355
491 357.3875
531 181.2253
563 249.3305
572 86.8169
629 206.4251
730 53.9161
826 78.8272
895 101.5423
921 280.1266
954 40.0827
1044 136.0364
1258 167.4228
1480 16.7455
1534 44.1036
1612 224.9296
1654 192.0039
1680 253.0649
1704 149.3889
1767 160.6393
1795 178.5970
1847 121.2052
1879 208.9277
1921 218.3825
1944 50.7498
1966 86.3626
1975 63.7543
2067 313.4771
2118 191.8386
2167 115.3425
2220 231.0854
2243 22.4395
2272 170.4025
2294 99.1900
2609 156.0435
2728 173.6661
2931 161.1726
3031 159.8333
3044 179.9446
3058 247.3162
3085 180.2424
3166 296.5110
3188 214.0127
3496 171.1685
3614 297.1628
3656 267.9627
3697 122.5017
3722 308.2388
3847 70.7315
3888 80.9407
4051 216.5850
4174 59.5849
4734 251.0256
4804 220.8804
4952 199.5182
5093 344.6273
5103 276.4805
5144 251.1832
5332 122.8633
5363 98.1026
5457 97.9813
5683 8.7532
5900 52.4705
6049 161.4988
6089 124.6362
6125 114.5647
6181 228.5696
6190 175.6470
6214 330.0293
6331 190.6601
6344 270.4247
6432 255.5158
7006 104.4165
7253 33.8416
7344 66.6825
7385 291.0591
7394 51.7040
7408 161.9368
7540 241.6660
7948 203.3727
8021 240.8782
8226 232.6887
8265 267.5022
8391 123.0095
8443 38.9872
8487 42.0220
8515 23.5746
8527 198.3521
8693 269.4834
8705 213.4265
8731 37.0265
8771 221.3626
8793 249.7354
8887 254.8233
8910 57.3329
8921 240.9950
8973 215.8445
8998 185.4321
PLANTSmolcadARTstart hb
PLANTSmolcadARTstart HB
LINES
PLANTSmolcadARTstart HBCH
LINES
PLANTSmolcadARTstart HB-CHO
LINES
PLANTSmolcadARTend
PLANTSmolcadARTstart HB_WATER
LINES
PLANTSmolcadARTend

PLANTSmolcadARTend

