@<TRIPOS>MOLECULE
aspirin_entry_00001_conf_73
20 20 1
SMALL
NO_CHARGES


@<TRIPOS>ATOM
      1 C         -67.9064  -57.9274    6.8479 C.3       1 UNL1        0.0000
      2 C         -68.5252  -58.3351    5.5612 C.2       1 UNL1        0.0000
      3 C         -68.6745  -59.8991    3.6973 C.ar      1 UNL1        0.0000
      4 C         -69.0102  -59.0932    2.6302 C.ar      1 UNL1        0.0000
      5 C         -69.5319  -59.5758    1.4463 C.ar      1 UNL1        0.0000
      6 C         -69.7252  -60.9307    1.3272 C.ar      1 UNL1        0.0000
      7 C         -69.4071  -61.7815    2.3633 C.ar      1 UNL1        0.0000
      8 C         -68.8814  -61.2563    3.5446 C.ar      1 UNL1        0.0000
      9 C         -68.5584  -62.1909    4.6160 C.2       1 UNL1        0.0000
     10 O         -69.4405  -57.6599    4.9999 O.2       1 UNL1        0.0000
     11 O         -68.1556  -59.4646    4.8869 O.3       1 UNL1        0.0000
     12 O         -68.9337  -63.3900    4.5635 O.co2     1 UNL1       -0.5000
     13 O         -67.8323  -61.7966    5.7272 O.co2     1 UNL1       -0.5000
     14 H         -68.3534  -57.0154    7.1847 H         1 UNL1        0.0000
     15 H         -66.8563  -57.7789    6.7070 H         1 UNL1        0.0000
     16 H         -68.0636  -58.6936    7.5776 H         1 UNL1        0.0000
     17 H         -68.8637  -58.0759    2.7209 H         1 UNL1        0.0000
     18 H         -69.7693  -58.9359    0.6715 H         1 UNL1        0.0000
     19 H         -70.1136  -61.3162    0.4522 H         1 UNL1        0.0000
     20 H         -69.5550  -62.7986    2.2665 H         1 UNL1        0.0000
@<TRIPOS>BOND
     1    1    2 1
     2    1   14 1
     3    1   15 1
     4    1   16 1
     5    2   10 2
     6    2   11 1
     7    3    4 ar
     8    3    8 ar
     9    3   11 1
    10    4    5 ar
    11    4   17 1
    12    5    6 ar
    13    5   18 1
    14    6    7 ar
    15    6   19 1
    16    7    8 ar
    17    7   20 1
    18    8    9 1
    19    9   12 ar
    20    9   13 ar
@<TRIPOS>SUBSTRUCTURE
1 UNL1 1
@<TRIPOS>COMMENT
aspirin
PLANTSproteinTorsions
102
1 71.8252
42 3.9051
151 167.9294
173 242.9058
432 207.3324
491 70.2833
531 8.4587
563 341.2822
572 29.0001
629 23.8546
730 90.1729
826 34.0804
895 114.6717
921 90.0401
954 331.9675
1044 225.9326
1258 295.3430
1480 117.5977
1534 46.1788
1612 184.6952
1654 44.0522
1680 122.7498
1704 156.6093
1767 124.2811
1795 52.8786
1847 315.7027
1879 77.3461
1921 204.0772
1944 24.9718
1966 29.3453
1975 51.1432
2067 156.9950
2118 111.2064
2167 130.3416
2220 31.3060
2243 143.5870
2272 232.7583
2294 175.4563
2609 41.6219
2728 70.3550
2931 223.2590
3031 33.7242
3044 69.5930
3058 240.1358
3085 50.4494
3166 247.6357
3188 54.9929
3496 234.4692
3614 247.5597
3656 81.1276
3697 173.4462
3722 128.8212
3847 232.7369
3888 218.6539
4051 23.9804
4174 79.1830
4734 229.1372
4804 95.2940
4952 133.4324
5093 125.1581
5103 222.8039
5144 270.1844
5332 65.0229
5363 20.8736
5457 250.0914
5683 55.5299
5900 217.3350
6049 142.2874
6089 136.9756
6125 350.5388
6181 155.0380
6190 33.1920
6214 210.5011
6331 87.5226
6344 129.1605
6432 140.2120
7006 2.9454
7253 149.0360
7344 79.4753
7385 86.2794
7394 37.8797
7408 64.8551
7540 180.8468
7948 178.6143
8021 42.3985
8226 181.7524
8265 145.0411
8391 220.4816
8443 150.4080
8487 108.2236
8515 265.4600
8527 193.9601
8693 139.4327
8705 331.8610
8731 195.3748
8771 24.4544
8793 176.9522
8887 155.1072
8910 324.5817
8921 156.4210
8973 134.4767
8998 149.3858
PLANTSmolcadARTstart hb
PLANTSmolcadARTstart HB
LINES
PLANTSmolcadARTstart HBCH
LINES
PLANTSmolcadARTstart HB-CHO
LINES
PLANTSmolcadARTend
PLANTSmolcadARTstart HB_WATER
LINES
PLANTSmolcadARTend

PLANTSmolcadARTend

