@<TRIPOS>MOLECULE
aspirin_entry_00001_conf_14
20 20 1
SMALL
NO_CHARGES


@<TRIPOS>ATOM
      1 C           1.0844  -35.0310    2.2626 C.3       1 UNL1        0.0000
      2 C           0.6759  -35.7525    1.0308 C.2       1 UNL1        0.0000
      3 C          -0.5871  -37.5449   -0.0344 C.ar      1 UNL1        0.0000
      4 C          -0.9560  -36.9513   -1.2229 C.ar      1 UNL1        0.0000
      5 C          -1.4636  -37.6525   -2.2988 C.ar      1 UNL1        0.0000
      6 C          -1.6069  -39.0133   -2.1767 C.ar      1 UNL1        0.0000
      7 C          -1.2541  -39.6572   -1.0107 C.ar      1 UNL1        0.0000
      8 C          -0.7441  -38.9143    0.0551 C.ar      1 UNL1        0.0000
      9 C          -0.3832  -39.6343    1.2704 C.2       1 UNL1        0.0000
     10 O           1.0034  -35.3605   -0.1302 O.2       1 UNL1        0.0000
     11 O          -0.0806  -36.8901    1.0555 O.3       1 UNL1        0.0000
     12 O          -0.3295  -40.8906    1.2864 O.co2     1 UNL1       -0.5000
     13 O          -0.0894  -38.9671    2.4477 O.co2     1 UNL1       -0.5000
     14 H           1.6688  -34.1751    1.9965 H         1 UNL1        0.0000
     15 H           1.6666  -35.6821    2.8804 H         1 UNL1        0.0000
     16 H           0.2128  -34.7168    2.7972 H         1 UNL1        0.0000
     17 H          -0.8470  -35.9293   -1.3133 H         1 UNL1        0.0000
     18 H          -1.7271  -37.1674   -3.1713 H         1 UNL1        0.0000
     19 H          -1.9838  -39.5601   -2.9667 H         1 UNL1        0.0000
     20 H          -1.3645  -40.6801   -0.9264 H         1 UNL1        0.0000
@<TRIPOS>BOND
     1    1    2 1
     2    1   14 1
     3    1   15 1
     4    1   16 1
     5    2   10 2
     6    2   11 1
     7    3    4 ar
     8    3    8 ar
     9    3   11 1
    10    4    5 ar
    11    4   17 1
    12    5    6 ar
    13    5   18 1
    14    6    7 ar
    15    6   19 1
    16    7    8 ar
    17    7   20 1
    18    8    9 1
    19    9   12 ar
    20    9   13 ar
@<TRIPOS>SUBSTRUCTURE
1 UNL1 1
@<TRIPOS>COMMENT
aspirin
PLANTSproteinTorsions
102
1 222.7610
42 231.2213
151 150.9637
173 293.5459
432 335.3513
491 155.6895
531 332.6253
563 176.9876
572 15.5714
629 221.9305
730 237.1978
826 192.5950
895 129.0116
921 71.0393
954 85.7185
1044 43.3672
1258 33.7980
1480 19.8876
1534 59.6023
1612 107.0239
1654 46.5421
1680 60.5314
1704 330.5732
1767 111.6311
1795 300.9042
1847 328.1407
1879 115.6973
1921 235.8186
1944 15.9310
1966 200.1968
1975 357.9810
2067 105.5690
2118 135.8302
2167 78.6612
2220 244.6948
2243 320.8884
2272 297.9009
2294 333.9521
2609 25.5147
2728 198.8109
2931 247.0785
3031 298.3527
3044 191.8635
3058 212.7273
3085 189.0591
3166 259.5571
3188 26.8617
3496 66.6620
3614 156.3583
3656 221.6622
3697 354.5319
3722 139.7561
3847 133.9179
3888 16.1613
4051 46.2278
4174 172.1557
4734 169.8242
4804 40.0163
4952 120.9853
5093 203.5170
5103 82.2750
5144 190.0356
5332 257.2132
5363 48.7992
5457 104.6829
5683 35.2401
5900 45.7185
6049 67.2657
6089 267.6576
6125 205.4912
6181 82.6068
6190 78.2285
6214 189.1664
6331 263.8975
6344 126.5602
6432 206.0158
7006 8.6739
7253 268.7834
7344 267.7970
7385 163.9807
7394 142.1425
7408 67.4114
7540 103.4037
7948 249.0293
8021 187.9831
8226 78.3164
8265 90.4327
8391 71.7279
8443 43.4158
8487 138.4118
8515 265.4239
8527 267.4587
8693 126.9751
8705 329.0473
8731 222.0587
8771 176.5411
8793 97.1708
8887 57.7292
8910 172.0670
8921 223.4095
8973 186.8345
8998 173.5911
PLANTSmolcadARTstart hb
PLANTSmolcadARTstart HB
LINES
PLANTSmolcadARTstart HBCH
LINES
PLANTSmolcadARTstart HB-CHO
LINES
PLANTSmolcadARTend
PLANTSmolcadARTstart HB_WATER
LINES
PLANTSmolcadARTend

PLANTSmolcadARTend

