@<TRIPOS>MOLECULE
aspirin_entry_00001_conf_43
20 20 1
SMALL
NO_CHARGES


@<TRIPOS>ATOM
      1 C         -14.7234  -60.2947   -4.4024 C.3       1 UNL1        0.0000
      2 C         -14.1916  -59.9723   -3.0541 C.2       1 UNL1        0.0000
      3 C         -14.1707  -58.5272   -1.0910 C.ar      1 UNL1        0.0000
      4 C         -13.3549  -59.2730   -0.2669 C.ar      1 UNL1        0.0000
      5 C         -12.8759  -58.8170    0.9452 C.ar      1 UNL1        0.0000
      6 C         -13.2315  -57.5530    1.3492 C.ar      1 UNL1        0.0000
      7 C         -14.0451  -56.7653    0.5642 C.ar      1 UNL1        0.0000
      8 C         -14.5093  -57.2609   -0.6551 C.ar      1 UNL1        0.0000
      9 C         -15.3675  -56.3952   -1.4548 C.2       1 UNL1        0.0000
     10 O         -13.2566  -60.6365   -2.5125 O.2       1 UNL1        0.0000
     11 O         -14.6676  -58.9384   -2.2982 O.3       1 UNL1        0.0000
     12 O         -15.4767  -55.1704   -1.1914 O.co2     1 UNL1       -0.5000
     13 O         -16.0930  -56.8853   -2.5278 O.co2     1 UNL1       -0.5000
     14 H         -14.1990  -61.1386   -4.7995 H         1 UNL1        0.0000
     15 H         -14.5873  -59.4537   -5.0496 H         1 UNL1        0.0000
     16 H         -15.7658  -60.5233   -4.3291 H         1 UNL1        0.0000
     17 H         -13.0881  -60.2218   -0.5721 H         1 UNL1        0.0000
     18 H         -12.2664  -59.4095    1.5313 H         1 UNL1        0.0000
     19 H         -12.8862  -57.1891    2.2511 H         1 UNL1        0.0000
     20 H         -14.3080  -55.8164    0.8743 H         1 UNL1        0.0000
@<TRIPOS>BOND
     1    1    2 1
     2    1   14 1
     3    1   15 1
     4    1   16 1
     5    2   10 2
     6    2   11 1
     7    3    4 ar
     8    3    8 ar
     9    3   11 1
    10    4    5 ar
    11    4   17 1
    12    5    6 ar
    13    5   18 1
    14    6    7 ar
    15    6   19 1
    16    7    8 ar
    17    7   20 1
    18    8    9 1
    19    9   12 ar
    20    9   13 ar
@<TRIPOS>SUBSTRUCTURE
1 UNL1 1
@<TRIPOS>COMMENT
aspirin
PLANTSproteinTorsions
102
1 24.5005
42 19.7568
151 238.7341
173 131.3666
432 124.3235
491 35.6408
531 127.9353
563 290.1092
572 3.0023
629 171.0801
730 81.1830
826 38.1965
895 85.6551
921 221.6824
954 248.5928
1044 161.7548
1258 157.9573
1480 213.3256
1534 91.1512
1612 148.0059
1654 191.8850
1680 97.1285
1704 123.9787
1767 273.1801
1795 347.0094
1847 117.7276
1879 188.7386
1921 46.0805
1944 52.2809
1966 112.2185
1975 200.2449
2067 320.5118
2118 55.0335
2167 138.4902
2220 236.1699
2243 182.4475
2272 124.3315
2294 46.4147
2609 227.8425
2728 298.2948
2931 117.2750
3031 173.5171
3044 301.0791
3058 39.9980
3085 72.9129
3166 10.3305
3188 70.3812
3496 162.0865
3614 331.2162
3656 293.0771
3697 17.1370
3722 233.1412
3847 145.1593
3888 28.7150
4051 194.0238
4174 309.8780
4734 250.7270
4804 338.0888
4952 154.4414
5093 49.3110
5103 303.6015
5144 289.9586
5332 233.6787
5363 97.6822
5457 242.5761
5683 115.3207
5900 97.2206
6049 243.1602
6089 65.9493
6125 183.5008
6181 192.3251
6190 94.8467
6214 265.5750
6331 11.4231
6344 62.6457
6432 188.8844
7006 162.4856
7253 196.4792
7344 182.1459
7385 24.3382
7394 242.8965
7408 47.2150
7540 181.1620
7948 188.3396
8021 158.7319
8226 263.5935
8265 162.0102
8391 256.6692
8443 153.7228
8487 46.1292
8515 239.3344
8527 226.4009
8693 236.5651
8705 335.4557
8731 236.9735
8771 281.2814
8793 271.1328
8887 235.1656
8910 75.2214
8921 301.9571
8973 215.1574
8998 163.5818
PLANTSmolcadARTstart hb
PLANTSmolcadARTstart HB
LINES
-13.2566 -60.6365 -2.51249 -11.654 -59.599 -3.055 0 255 0 5
PLANTSmolcadARTstart HBCH
LINES
PLANTSmolcadARTstart HB-CHO
LINES
PLANTSmolcadARTend
PLANTSmolcadARTstart HB_WATER
LINES
PLANTSmolcadARTend

PLANTSmolcadARTend

