@<TRIPOS>MOLECULE
aspirin_entry_00001_conf_82
20 20 1
SMALL
NO_CHARGES


@<TRIPOS>ATOM
      1 C         -19.3911  -47.8096  -10.3227 C.3       1 UNL1        0.0000
      2 C         -20.8198  -47.4959  -10.0671 C.2       1 UNL1        0.0000
      3 C         -22.6383  -45.8737  -10.0052 C.ar      1 UNL1        0.0000
      4 C         -23.7282  -46.7121   -9.9056 C.ar      1 UNL1        0.0000
      5 C         -25.0009  -46.2731   -9.5984 C.ar      1 UNL1        0.0000
      6 C         -25.1885  -44.9298   -9.3800 C.ar      1 UNL1        0.0000
      7 C         -24.1336  -44.0477   -9.4673 C.ar      1 UNL1        0.0000
      8 C         -22.8615  -44.5293   -9.7798 C.ar      1 UNL1        0.0000
      9 C         -21.7733  -43.5625   -9.8622 C.2       1 UNL1        0.0000
     10 O         -21.6348  -48.3520   -9.6072 O.2       1 UNL1        0.0000
     11 O         -21.3618  -46.2647  -10.3066 O.3       1 UNL1        0.0000
     12 O         -20.6921  -43.8527  -10.4352 O.co2     1 UNL1       -0.5000
     13 O         -21.8864  -42.2958   -9.3144 O.co2     1 UNL1       -0.5000
     14 H         -19.1981  -48.8290  -10.0606 H         1 UNL1        0.0000
     15 H         -18.7737  -47.1665   -9.7312 H         1 UNL1        0.0000
     16 H         -19.1731  -47.6593  -11.3591 H         1 UNL1        0.0000
     17 H         -23.5855  -47.7208  -10.0692 H         1 UNL1        0.0000
     18 H         -25.7894  -46.9364   -9.5336 H         1 UNL1        0.0000
     19 H         -26.1302  -44.5767   -9.1485 H         1 UNL1        0.0000
     20 H         -24.2823  -43.0396   -9.3017 H         1 UNL1        0.0000
@<TRIPOS>BOND
     1    1    2 1
     2    1   14 1
     3    1   15 1
     4    1   16 1
     5    2   10 2
     6    2   11 1
     7    3    4 ar
     8    3    8 ar
     9    3   11 1
    10    4    5 ar
    11    4   17 1
    12    5    6 ar
    13    5   18 1
    14    6    7 ar
    15    6   19 1
    16    7    8 ar
    17    7   20 1
    18    8    9 1
    19    9   12 ar
    20    9   13 ar
@<TRIPOS>SUBSTRUCTURE
1 UNL1 1
@<TRIPOS>COMMENT
aspirin
PLANTSproteinTorsions
102
1 200.9315
42 357.3629
151 158.4467
173 231.6277
432 342.3449
491 40.8309
531 131.4049
563 323.7885
572 169.7919
629 143.3461
730 134.1170
826 255.8909
895 190.8524
921 306.7744
954 347.1641
1044 213.4350
1258 67.6892
1480 307.3866
1534 216.8342
1612 40.6045
1654 81.2883
1680 129.3478
1704 56.2383
1767 120.9379
1795 236.7690
1847 71.8121
1879 167.8355
1921 56.5211
1944 239.7170
1966 190.8386
1975 199.9854
2067 314.4911
2118 120.2935
2167 192.7474
2220 213.7568
2243 22.3019
2272 331.4276
2294 170.3111
2609 193.0389
2728 81.3963
2931 166.0900
3031 140.8041
3044 219.2117
3058 47.6890
3085 248.8955
3166 8.4855
3188 12.5463
3496 269.1629
3614 212.1145
3656 135.0053
3697 20.4562
3722 200.5757
3847 242.3476
3888 78.1154
4051 327.1866
4174 265.4220
4734 195.7557
4804 246.0144
4952 152.3445
5093 231.5696
5103 217.3242
5144 356.7505
5332 95.1281
5363 221.6137
5457 58.3483
5683 224.2195
5900 198.4117
6049 108.7507
6089 85.9222
6125 43.9336
6181 154.0098
6190 61.3563
6214 303.4348
6331 254.5668
6344 170.2812
6432 176.4702
7006 58.8024
7253 333.8612
7344 108.0700
7385 54.6922
7394 95.5462
7408 238.8387
7540 148.9863
7948 318.1714
8021 170.6190
8226 116.1785
8265 3.7872
8391 232.8278
8443 220.1985
8487 98.6412
8515 36.5559
8527 236.6989
8693 233.2573
8705 288.1299
8731 86.7734
8771 266.4687
8793 253.8194
8887 31.1688
8910 85.6115
8921 274.9938
8973 225.9373
8998 256.6927
PLANTSmolcadARTstart hb
PLANTSmolcadARTstart HB
LINES
PLANTSmolcadARTstart HBCH
LINES
PLANTSmolcadARTstart HB-CHO
LINES
PLANTSmolcadARTend
PLANTSmolcadARTstart HB_WATER
LINES
PLANTSmolcadARTend

PLANTSmolcadARTend

