@<TRIPOS>MOLECULE
aspirin_entry_00001_conf_39
20 20 1
SMALL
NO_CHARGES


@<TRIPOS>ATOM
      1 C          -1.0372  -38.3917   -2.9502 C.3       1 UNL1        0.0000
      2 C          -0.8385  -37.7036   -1.6495 C.2       1 UNL1        0.0000
      3 C           0.1655  -37.6556    0.5713 C.ar      1 UNL1        0.0000
      4 C           0.4621  -36.3177    0.7230 C.ar      1 UNL1        0.0000
      5 C           0.7800  -35.7413    1.9368 C.ar      1 UNL1        0.0000
      6 C           0.8007  -36.5448    3.0509 C.ar      1 UNL1        0.0000
      7 C           0.5128  -37.8889    2.9556 C.ar      1 UNL1        0.0000
      8 C           0.1954  -38.4353    1.7112 C.ar      1 UNL1        0.0000
      9 C          -0.1028  -39.8613    1.6544 C.2       1 UNL1        0.0000
     10 O          -1.2925  -36.5427   -1.4152 O.2       1 UNL1        0.0000
     11 O          -0.1545  -38.2681   -0.6100 O.3       1 UNL1        0.0000
     12 O          -0.0368  -40.5777    2.6858 O.co2     1 UNL1       -0.5000
     13 O          -0.4660  -40.4790    0.4694 O.co2     1 UNL1       -0.5000
     14 H          -1.5995  -37.7595   -3.6051 H         1 UNL1        0.0000
     15 H          -1.5705  -39.3056   -2.7920 H         1 UNL1        0.0000
     16 H          -0.0855  -38.6055   -3.3893 H         1 UNL1        0.0000
     17 H           0.4454  -35.7154   -0.1146 H         1 UNL1        0.0000
     18 H           0.9954  -34.7338    2.0052 H         1 UNL1        0.0000
     19 H           1.0352  -36.1378    3.9698 H         1 UNL1        0.0000
     20 H           0.5302  -38.4864    3.7973 H         1 UNL1        0.0000
@<TRIPOS>BOND
     1    1    2 1
     2    1   14 1
     3    1   15 1
     4    1   16 1
     5    2   10 2
     6    2   11 1
     7    3    4 ar
     8    3    8 ar
     9    3   11 1
    10    4    5 ar
    11    4   17 1
    12    5    6 ar
    13    5   18 1
    14    6    7 ar
    15    6   19 1
    16    7    8 ar
    17    7   20 1
    18    8    9 1
    19    9   12 ar
    20    9   13 ar
@<TRIPOS>SUBSTRUCTURE
1 UNL1 1
@<TRIPOS>COMMENT
aspirin
PLANTSproteinTorsions
102
1 243.3807
42 215.3559
151 138.4817
173 289.4413
432 341.3591
491 158.1006
531 248.8441
563 161.7403
572 16.6641
629 15.1970
730 150.1496
826 201.2947
895 137.1164
921 78.3334
954 96.8945
1044 234.7865
1258 41.7932
1480 15.4545
1534 54.7734
1612 107.9137
1654 31.6557
1680 124.1933
1704 222.2369
1767 203.6967
1795 263.9944
1847 188.7737
1879 114.8358
1921 189.2873
1944 13.5647
1966 70.0086
1975 316.9140
2067 108.0357
2118 134.5872
2167 171.6543
2220 245.4079
2243 83.6771
2272 352.4467
2294 82.5046
2609 47.3657
2728 203.2870
2931 53.4818
3031 317.9975
3044 196.4206
3058 212.2299
3085 259.4081
3166 238.6245
3188 111.9407
3496 113.5636
3614 144.8777
3656 220.5875
3697 204.1230
3722 139.5067
3847 119.8303
3888 5.0132
4051 35.2161
4174 92.7354
4734 143.2426
4804 285.1803
4952 118.5313
5093 200.5115
5103 213.3166
5144 165.5377
5332 249.2963
5363 114.2625
5457 9.2647
5683 35.1230
5900 40.0895
6049 45.3018
6089 164.4209
6125 294.7108
6181 95.2206
6190 82.5243
6214 189.2426
6331 122.8576
6344 110.6512
6432 214.7339
7006 142.2808
7253 268.9956
7344 133.9700
7385 143.1740
7394 95.3647
7408 81.1027
7540 306.9359
7948 264.2783
8021 267.1832
8226 18.7176
8265 95.2417
8391 75.2568
8443 189.0379
8487 134.8566
8515 250.1421
8527 20.9660
8693 82.3916
8705 312.5911
8731 218.2708
8771 141.5185
8793 167.5410
8887 50.6253
8910 180.2087
8921 132.7512
8973 183.3979
8998 239.6327
PLANTSmolcadARTstart hb
PLANTSmolcadARTstart HB
LINES
PLANTSmolcadARTstart HBCH
LINES
PLANTSmolcadARTstart HB-CHO
LINES
PLANTSmolcadARTend
PLANTSmolcadARTstart HB_WATER
LINES
PLANTSmolcadARTend

PLANTSmolcadARTend

