@<TRIPOS>MOLECULE
aspirin_entry_00001_conf_45
20 20 1
SMALL
NO_CHARGES


@<TRIPOS>ATOM
      1 C          -8.1939  -57.8689   11.8482 C.3       1 UNL1        0.0000
      2 C          -9.5179  -57.8920   11.1764 C.2       1 UNL1        0.0000
      3 C         -11.6886  -58.9614   10.8826 C.ar      1 UNL1        0.0000
      4 C         -12.5092  -57.8553   10.8189 C.ar      1 UNL1        0.0000
      5 C         -13.8322  -57.9104   10.4275 C.ar      1 UNL1        0.0000
      6 C         -14.3563  -59.1327   10.0830 C.ar      1 UNL1        0.0000
      7 C         -13.5804  -60.2704   10.1293 C.ar      1 UNL1        0.0000
      8 C         -12.2469  -60.1747   10.5298 C.ar      1 UNL1        0.0000
      9 C         -11.4610  -61.4022   10.5649 C.2       1 UNL1        0.0000
     10 O          -9.9433  -56.9258   10.4733 O.2       1 UNL1        0.0000
     11 O         -10.3743  -58.9530   11.2642 O.3       1 UNL1        0.0000
     12 O         -12.0199  -62.5287   10.5570 O.co2     1 UNL1       -0.5000
     13 O         -10.0773  -61.3756   10.6100 O.co2     1 UNL1       -0.5000
     14 H          -7.7037  -56.9415   11.6371 H         1 UNL1        0.0000
     15 H          -7.5961  -58.6787   11.4856 H         1 UNL1        0.0000
     16 H          -8.3285  -57.9699   12.9046 H         1 UNL1        0.0000
     17 H         -12.1139  -56.9380   11.0772 H         1 UNL1        0.0000
     18 H         -14.4113  -57.0563   10.3937 H         1 UNL1        0.0000
     19 H         -15.3426  -59.2003    9.7867 H         1 UNL1        0.0000
     20 H         -13.9812  -61.1854    9.8688 H         1 UNL1        0.0000
@<TRIPOS>BOND
     1    1    2 1
     2    1   14 1
     3    1   15 1
     4    1   16 1
     5    2   10 2
     6    2   11 1
     7    3    4 ar
     8    3    8 ar
     9    3   11 1
    10    4    5 ar
    11    4   17 1
    12    5    6 ar
    13    5   18 1
    14    6    7 ar
    15    6   19 1
    16    7    8 ar
    17    7   20 1
    18    8    9 1
    19    9   12 ar
    20    9   13 ar
@<TRIPOS>SUBSTRUCTURE
1 UNL1 1
@<TRIPOS>COMMENT
aspirin
PLANTSproteinTorsions
102
1 31.9309
42 35.8022
151 291.2072
173 52.4985
432 107.5202
491 55.7466
531 177.2708
563 262.5365
572 175.9629
629 255.8056
730 38.8256
826 27.0444
895 234.1874
921 253.2806
954 60.8978
1044 90.4185
1258 126.8024
1480 18.9895
1534 182.2542
1612 146.8210
1654 294.6076
1680 355.1492
1704 18.8150
1767 199.7047
1795 353.4097
1847 115.0082
1879 206.4893
1921 221.6005
1944 248.3766
1966 40.5140
1975 221.9455
2067 35.1088
2118 63.9942
2167 69.5222
2220 81.9715
2243 11.6230
2272 60.4818
2294 23.8485
2609 248.0908
2728 11.9735
2931 99.7370
3031 245.0713
3044 37.9904
3058 26.6851
3085 330.2698
3166 27.0687
3188 142.8832
3496 130.4960
3614 8.1783
3656 126.7047
3697 151.1127
3722 216.3302
3847 116.6425
3888 44.5431
4051 164.5047
4174 72.8744
4734 230.1485
4804 200.8208
4952 123.3065
5093 245.0019
5103 217.7988
5144 292.2298
5332 236.3452
5363 82.9411
5457 183.8676
5683 79.8055
5900 300.9085
6049 162.6261
6089 66.4551
6125 194.9808
6181 275.0525
6190 198.6841
6214 72.0439
6331 206.0591
6344 60.5155
6432 167.6749
7006 327.3299
7253 26.5820
7344 210.7076
7385 216.6855
7394 171.0917
7408 53.7983
7540 202.6931
7948 165.1487
8021 271.0977
8226 143.8652
8265 177.0293
8391 205.0683
8443 128.0982
8487 41.3018
8515 206.6143
8527 230.0573
8693 171.6105
8705 24.9829
8731 71.1877
8771 306.2719
8793 14.1652
8887 97.0305
8910 17.9511
8921 303.2760
8973 258.5132
8998 90.6680
PLANTSmolcadARTstart hb
PLANTSmolcadARTstart HB
LINES
-12.0199 -62.5287 10.557 -12.112 -64.488 10.122 0 255 0 5
-12.0199 -62.5287 10.557 -10.5069 -63.5719 10.7454 0 255 0 5
PLANTSmolcadARTstart HBCH
LINES
PLANTSmolcadARTstart HB-CHO
LINES
PLANTSmolcadARTend
PLANTSmolcadARTstart HB_WATER
LINES
PLANTSmolcadARTend

PLANTSmolcadARTend

