@<TRIPOS>MOLECULE
aspirin_entry_00001_conf_63
20 20 1
SMALL
NO_CHARGES


@<TRIPOS>ATOM
      1 C         -14.7741  -35.2117   11.2416 C.3       1 UNL1        0.0000
      2 C         -15.9161  -34.5096   11.8801 C.2       1 UNL1        0.0000
      3 C         -15.8327  -32.5347   10.4536 C.ar      1 UNL1        0.0000
      4 C         -15.4291  -33.0679    9.2479 C.ar      1 UNL1        0.0000
      5 C         -14.9559  -32.3052    8.1985 C.ar      1 UNL1        0.0000
      6 C         -14.8851  -30.9436    8.3665 C.ar      1 UNL1        0.0000
      7 C         -15.2752  -30.3586    9.5514 C.ar      1 UNL1        0.0000
      8 C         -15.7486  -31.1626   10.5894 C.ar      1 UNL1        0.0000
      9 C         -16.1510  -30.5037   11.8262 C.2       1 UNL1        0.0000
     10 O         -16.6063  -35.0320   12.8072 O.2       1 UNL1        0.0000
     11 O         -16.3074  -33.2514   11.5186 O.3       1 UNL1        0.0000
     12 O         -16.3056  -31.1596   12.8880 O.co2     1 UNL1       -0.5000
     13 O         -16.3792  -29.1389   11.8790 O.co2     1 UNL1       -0.5000
     14 H         -14.6564  -36.1777   11.6866 H         1 UNL1        0.0000
     15 H         -13.8802  -34.6418   11.3851 H         1 UNL1        0.0000
     16 H         -14.9634  -35.3210   10.1945 H         1 UNL1        0.0000
     17 H         -15.4836  -34.0906    9.1230 H         1 UNL1        0.0000
     18 H         -14.6643  -32.7463    7.3117 H         1 UNL1        0.0000
     19 H         -14.5351  -30.3516    7.5969 H         1 UNL1        0.0000
     20 H         -15.2193  -29.3347    9.6703 H         1 UNL1        0.0000
@<TRIPOS>BOND
     1    1    2 1
     2    1   14 1
     3    1   15 1
     4    1   16 1
     5    2   10 2
     6    2   11 1
     7    3    4 ar
     8    3    8 ar
     9    3   11 1
    10    4    5 ar
    11    4   17 1
    12    5    6 ar
    13    5   18 1
    14    6    7 ar
    15    6   19 1
    16    7    8 ar
    17    7   20 1
    18    8    9 1
    19    9   12 ar
    20    9   13 ar
@<TRIPOS>SUBSTRUCTURE
1 UNL1 1
@<TRIPOS>COMMENT
aspirin
PLANTSproteinTorsions
102
1 228.3550
42 247.7287
151 267.6701
173 25.0834
432 273.1594
491 34.9717
531 140.1829
563 105.0636
572 357.2004
629 219.4703
730 40.5328
826 68.2064
895 105.3183
921 80.1858
954 50.6653
1044 270.0521
1258 165.6292
1480 68.2641
1534 186.6059
1612 351.9820
1654 292.2881
1680 240.5999
1704 182.6671
1767 2.3989
1795 249.7947
1847 27.3555
1879 84.5591
1921 330.9871
1944 115.7932
1966 101.9204
1975 152.0452
2067 104.6123
2118 147.7767
2167 55.4694
2220 175.4447
2243 242.9372
2272 348.2320
2294 219.2118
2609 144.7619
2728 32.2172
2931 58.6456
3031 137.2034
3044 350.7538
3058 289.3665
3085 190.2346
3166 92.4601
3188 342.7299
3496 192.1378
3614 185.9219
3656 193.8910
3697 63.4871
3722 284.8707
3847 251.0594
3888 168.4400
4051 89.4730
4174 234.0094
4734 94.2337
4804 131.6038
4952 329.8162
5093 80.3497
5103 158.8990
5144 68.3693
5332 163.8896
5363 19.3277
5457 164.1934
5683 354.0133
5900 79.3206
6049 148.9957
6089 65.2834
6125 222.7385
6181 9.9190
6190 44.8821
6214 111.1235
6331 67.0276
6344 135.7327
6432 260.7535
7006 135.2336
7253 88.5589
7344 174.4737
7385 43.5691
7394 138.4768
7408 276.1808
7540 51.3759
7948 165.9730
8021 74.3336
8226 304.5067
8265 267.6526
8391 29.4031
8443 204.2452
8487 356.5904
8515 28.9906
8527 19.1100
8693 355.3604
8705 12.9272
8731 170.2651
8771 216.9481
8793 257.7579
8887 321.2458
8910 339.5167
8921 313.2575
8973 323.2241
8998 237.4715
PLANTSmolcadARTstart hb
PLANTSmolcadARTstart HB
LINES
PLANTSmolcadARTstart HBCH
LINES
PLANTSmolcadARTstart HB-CHO
LINES
PLANTSmolcadARTend
PLANTSmolcadARTstart HB_WATER
LINES
PLANTSmolcadARTend

PLANTSmolcadARTend

