@<TRIPOS>MOLECULE
aspirin_entry_00001_conf_88
20 20 1
SMALL
NO_CHARGES


@<TRIPOS>ATOM
      1 C         -44.5888  -68.6011    0.2888 C.3       1 UNL1        0.0000
      2 C         -43.9964  -69.9192    0.6301 C.2       1 UNL1        0.0000
      3 C         -43.4009  -70.5244   -1.6549 C.ar      1 UNL1        0.0000
      4 C         -43.0857  -69.3073   -2.2208 C.ar      1 UNL1        0.0000
      5 C         -42.9982  -69.1011   -3.5834 C.ar      1 UNL1        0.0000
      6 C         -43.2376  -70.1663   -4.4173 C.ar      1 UNL1        0.0000
      7 C         -43.5572  -71.4046   -3.9045 C.ar      1 UNL1        0.0000
      8 C         -43.6357  -71.5742   -2.5215 C.ar      1 UNL1        0.0000
      9 C         -43.9766  -72.9003   -2.0205 C.2       1 UNL1        0.0000
     10 O         -43.9138  -70.3420    1.8231 O.2       1 UNL1        0.0000
     11 O         -43.4982  -70.7736   -0.3127 O.3       1 UNL1        0.0000
     12 O         -44.2450  -73.8411   -2.8106 O.co2     1 UNL1       -0.5000
     13 O         -44.0198  -73.1733   -0.6636 O.co2     1 UNL1       -0.5000
     14 H         -44.9099  -68.1124    1.1849 H         1 UNL1        0.0000
     15 H         -45.4279  -68.7446   -0.3593 H         1 UNL1        0.0000
     16 H         -43.8559  -67.9981   -0.2047 H         1 UNL1        0.0000
     17 H         -42.9054  -68.5085   -1.5932 H         1 UNL1        0.0000
     18 H         -42.7586  -68.1721   -3.9648 H         1 UNL1        0.0000
     19 H         -43.1782  -70.0379   -5.4396 H         1 UNL1        0.0000
     20 H         -43.7356  -72.2004   -4.5374 H         1 UNL1        0.0000
@<TRIPOS>BOND
     1    1    2 1
     2    1   14 1
     3    1   15 1
     4    1   16 1
     5    2   10 2
     6    2   11 1
     7    3    4 ar
     8    3    8 ar
     9    3   11 1
    10    4    5 ar
    11    4   17 1
    12    5    6 ar
    13    5   18 1
    14    6    7 ar
    15    6   19 1
    16    7    8 ar
    17    7   20 1
    18    8    9 1
    19    9   12 ar
    20    9   13 ar
@<TRIPOS>SUBSTRUCTURE
1 UNL1 1
@<TRIPOS>COMMENT
aspirin
PLANTSproteinTorsions
102
1 143.8674
42 130.9707
151 232.7224
173 163.4410
432 126.2733
491 25.2321
531 196.8331
563 144.7749
572 32.4420
629 218.3426
730 293.5897
826 72.9678
895 123.7532
921 235.9094
954 100.5655
1044 153.3595
1258 133.5942
1480 68.6982
1534 312.4659
1612 36.0311
1654 237.6715
1680 357.1855
1704 46.5646
1767 202.7305
1795 244.5511
1847 138.7517
1879 224.3585
1921 134.9009
1944 272.7101
1966 19.1881
1975 271.9796
2067 112.2396
2118 256.9700
2167 68.2083
2220 229.5278
2243 34.3058
2272 320.0814
2294 190.8986
2609 149.0724
2728 136.1525
2931 59.8544
3031 46.3596
3044 8.8336
3058 314.0989
3085 155.7835
3166 75.5590
3188 132.7939
3496 1.0774
3614 329.7580
3656 353.0659
3697 80.1396
3722 256.4466
3847 129.4563
3888 355.3590
4051 159.3596
4174 43.8651
4734 240.5553
4804 180.8127
4952 193.1884
5093 89.4519
5103 261.9271
5144 298.2377
5332 282.3549
5363 82.1450
5457 206.8985
5683 115.6811
5900 260.8363
6049 154.9983
6089 81.3559
6125 110.7318
6181 199.5986
6190 55.4854
6214 298.5980
6331 249.5903
6344 81.6458
6432 251.8029
7006 134.1358
7253 120.5919
7344 145.2814
7385 57.3304
7394 159.8814
7408 65.7594
7540 231.7992
7948 152.6943
8021 169.9365
8226 241.1895
8265 159.0513
8391 258.4052
8443 36.3466
8487 134.9888
8515 324.9518
8527 205.2685
8693 283.0722
8705 50.5681
8731 191.9249
8771 247.0398
8793 280.1159
8887 117.6307
8910 72.3387
8921 191.5083
8973 77.5925
8998 140.4649
PLANTSmolcadARTstart hb
PLANTSmolcadARTstart HB
LINES
PLANTSmolcadARTstart HBCH
LINES
PLANTSmolcadARTstart HB-CHO
LINES
PLANTSmolcadARTend
PLANTSmolcadARTstart HB_WATER
LINES
PLANTSmolcadARTend

PLANTSmolcadARTend

