@<TRIPOS>MOLECULE
aspirin_entry_00001_conf_74
20 20 1
SMALL
NO_CHARGES


@<TRIPOS>ATOM
      1 C         -59.2064  -64.2843   13.7763 C.3       1 UNL1        0.0000
      2 C         -60.3987  -64.0611   12.9199 C.2       1 UNL1        0.0000
      3 C         -61.8609  -64.7936   11.1122 C.ar      1 UNL1        0.0000
      4 C         -62.3734  -63.6037   10.6406 C.ar      1 UNL1        0.0000
      5 C         -63.4840  -63.5236    9.8241 C.ar      1 UNL1        0.0000
      6 C         -64.1095  -64.6923    9.4632 C.ar      1 UNL1        0.0000
      7 C         -63.6392  -65.9091    9.9068 C.ar      1 UNL1        0.0000
      8 C         -62.5134  -65.9498   10.7306 C.ar      1 UNL1        0.0000
      9 C         -62.0488  -67.2574   11.1776 C.2       1 UNL1        0.0000
     10 O         -61.1590  -63.0552   13.0573 O.2       1 UNL1        0.0000
     11 O         -60.7646  -64.9196   11.9218 O.3       1 UNL1        0.0000
     12 O         -62.7508  -68.2867   11.0066 O.co2     1 UNL1       -0.5000
     13 O         -60.8249  -67.4157   11.8058 O.co2     1 UNL1       -0.5000
     14 H         -59.1209  -63.4852   14.4827 H         1 UNL1        0.0000
     15 H         -58.3291  -64.3149   13.1647 H         1 UNL1        0.0000
     16 H         -59.3106  -65.2128   14.2972 H         1 UNL1        0.0000
     17 H         -61.9021  -62.7269   10.9119 H         1 UNL1        0.0000
     18 H         -63.8342  -62.6104    9.4931 H         1 UNL1        0.0000
     19 H         -64.9414  -64.6591    8.8534 H         1 UNL1        0.0000
     20 H         -64.1144  -66.7832    9.6313 H         1 UNL1        0.0000
@<TRIPOS>BOND
     1    1    2 1
     2    1   14 1
     3    1   15 1
     4    1   16 1
     5    2   10 2
     6    2   11 1
     7    3    4 ar
     8    3    8 ar
     9    3   11 1
    10    4    5 ar
    11    4   17 1
    12    5    6 ar
    13    5   18 1
    14    6    7 ar
    15    6   19 1
    16    7    8 ar
    17    7   20 1
    18    8    9 1
    19    9   12 ar
    20    9   13 ar
@<TRIPOS>SUBSTRUCTURE
1 UNL1 1
@<TRIPOS>COMMENT
aspirin
PLANTSproteinTorsions
102
1 217.7317
42 326.4587
151 235.9536
173 24.9129
432 325.2198
491 123.3617
531 160.9537
563 349.2761
572 64.3741
629 65.5217
730 330.1183
826 79.7318
895 6.7301
921 72.4611
954 97.5005
1044 157.8971
1258 150.4373
1480 50.1568
1534 265.2851
1612 56.9317
1654 177.2291
1680 191.6595
1704 285.2696
1767 129.3936
1795 343.0566
1847 41.5006
1879 51.2752
1921 219.6770
1944 168.5024
1966 229.8065
1975 16.3134
2067 179.3351
2118 145.2000
2167 6.8020
2220 21.8668
2243 18.4125
2272 117.5496
2294 215.2256
2609 63.7485
2728 318.9255
2931 244.3921
3031 48.9654
3044 352.2138
3058 291.9487
3085 239.0429
3166 288.1774
3188 154.0041
3496 240.5908
3614 336.9677
3656 119.7864
3697 153.8102
3722 224.3204
3847 149.9451
3888 156.9884
4051 177.0299
4174 30.6038
4734 161.7226
4804 336.7284
4952 70.3482
5093 171.5635
5103 324.6922
5144 234.0056
5332 226.8066
5363 88.6545
5457 169.7815
5683 351.6169
5900 64.1449
6049 178.4552
6089 257.5918
6125 131.7030
6181 223.3523
6190 185.9804
6214 73.2333
6331 47.5138
6344 257.0416
6432 132.4041
7006 204.0781
7253 197.8816
7344 208.4196
7385 81.2170
7394 152.0024
7408 87.3429
7540 121.9181
7948 266.6920
8021 225.9780
8226 207.0899
8265 193.8712
8391 267.7537
8443 87.0254
8487 117.4892
8515 60.4595
8527 196.5373
8693 266.2903
8705 42.0153
8731 197.2219
8771 127.6352
8793 22.5346
8887 293.4503
8910 52.0112
8921 272.8400
8973 256.0315
8998 209.5672
PLANTSmolcadARTstart hb
PLANTSmolcadARTstart HB
LINES
PLANTSmolcadARTstart HBCH
LINES
PLANTSmolcadARTstart HB-CHO
LINES
PLANTSmolcadARTend
PLANTSmolcadARTstart HB_WATER
LINES
PLANTSmolcadARTend

PLANTSmolcadARTend

