@<TRIPOS>MOLECULE
aspirin_entry_00001_conf_42
20 20 1
SMALL
NO_CHARGES


@<TRIPOS>ATOM
      1 C           1.3350  -65.9112    0.3603 C.3       1 UNL1        0.0000
      2 C           0.5238  -65.3271    1.4583 C.2       1 UNL1        0.0000
      3 C           0.2333  -63.1418    0.4180 C.ar      1 UNL1        0.0000
      4 C           0.2031  -63.4485   -0.9258 C.ar      1 UNL1        0.0000
      5 C           0.3711  -62.5101   -1.9248 C.ar      1 UNL1        0.0000
      6 C           0.5784  -61.2025   -1.5582 C.ar      1 UNL1        0.0000
      7 C           0.6183  -60.8412   -0.2292 C.ar      1 UNL1        0.0000
      8 C           0.4438  -61.8181    0.7522 C.ar      1 UNL1        0.0000
      9 C           0.4930  -61.3935    2.1461 C.2       1 UNL1        0.0000
     10 O           0.1960  -65.9876    2.4903 O.2       1 UNL1        0.0000
     11 O           0.0718  -64.0378    1.4399 O.3       1 UNL1        0.0000
     12 O           0.6371  -62.2312    3.0729 O.co2     1 UNL1       -0.5000
     13 O           0.3817  -60.0598    2.5016 O.co2     1 UNL1       -0.5000
     14 H           1.5720  -66.9279    0.5948 H         1 UNL1        0.0000
     15 H           2.2396  -65.3509    0.2487 H         1 UNL1        0.0000
     16 H           0.7781  -65.8750   -0.5523 H         1 UNL1        0.0000
     17 H           0.0466  -64.4309   -1.1995 H         1 UNL1        0.0000
     18 H           0.3408  -62.7838   -2.9199 H         1 UNL1        0.0000
     19 H           0.7065  -60.4822   -2.2862 H         1 UNL1        0.0000
     20 H           0.7743  -59.8565    0.0387 H         1 UNL1        0.0000
@<TRIPOS>BOND
     1    1    2 1
     2    1   14 1
     3    1   15 1
     4    1   16 1
     5    2   10 2
     6    2   11 1
     7    3    4 ar
     8    3    8 ar
     9    3   11 1
    10    4    5 ar
    11    4   17 1
    12    5    6 ar
    13    5   18 1
    14    6    7 ar
    15    6   19 1
    16    7    8 ar
    17    7   20 1
    18    8    9 1
    19    9   12 ar
    20    9   13 ar
@<TRIPOS>SUBSTRUCTURE
1 UNL1 1
@<TRIPOS>COMMENT
aspirin
PLANTSproteinTorsions
102
1 140.9170
42 0.4408
151 342.1283
173 202.5733
432 220.4418
491 191.3177
531 112.0806
563 184.6142
572 26.9872
629 174.1052
730 305.3563
826 78.1844
895 101.9151
921 39.8219
954 177.6568
1044 74.1717
1258 190.3854
1480 30.2434
1534 15.8155
1612 51.2912
1654 3.0719
1680 227.0187
1704 358.2055
1767 33.7398
1795 86.8803
1847 22.0231
1879 214.1201
1921 37.5186
1944 308.8120
1966 108.4971
1975 132.7167
2067 85.0707
2118 245.8125
2167 4.6974
2220 64.6744
2243 208.1269
2272 57.6557
2294 120.4537
2609 262.6488
2728 258.3494
2931 169.4320
3031 236.6546
3044 117.4761
3058 9.6488
3085 28.4940
3166 14.5695
3188 347.1122
3496 110.3384
3614 28.9755
3656 131.8777
3697 168.6406
3722 77.6294
3847 321.6893
3888 197.4428
4051 294.8539
4174 188.0091
4734 330.5879
4804 244.6523
4952 220.0607
5093 217.6513
5103 95.0042
5144 176.6115
5332 309.0712
5363 75.1196
5457 203.1483
5683 4.4877
5900 69.3682
6049 312.6820
6089 229.7679
6125 128.9869
6181 254.2493
6190 177.2736
6214 93.7665
6331 265.9021
6344 167.4789
6432 273.5736
7006 308.1276
7253 38.0391
7344 322.3153
7385 182.4902
7394 356.2169
7408 261.4002
7540 220.6847
7948 160.8345
8021 144.3343
8226 184.3728
8265 196.2422
8391 143.2355
8443 163.3744
8487 29.5616
8515 260.2610
8527 20.5420
8693 243.0554
8705 230.1815
8731 277.8333
8771 136.0188
8793 64.7411
8887 265.6740
8910 278.9041
8921 182.4296
8973 148.1739
8998 130.0586
PLANTSmolcadARTstart hb
PLANTSmolcadARTstart HB
LINES
0.381727 -60.0598 2.50164 -1.45423 -59.54 1.71674 0 255 0 5
PLANTSmolcadARTstart HBCH
LINES
PLANTSmolcadARTstart HB-CHO
LINES
PLANTSmolcadARTend
PLANTSmolcadARTstart HB_WATER
LINES
PLANTSmolcadARTend

PLANTSmolcadARTend

