@<TRIPOS>MOLECULE
aspirin_entry_00001_conf_67
20 20 1
SMALL
NO_CHARGES


@<TRIPOS>ATOM
      1 C         -13.6527  -62.7424   11.3489 C.3       1 UNL1        0.0000
      2 C         -12.6221  -61.8592   10.7468 C.2       1 UNL1        0.0000
      3 C         -11.7599  -59.5882   10.5431 C.ar      1 UNL1        0.0000
      4 C         -10.4148  -59.8856   10.4880 C.ar      1 UNL1        0.0000
      5 C          -9.4272  -58.9271   10.3757 C.ar      1 UNL1        0.0000
      6 C          -9.8071  -57.6083   10.3151 C.ar      1 UNL1        0.0000
      7 C         -11.1380  -57.2554   10.3664 C.ar      1 UNL1        0.0000
      8 C         -12.1076  -58.2528   10.4797 C.ar      1 UNL1        0.0000
      9 C         -13.5040  -57.8366   10.5308 C.2       1 UNL1        0.0000
     10 O         -11.5319  -62.3049   10.2761 O.2       1 UNL1        0.0000
     11 O         -12.7708  -60.5041   10.6539 O.3       1 UNL1        0.0000
     12 O         -13.8220  -56.6244   10.4259 O.co2     1 UNL1       -0.5000
     13 O         -14.5279  -58.7538   10.6979 O.co2     1 UNL1       -0.5000
     14 H         -13.3179  -63.7580   11.3102 H         1 UNL1        0.0000
     15 H         -14.5672  -62.6474   10.8017 H         1 UNL1        0.0000
     16 H         -13.8151  -62.4579   12.3672 H         1 UNL1        0.0000
     17 H         -10.1311  -60.8766   10.5329 H         1 UNL1        0.0000
     18 H          -8.4306  -59.1945   10.3374 H         1 UNL1        0.0000
     19 H          -9.0878  -56.8730   10.2307 H         1 UNL1        0.0000
     20 H         -11.4159  -56.2623   10.3202 H         1 UNL1        0.0000
@<TRIPOS>BOND
     1    1    2 1
     2    1   14 1
     3    1   15 1
     4    1   16 1
     5    2   10 2
     6    2   11 1
     7    3    4 ar
     8    3    8 ar
     9    3   11 1
    10    4    5 ar
    11    4   17 1
    12    5    6 ar
    13    5   18 1
    14    6    7 ar
    15    6   19 1
    16    7    8 ar
    17    7   20 1
    18    8    9 1
    19    9   12 ar
    20    9   13 ar
@<TRIPOS>SUBSTRUCTURE
1 UNL1 1
@<TRIPOS>COMMENT
aspirin
PLANTSproteinTorsions
102
1 344.6442
42 203.0102
151 304.2411
173 320.6758
432 116.3443
491 13.2710
531 148.7776
563 271.4921
572 84.5406
629 16.6601
730 184.0247
826 142.5711
895 89.7844
921 253.2676
954 85.7165
1044 171.0832
1258 197.4749
1480 66.9130
1534 292.7244
1612 270.2119
1654 226.1115
1680 249.6458
1704 126.1802
1767 159.0139
1795 52.8154
1847 42.6981
1879 185.9525
1921 68.7881
1944 179.7019
1966 125.2733
1975 192.6460
2067 347.0320
2118 258.3954
2167 114.6093
2220 295.3849
2243 12.3398
2272 114.0088
2294 92.1725
2609 141.4858
2728 46.4600
2931 80.7076
3031 63.3315
3044 82.6652
3058 223.7948
3085 306.2709
3166 55.2641
3188 62.4234
3496 179.0614
3614 348.8949
3656 254.2620
3697 21.4795
3722 289.7991
3847 76.7251
3888 43.0368
4051 185.5122
4174 69.4444
4734 139.4586
4804 202.3521
4952 40.8067
5093 235.5671
5103 262.8333
5144 181.3875
5332 158.3460
5363 87.4595
5457 306.2271
5683 119.3444
5900 263.1631
6049 232.2168
6089 303.3124
6125 124.4071
6181 203.9753
6190 297.5731
6214 173.9566
6331 237.7306
6344 78.3760
6432 225.8818
7006 207.8130
7253 34.4974
7344 132.0657
7385 4.5933
7394 73.2456
7408 57.1240
7540 28.5190
7948 60.3731
8021 297.9443
8226 269.8955
8265 172.2424
8391 117.3954
8443 27.1812
8487 153.1752
8515 25.6806
8527 215.9699
8693 6.7758
8705 64.2569
8731 117.3638
8771 237.8917
8793 226.4600
8887 38.1002
8910 193.8801
8921 331.2454
8973 224.7266
8998 77.5360
PLANTSmolcadARTstart hb
PLANTSmolcadARTstart HB
LINES
-11.5319 -62.3049 10.2761 -12.112 -64.488 10.122 0 255 0 5
PLANTSmolcadARTstart HBCH
LINES
PLANTSmolcadARTstart HB-CHO
LINES
PLANTSmolcadARTend
PLANTSmolcadARTstart HB_WATER
LINES
PLANTSmolcadARTend

PLANTSmolcadARTend

