@<TRIPOS>MOLECULE
aspirin_entry_00001_conf_36
20 20 1
SMALL
NO_CHARGES


@<TRIPOS>ATOM
      1 C         -49.3460  -37.6472    5.0220 C.3       1 UNL1        0.0000
      2 C         -49.2150  -36.2216    5.4161 C.2       1 UNL1        0.0000
      3 C         -47.1720  -36.5040    6.7156 C.ar      1 UNL1        0.0000
      4 C         -46.5202  -37.5008    6.0210 C.ar      1 UNL1        0.0000
      5 C         -45.4568  -38.2164    6.5348 C.ar      1 UNL1        0.0000
      6 C         -45.0267  -37.9172    7.8047 C.ar      1 UNL1        0.0000
      7 C         -45.6429  -36.9304    8.5431 C.ar      1 UNL1        0.0000
      8 C         -46.7146  -36.2284    7.9895 C.ar      1 UNL1        0.0000
      9 C         -47.3382  -35.1925    8.8042 C.2       1 UNL1        0.0000
     10 O         -50.0134  -35.3246    5.0078 O.2       1 UNL1        0.0000
     11 O         -48.2280  -35.7706    6.2464 O.3       1 UNL1        0.0000
     12 O         -48.3652  -34.5863    8.4052 O.co2     1 UNL1       -0.5000
     13 O         -46.8257  -34.8364   10.0404 O.co2     1 UNL1       -0.5000
     14 H         -50.1878  -37.7608    4.3713 H         1 UNL1        0.0000
     15 H         -49.4879  -38.2470    5.8965 H         1 UNL1        0.0000
     16 H         -48.4574  -37.9599    4.5152 H         1 UNL1        0.0000
     17 H         -46.8439  -37.7238    5.0671 H         1 UNL1        0.0000
     18 H         -44.9970  -38.9553    5.9792 H         1 UNL1        0.0000
     19 H         -44.2336  -38.4376    8.2112 H         1 UNL1        0.0000
     20 H         -45.3140  -36.7110    9.4967 H         1 UNL1        0.0000
@<TRIPOS>BOND
     1    1    2 1
     2    1   14 1
     3    1   15 1
     4    1   16 1
     5    2   10 2
     6    2   11 1
     7    3    4 ar
     8    3    8 ar
     9    3   11 1
    10    4    5 ar
    11    4   17 1
    12    5    6 ar
    13    5   18 1
    14    6    7 ar
    15    6   19 1
    16    7    8 ar
    17    7   20 1
    18    8    9 1
    19    9   12 ar
    20    9   13 ar
@<TRIPOS>SUBSTRUCTURE
1 UNL1 1
@<TRIPOS>COMMENT
aspirin
PLANTSproteinTorsions
102
1 1.2059
42 40.7127
151 17.9345
173 201.7586
432 9.1657
491 1.0495
531 298.0316
563 100.6790
572 69.9118
629 212.5484
730 147.4714
826 21.4525
895 225.6840
921 24.3063
954 252.7054
1044 310.4306
1258 161.8913
1480 2.2908
1534 61.4625
1612 183.3266
1654 322.5554
1680 223.6277
1704 39.2614
1767 44.9602
1795 86.5109
1847 72.9046
1879 113.8653
1921 126.0558
1944 92.8474
1966 48.9152
1975 163.6589
2067 249.2491
2118 75.6473
2167 331.4242
2220 284.2654
2243 208.1329
2272 283.9007
2294 164.3769
2609 215.4097
2728 272.2177
2931 299.9381
3031 94.5616
3044 121.0829
3058 112.2975
3085 350.0832
3166 153.4831
3188 47.7914
3496 65.6889
3614 45.5681
3656 314.4249
3697 248.5344
3722 163.5771
3847 260.5941
3888 156.4239
4051 150.0182
4174 90.7177
4734 105.1490
4804 291.2646
4952 350.9104
5093 150.0767
5103 36.0364
5144 164.4467
5332 131.0081
5363 76.6737
5457 189.3635
5683 103.0066
5900 45.9248
6049 142.1112
6089 169.4741
6125 270.3871
6181 179.4364
6190 130.4304
6214 144.7014
6331 200.4432
6344 170.3603
6432 260.3715
7006 26.0679
7253 186.6425
7344 39.7047
7385 204.7030
7394 122.7243
7408 54.4447
7540 154.3499
7948 65.0219
8021 153.6095
8226 191.3308
8265 147.5516
8391 173.1595
8443 118.8926
8487 357.1638
8515 95.7447
8527 68.0038
8693 286.2714
8705 145.7170
8731 166.6309
8771 159.0297
8793 288.6403
8887 217.5102
8910 189.8427
8921 146.6436
8973 284.7672
8998 255.1411
PLANTSmolcadARTstart hb
PLANTSmolcadARTstart HB
LINES
PLANTSmolcadARTstart HBCH
LINES
PLANTSmolcadARTstart HB-CHO
LINES
PLANTSmolcadARTend
PLANTSmolcadARTstart HB_WATER
LINES
PLANTSmolcadARTend

PLANTSmolcadARTend

