@<TRIPOS>MOLECULE
aspirin_entry_00001_conf_04
20 20 1
SMALL
NO_CHARGES


@<TRIPOS>ATOM
      1 C         -30.9228  -43.3861  -19.2438 C.3       1 UNL1        0.0000
      2 C         -32.0247  -44.1160  -19.9205 C.2       1 UNL1        0.0000
      3 C         -31.4724  -46.3275  -19.0565 C.ar      1 UNL1        0.0000
      4 C         -30.1023  -46.2107  -18.9549 C.ar      1 UNL1        0.0000
      5 C         -29.3041  -47.1408  -18.3189 C.ar      1 UNL1        0.0000
      6 C         -29.9090  -48.2393  -17.7579 C.ar      1 UNL1        0.0000
      7 C         -31.2748  -48.4056  -17.8308 C.ar      1 UNL1        0.0000
      8 C         -32.0486  -47.4436  -18.4818 C.ar      1 UNL1        0.0000
      9 C         -33.4897  -47.6579  -18.5364 C.2       1 UNL1        0.0000
     10 O         -32.7849  -43.5657  -20.7737 O.2       1 UNL1        0.0000
     11 O         -32.3009  -45.4317  -19.6763 O.3       1 UNL1        0.0000
     12 O         -34.0172  -48.6542  -17.9792 O.co2     1 UNL1       -0.5000
     13 O         -34.3282  -46.7792  -19.2015 O.co2     1 UNL1       -0.5000
     14 H         -30.8982  -42.3751  -19.5933 H         1 UNL1        0.0000
     15 H         -29.9909  -43.8627  -19.4653 H         1 UNL1        0.0000
     16 H         -31.0858  -43.3952  -18.1866 H         1 UNL1        0.0000
     17 H         -29.6496  -45.3848  -19.3761 H         1 UNL1        0.0000
     18 H         -28.2808  -47.0135  -18.2657 H         1 UNL1        0.0000
     19 H         -29.3342  -48.9487  -17.2766 H         1 UNL1        0.0000
     20 H         -31.7223  -49.2336  -17.4067 H         1 UNL1        0.0000
@<TRIPOS>BOND
     1    1    2 1
     2    1   14 1
     3    1   15 1
     4    1   16 1
     5    2   10 2
     6    2   11 1
     7    3    4 ar
     8    3    8 ar
     9    3   11 1
    10    4    5 ar
    11    4   17 1
    12    5    6 ar
    13    5   18 1
    14    6    7 ar
    15    6   19 1
    16    7    8 ar
    17    7   20 1
    18    8    9 1
    19    9   12 ar
    20    9   13 ar
@<TRIPOS>SUBSTRUCTURE
1 UNL1 1
@<TRIPOS>COMMENT
aspirin
PLANTSproteinTorsions
102
1 17.2565
42 200.1665
151 169.4550
173 200.2687
432 341.9831
491 34.2754
531 31.4465
563 28.0242
572 237.8447
629 164.6946
730 145.2949
826 26.6363
895 13.8195
921 137.1998
954 46.3881
1044 202.1329
1258 353.2713
1480 346.7305
1534 109.3914
1612 37.9262
1654 192.1525
1680 126.4240
1704 23.5510
1767 22.5745
1795 225.9884
1847 146.8430
1879 264.7986
1921 181.5470
1944 133.2674
1966 162.2667
1975 102.2382
2067 155.5384
2118 240.5960
2167 146.5544
2220 171.7272
2243 5.5152
2272 198.0954
2294 209.2841
2609 143.6269
2728 105.5028
2931 212.3432
3031 122.7648
3044 152.4564
3058 29.7283
3085 35.0377
3166 34.5310
3188 259.0665
3496 142.3537
3614 113.1496
3656 213.9013
3697 136.6726
3722 144.0895
3847 98.0296
3888 98.4714
4051 208.0578
4174 63.0899
4734 357.3458
4804 339.3733
4952 154.8278
5093 72.2843
5103 225.2360
5144 205.0275
5332 242.2348
5363 187.3055
5457 63.9144
5683 126.9533
5900 178.3721
6049 141.2671
6089 208.1242
6125 310.1847
6181 85.2694
6190 64.5839
6214 287.6863
6331 67.3370
6344 194.8536
6432 131.0599
7006 21.9451
7253 245.1751
7344 12.6158
7385 70.0044
7394 222.4290
7408 238.4405
7540 116.5837
7948 76.6343
8021 161.0269
8226 59.2154
8265 224.2252
8391 252.7329
8443 218.3279
8487 118.2267
8515 61.2380
8527 267.1429
8693 269.4199
8705 131.0927
8731 184.6329
8771 190.7369
8793 230.3753
8887 211.4310
8910 107.3707
8921 224.8560
8973 134.8455
8998 309.4193
PLANTSmolcadARTstart hb
PLANTSmolcadARTstart HB
LINES
PLANTSmolcadARTstart HBCH
LINES
-34.0172 -48.6542 -17.9792 -33.227 -50.606 -17.911 255 0 0 5
PLANTSmolcadARTstart HB-CHO
LINES
PLANTSmolcadARTend
PLANTSmolcadARTstart HB_WATER
LINES
PLANTSmolcadARTend

PLANTSmolcadARTend

