@<TRIPOS>MOLECULE
aspirin_entry_00001_conf_91
20 20 1
SMALL
NO_CHARGES


@<TRIPOS>ATOM
      1 C           1.3626  -34.6937    0.2702 C.3       1 UNL1        0.0000
      2 C           1.0147  -34.8738    1.7025 C.2       1 UNL1        0.0000
      3 C           0.1525  -37.1426    1.4752 C.ar      1 UNL1        0.0000
      4 C          -0.4052  -37.1062    0.2148 C.ar      1 UNL1        0.0000
      5 C          -0.7757  -38.2364   -0.4867 C.ar      1 UNL1        0.0000
      6 C          -0.5766  -39.4607    0.1039 C.ar      1 UNL1        0.0000
      7 C          -0.0233  -39.5543    1.3623 C.ar      1 UNL1        0.0000
      8 C           0.3390  -38.3893    2.0401 C.ar      1 UNL1        0.0000
      9 C           0.9210  -38.5327    3.3691 C.2       1 UNL1        0.0000
     10 O           1.1399  -33.9451    2.5572 O.2       1 UNL1        0.0000
     11 O           0.5340  -36.0498    2.2055 O.3       1 UNL1        0.0000
     12 O           1.3869  -39.6349    3.7558 O.co2     1 UNL1       -0.5000
     13 O           0.9811  -37.4681    4.2526 O.co2     1 UNL1       -0.5000
     14 H           1.7150  -33.6959    0.1123 H         1 UNL1        0.0000
     15 H           0.4946  -34.8647   -0.3315 H         1 UNL1        0.0000
     16 H           2.1276  -35.3904   -0.0010 H         1 UNL1        0.0000
     17 H          -0.5533  -36.1860   -0.2278 H         1 UNL1        0.0000
     18 H          -1.1901  -38.1633   -1.4296 H         1 UNL1        0.0000
     19 H          -0.8450  -40.3205   -0.4000 H         1 UNL1        0.0000
     20 H           0.1234  -40.4778    1.7996 H         1 UNL1        0.0000
@<TRIPOS>BOND
     1    1    2 1
     2    1   14 1
     3    1   15 1
     4    1   16 1
     5    2   10 2
     6    2   11 1
     7    3    4 ar
     8    3    8 ar
     9    3   11 1
    10    4    5 ar
    11    4   17 1
    12    5    6 ar
    13    5   18 1
    14    6    7 ar
    15    6   19 1
    16    7    8 ar
    17    7   20 1
    18    8    9 1
    19    9   12 ar
    20    9   13 ar
@<TRIPOS>SUBSTRUCTURE
1 UNL1 1
@<TRIPOS>COMMENT
aspirin
PLANTSproteinTorsions
102
1 65.1885
42 30.4938
151 323.2357
173 154.3519
432 81.1768
491 150.5568
531 81.7646
563 127.0523
572 142.0715
629 233.9820
730 194.3521
826 19.5608
895 304.6963
921 160.3680
954 288.3159
1044 4.5945
1258 309.4568
1480 269.5432
1534 60.1048
1612 346.8017
1654 69.3936
1680 175.8529
1704 179.4746
1767 107.7578
1795 328.3092
1847 334.6474
1879 172.9522
1921 56.2378
1944 11.4341
1966 306.2797
1975 90.5651
2067 178.3238
2118 215.0981
2167 110.1261
2220 61.3338
2243 335.9948
2272 3.2024
2294 3.5313
2609 319.1409
2728 87.9971
2931 173.1590
3031 104.0004
3044 274.4597
3058 156.5733
3085 281.8541
3166 321.0576
3188 175.6759
3496 91.0259
3614 133.4419
3656 48.4309
3697 203.4291
3722 154.4852
3847 298.7151
3888 93.1695
4051 334.1623
4174 172.5032
4734 318.2567
4804 273.8799
4952 341.5449
5093 53.9503
5103 340.8131
5144 189.9769
5332 183.2369
5363 255.6117
5457 39.7431
5683 143.2376
5900 158.5818
6049 321.2847
6089 128.7263
6125 252.3634
6181 146.4343
6190 339.2582
6214 347.9440
6331 271.6883
6344 83.7928
6432 224.5458
7006 36.0355
7253 253.4895
7344 125.0830
7385 356.5586
7394 294.5733
7408 182.6502
7540 40.7415
7948 59.6048
8021 190.5987
8226 13.5887
8265 76.1396
8391 261.3818
8443 165.0299
8487 248.8142
8515 18.7875
8527 56.4521
8693 29.7819
8705 128.5445
8731 201.9731
8771 254.9018
8793 51.6463
8887 2.6863
8910 104.8834
8921 169.9612
8973 264.6996
8998 38.7579
PLANTSmolcadARTstart hb
PLANTSmolcadARTstart HB
LINES
PLANTSmolcadARTstart HBCH
LINES
PLANTSmolcadARTstart HB-CHO
LINES
PLANTSmolcadARTend
PLANTSmolcadARTstart HB_WATER
LINES
PLANTSmolcadARTend

PLANTSmolcadARTend

