@<TRIPOS>MOLECULE
aspirin_entry_00001_conf_71
20 20 1
SMALL
NO_CHARGES


@<TRIPOS>ATOM
      1 C         -17.7297  -54.9686  -10.4551 C.3       1 UNL1        0.0000
      2 C         -18.6396  -53.8057  -10.6120 C.2       1 UNL1        0.0000
      3 C         -20.0296  -54.8038  -12.3481 C.ar      1 UNL1        0.0000
      4 C         -20.4587  -56.0714  -12.0165 C.ar      1 UNL1        0.0000
      5 C         -20.7669  -57.0397  -12.9515 C.ar      1 UNL1        0.0000
      6 C         -20.6394  -56.7208  -14.2817 C.ar      1 UNL1        0.0000
      7 C         -20.2141  -55.4686  -14.6684 C.ar      1 UNL1        0.0000
      8 C         -19.9122  -54.5161  -13.6941 C.ar      1 UNL1        0.0000
      9 C         -19.4657  -53.2038  -14.1459 C.2       1 UNL1        0.0000
     10 O         -18.4795  -52.7227   -9.9716 O.2       1 UNL1        0.0000
     11 O         -19.7138  -53.8147  -11.4564 O.3       1 UNL1        0.0000
     12 O         -18.9010  -52.4050  -13.3557 O.co2     1 UNL1       -0.5000
     13 O         -19.6468  -52.7877  -15.4542 O.co2     1 UNL1       -0.5000
     14 H         -16.9658  -54.7296   -9.7450 H         1 UNL1        0.0000
     15 H         -17.2803  -55.1992  -11.3982 H         1 UNL1        0.0000
     16 H         -18.2875  -55.8134  -10.1097 H         1 UNL1        0.0000
     17 H         -20.5547  -56.3090  -11.0171 H         1 UNL1        0.0000
     18 H         -21.0854  -57.9772  -12.6588 H         1 UNL1        0.0000
     19 H         -20.8640  -57.4271  -14.9999 H         1 UNL1        0.0000
     20 H         -20.1208  -55.2363  -15.6699 H         1 UNL1        0.0000
@<TRIPOS>BOND
     1    1    2 1
     2    1   14 1
     3    1   15 1
     4    1   16 1
     5    2   10 2
     6    2   11 1
     7    3    4 ar
     8    3    8 ar
     9    3   11 1
    10    4    5 ar
    11    4   17 1
    12    5    6 ar
    13    5   18 1
    14    6    7 ar
    15    6   19 1
    16    7    8 ar
    17    7   20 1
    18    8    9 1
    19    9   12 ar
    20    9   13 ar
@<TRIPOS>SUBSTRUCTURE
1 UNL1 1
@<TRIPOS>COMMENT
aspirin
PLANTSproteinTorsions
102
1 135.9617
42 92.3690
151 187.4500
173 72.6675
432 202.3326
491 171.8907
531 101.7120
563 264.2478
572 156.3394
629 210.8844
730 77.7681
826 109.0228
895 186.1462
921 358.1291
954 182.3220
1044 214.8268
1258 102.8362
1480 337.5729
1534 72.2055
1612 292.5742
1654 60.6635
1680 127.8573
1704 30.3872
1767 6.7075
1795 187.4100
1847 18.2736
1879 127.2402
1921 330.3307
1944 85.5476
1966 243.1526
1975 6.0063
2067 102.9478
2118 69.2094
2167 150.5438
2220 34.5050
2243 62.2315
2272 84.8852
2294 39.0573
2609 121.3015
2728 0.6902
2931 255.2031
3031 306.7763
3044 162.2735
3058 256.1414
3085 27.8457
3166 28.6704
3188 264.1965
3496 33.0058
3614 297.9037
3656 249.8741
3697 182.1784
3722 148.0476
3847 313.9986
3888 56.3382
4051 211.1428
4174 338.1216
4734 287.4046
4804 292.3571
4952 170.2380
5093 15.0196
5103 22.7490
5144 180.9346
5332 345.5733
5363 195.4207
5457 104.7399
5683 122.7363
5900 187.6896
6049 171.7089
6089 97.2748
6125 134.9631
6181 91.3098
6190 80.1479
6214 129.6364
6331 70.0846
6344 152.1493
6432 182.5654
7006 27.1594
7253 264.3347
7344 94.5715
7385 217.6750
7394 119.0128
7408 171.9042
7540 131.5594
7948 160.9536
8021 166.0680
8226 121.2848
8265 219.0939
8391 328.7532
8443 37.2754
8487 164.7342
8515 7.8292
8527 243.0861
8693 284.1859
8705 63.1706
8731 257.2498
8771 297.7549
8793 207.6131
8887 209.4875
8910 101.0012
8921 203.9721
8973 233.7832
8998 257.4624
PLANTSmolcadARTstart hb
PLANTSmolcadARTstart HB
LINES
PLANTSmolcadARTstart HBCH
LINES
PLANTSmolcadARTstart HB-CHO
LINES
PLANTSmolcadARTend
PLANTSmolcadARTstart HB_WATER
LINES
PLANTSmolcadARTend

PLANTSmolcadARTend

