@<TRIPOS>MOLECULE
aspirin_entry_00001_conf_32
20 20 1
SMALL
NO_CHARGES


@<TRIPOS>ATOM
      1 C         -12.3767  -61.1570    0.9214 C.3       1 UNL1        0.0000
      2 C         -12.7025  -59.9881    0.0656 C.2       1 UNL1        0.0000
      3 C         -14.2801  -58.7952   -1.3593 C.ar      1 UNL1        0.0000
      4 C         -14.3750  -58.8648   -2.7331 C.ar      1 UNL1        0.0000
      5 C         -14.7444  -57.7962   -3.5258 C.ar      1 UNL1        0.0000
      6 C         -15.0328  -56.6018   -2.9112 C.ar      1 UNL1        0.0000
      7 C         -14.9534  -56.4771   -1.5414 C.ar      1 UNL1        0.0000
      8 C         -14.5768  -57.5799   -0.7734 C.ar      1 UNL1        0.0000
      9 C         -14.5051  -57.4052    0.6723 C.2       1 UNL1        0.0000
     10 O         -11.8710  -59.0587   -0.1657 O.2       1 UNL1        0.0000
     11 O         -13.9187  -59.8270   -0.5360 O.3       1 UNL1        0.0000
     12 O         -14.4471  -56.2576    1.1832 O.co2     1 UNL1       -0.5000
     13 O         -14.4962  -58.4895    1.5336 O.co2     1 UNL1       -0.5000
     14 H         -11.3724  -61.0671    1.2794 H         1 UNL1        0.0000
     15 H         -12.4718  -62.0555    0.3485 H         1 UNL1        0.0000
     16 H         -13.0508  -61.1900    1.7513 H         1 UNL1        0.0000
     17 H         -14.1588  -59.7627   -3.1930 H         1 UNL1        0.0000
     18 H         -14.8031  -57.8926   -4.5521 H         1 UNL1        0.0000
     19 H         -15.3116  -55.7882   -3.4817 H         1 UNL1        0.0000
     20 H         -15.1718  -55.5764   -1.0866 H         1 UNL1        0.0000
@<TRIPOS>BOND
     1    1    2 1
     2    1   14 1
     3    1   15 1
     4    1   16 1
     5    2   10 2
     6    2   11 1
     7    3    4 ar
     8    3    8 ar
     9    3   11 1
    10    4    5 ar
    11    4   17 1
    12    5    6 ar
    13    5   18 1
    14    6    7 ar
    15    6   19 1
    16    7    8 ar
    17    7   20 1
    18    8    9 1
    19    9   12 ar
    20    9   13 ar
@<TRIPOS>SUBSTRUCTURE
1 UNL1 1
@<TRIPOS>COMMENT
aspirin
PLANTSproteinTorsions
102
1 30.5933
42 18.0172
151 338.9065
173 294.5864
432 201.3076
491 8.4934
531 136.3879
563 262.9019
572 185.0270
629 330.8436
730 50.3583
826 236.6574
895 121.4287
921 258.6597
954 44.3696
1044 161.9393
1258 168.2186
1480 218.4218
1534 94.2752
1612 254.0045
1654 189.8129
1680 80.8136
1704 167.5456
1767 269.4547
1795 349.1217
1847 107.2059
1879 183.9305
1921 174.8106
1944 65.0528
1966 43.9402
1975 67.1000
2067 13.5943
2118 194.4774
2167 106.3091
2220 285.3920
2243 180.2599
2272 119.8911
2294 33.1212
2609 154.4070
2728 194.0431
2931 107.7434
3031 50.9445
3044 53.2620
3058 281.7971
3085 121.3778
3166 43.8312
3188 212.8846
3496 170.9564
3614 296.4442
3656 352.2270
3697 95.2841
3722 169.0833
3847 111.4746
3888 289.0500
4051 173.4735
4174 311.6852
4734 263.6757
4804 204.2253
4952 118.3423
5093 198.3962
5103 260.0094
5144 195.8322
5332 234.9674
5363 94.3988
5457 185.6471
5683 79.4252
5900 63.7924
6049 174.9812
6089 74.2049
6125 97.4133
6181 215.2440
6190 103.2853
6214 231.6405
6331 153.9766
6344 113.7455
6432 266.5166
7006 247.1235
7253 6.3127
7344 206.7993
7385 13.8338
7394 141.7780
7408 266.4113
7540 221.0508
7948 167.9385
8021 246.9439
8226 143.4036
8265 212.1391
8391 274.2715
8443 161.2726
8487 272.7325
8515 235.7072
8527 232.5897
8693 236.2187
8705 337.7139
8731 236.2345
8771 256.6397
8793 291.3053
8887 103.0423
8910 208.1273
8921 234.7536
8973 212.4523
8998 91.5729
PLANTSmolcadARTstart hb
PLANTSmolcadARTstart HB
LINES
-14.4962 -58.4895 1.53361 -16.346 -59.843 1.833 0 255 0 5
PLANTSmolcadARTstart HBCH
LINES
PLANTSmolcadARTstart HB-CHO
LINES
PLANTSmolcadARTend
PLANTSmolcadARTstart HB_WATER
LINES
PLANTSmolcadARTend

PLANTSmolcadARTend

