@<TRIPOS>MOLECULE
aspirin_entry_00001_conf_30
20 20 1
SMALL
NO_CHARGES


@<TRIPOS>ATOM
      1 C         -34.2464  -46.7110    6.3613 C.3       1 UNL1        0.0000
      2 C         -34.1128  -45.8720    5.1435 C.2       1 UNL1        0.0000
      3 C         -32.9263  -44.1433    3.9001 C.ar      1 UNL1        0.0000
      4 C         -33.1047  -44.4576    2.5696 C.ar      1 UNL1        0.0000
      5 C         -32.9511  -43.5452    1.5445 C.ar      1 UNL1        0.0000
      6 C         -32.6029  -42.2567    1.8698 C.ar      1 UNL1        0.0000
      7 C         -32.4118  -41.8889    3.1839 C.ar      1 UNL1        0.0000
      8 C         -32.5766  -42.8393    4.1925 C.ar      1 UNL1        0.0000
      9 C         -32.3650  -42.4087    5.5693 C.2       1 UNL1        0.0000
     10 O         -34.9626  -45.8951    4.2022 O.2       1 UNL1        0.0000
     11 O         -33.0679  -45.0138    4.9466 O.3       1 UNL1        0.0000
     12 O         -31.7656  -41.3333    5.8260 O.co2     1 UNL1       -0.5000
     13 O         -32.8111  -43.1633    6.6412 O.co2     1 UNL1       -0.5000
     14 H         -35.1385  -47.2980    6.2931 H         1 UNL1        0.0000
     15 H         -34.2994  -46.0808    7.2242 H         1 UNL1        0.0000
     16 H         -33.3982  -47.3576    6.4433 H         1 UNL1        0.0000
     17 H         -33.3669  -45.4255    2.3270 H         1 UNL1        0.0000
     18 H         -33.0950  -43.8237    0.5608 H         1 UNL1        0.0000
     19 H         -32.4823  -41.5560    1.1218 H         1 UNL1        0.0000
     20 H         -32.1504  -40.9187    3.4206 H         1 UNL1        0.0000
@<TRIPOS>BOND
     1    1    2 1
     2    1   14 1
     3    1   15 1
     4    1   16 1
     5    2   10 2
     6    2   11 1
     7    3    4 ar
     8    3    8 ar
     9    3   11 1
    10    4    5 ar
    11    4   17 1
    12    5    6 ar
    13    5   18 1
    14    6    7 ar
    15    6   19 1
    16    7    8 ar
    17    7   20 1
    18    8    9 1
    19    9   12 ar
    20    9   13 ar
@<TRIPOS>SUBSTRUCTURE
1 UNL1 1
@<TRIPOS>COMMENT
aspirin
PLANTSproteinTorsions
102
1 47.6415
42 61.4611
151 109.2535
173 90.9336
432 24.5271
491 78.1885
531 127.7033
563 165.4155
572 78.4105
629 195.0328
730 27.8481
826 235.5732
895 89.5872
921 222.7963
954 59.7654
1044 132.4335
1258 94.9729
1480 11.7728
1534 82.4197
1612 216.8785
1654 210.9469
1680 2.5253
1704 210.3983
1767 105.4136
1795 76.0030
1847 216.5138
1879 156.3689
1921 119.3625
1944 351.9129
1966 344.4547
1975 223.5395
2067 357.0757
2118 161.9751
2167 112.4336
2220 335.9990
2243 323.9615
2272 89.1905
2294 26.5863
2609 187.7549
2728 252.0004
2931 34.4554
3031 158.1658
3044 38.5600
3058 189.7949
3085 209.1418
3166 38.9602
3188 146.7064
3496 153.0547
3614 62.1132
3656 115.4842
3697 3.3612
3722 215.0753
3847 49.2178
3888 53.2293
4051 185.8460
4174 157.7669
4734 174.3716
4804 148.5830
4952 205.7404
5093 161.6056
5103 300.7682
5144 268.0034
5332 69.0370
5363 143.2204
5457 216.6683
5683 138.8670
5900 73.1943
6049 253.9501
6089 94.4465
6125 195.5980
6181 259.7730
6190 221.8982
6214 101.8752
6331 223.9729
6344 176.0577
6432 293.5404
7006 280.9638
7253 112.8996
7344 181.9276
7385 257.9882
7394 134.5996
7408 72.0841
7540 254.2673
7948 265.2824
8021 309.3845
8226 226.7089
8265 208.2975
8391 182.1714
8443 67.6809
8487 101.9578
8515 129.8976
8527 252.9401
8693 141.2550
8705 113.5224
8731 186.8382
8771 300.2565
8793 284.2556
8887 237.8333
8910 248.8857
8921 261.3976
8973 269.5857
8998 187.5195
PLANTSmolcadARTstart hb
PLANTSmolcadARTstart HB
LINES
PLANTSmolcadARTstart HBCH
LINES
PLANTSmolcadARTstart HB-CHO
LINES
PLANTSmolcadARTend
PLANTSmolcadARTstart HB_WATER
LINES
PLANTSmolcadARTend

PLANTSmolcadARTend

