@<TRIPOS>MOLECULE
aspirin_entry_00001_conf_55
20 20 1
SMALL
NO_CHARGES


@<TRIPOS>ATOM
      1 C         -10.3609  -34.8248   -5.1355 C.3       1 UNL1        0.0000
      2 C         -10.6618  -34.2171   -6.4565 C.2       1 UNL1        0.0000
      3 C         -11.5687  -34.4271   -8.7094 C.ar      1 UNL1        0.0000
      4 C         -11.1115  -33.2328   -9.2247 C.ar      1 UNL1        0.0000
      5 C         -11.3559  -32.8189  -10.5192 C.ar      1 UNL1        0.0000
      6 C         -12.0931  -33.6423  -11.3352 C.ar      1 UNL1        0.0000
      7 C         -12.5748  -34.8468  -10.8708 C.ar      1 UNL1        0.0000
      8 C         -12.3067  -35.2311   -9.5561 C.ar      1 UNL1        0.0000
      9 C         -12.8347  -36.5130   -9.1047 C.2       1 UNL1        0.0000
     10 O         -10.2977  -33.0422   -6.7661 O.2       1 UNL1        0.0000
     11 O         -11.3506  -34.8764   -7.4352 O.3       1 UNL1        0.0000
     12 O         -12.8644  -36.8061   -7.8822 O.co2     1 UNL1       -0.5000
     13 O         -13.3193  -37.4525   -9.9992 O.co2     1 UNL1       -0.5000
     14 H          -9.8145  -34.1252   -4.5380 H         1 UNL1        0.0000
     15 H          -9.7746  -35.7087   -5.2752 H         1 UNL1        0.0000
     16 H         -11.2761  -35.0778   -4.6429 H         1 UNL1        0.0000
     17 H         -10.5574  -32.6158   -8.6109 H         1 UNL1        0.0000
     18 H         -10.9937  -31.9158  -10.8645 H         1 UNL1        0.0000
     19 H         -12.2892  -33.3557  -12.3071 H         1 UNL1        0.0000
     20 H         -13.1279  -35.4604  -11.4899 H         1 UNL1        0.0000
@<TRIPOS>BOND
     1    1    2 1
     2    1   14 1
     3    1   15 1
     4    1   16 1
     5    2   10 2
     6    2   11 1
     7    3    4 ar
     8    3    8 ar
     9    3   11 1
    10    4    5 ar
    11    4   17 1
    12    5    6 ar
    13    5   18 1
    14    6    7 ar
    15    6   19 1
    16    7    8 ar
    17    7   20 1
    18    8    9 1
    19    9   12 ar
    20    9   13 ar
@<TRIPOS>SUBSTRUCTURE
1 UNL1 1
@<TRIPOS>COMMENT
aspirin
PLANTSproteinTorsions
102
1 218.9103
42 244.8570
151 345.5677
173 149.8418
432 109.7574
491 274.6115
531 230.2315
563 217.7331
572 45.0660
629 19.2209
730 151.8954
826 177.5744
895 131.2182
921 56.7548
954 116.0733
1044 266.0908
1258 251.2582
1480 111.8253
1534 150.8056
1612 130.8400
1654 81.5972
1680 137.9047
1704 309.6541
1767 37.8336
1795 256.3661
1847 198.4184
1879 156.4670
1921 243.2521
1944 294.9153
1966 133.1184
1975 292.5720
2067 130.6156
2118 85.3657
2167 188.4856
2220 84.0789
2243 10.9062
2272 357.0395
2294 64.7349
2609 5.3514
2728 203.7234
2931 106.5054
3031 15.0345
3044 197.8178
3058 224.1400
3085 207.7670
3166 259.0737
3188 13.7463
3496 222.8458
3614 30.5322
3656 38.4624
3697 316.2625
3722 183.2115
3847 139.5505
3888 27.7323
4051 65.9942
4174 91.7251
4734 137.3212
4804 338.5243
4952 144.3057
5093 106.8004
5103 218.4914
5144 188.2898
5332 209.0441
5363 136.4172
5457 86.3159
5683 127.2172
5900 101.0583
6049 143.2675
6089 262.8208
6125 5.5789
6181 68.9046
6190 63.3487
6214 161.0450
6331 78.4331
6344 65.9889
6432 66.5320
7006 333.6591
7253 11.2964
7344 62.4744
7385 115.0788
7394 202.7657
7408 93.9388
7540 198.0946
7948 262.8088
8021 185.4913
8226 6.2933
8265 78.6046
8391 229.3671
8443 40.0308
8487 150.4171
8515 250.9890
8527 221.4409
8693 54.1851
8705 196.7266
8731 202.0866
8771 249.9451
8793 174.4782
8887 50.0803
8910 163.5466
8921 151.2997
8973 32.0417
8998 242.8413
PLANTSmolcadARTstart hb
PLANTSmolcadARTstart HB
LINES
PLANTSmolcadARTstart HBCH
LINES
PLANTSmolcadARTstart HB-CHO
LINES
PLANTSmolcadARTend
PLANTSmolcadARTstart HB_WATER
LINES
PLANTSmolcadARTend

PLANTSmolcadARTend

