@<TRIPOS>MOLECULE
aspirin_entry_00001_conf_40
20 20 1
SMALL
NO_CHARGES


@<TRIPOS>ATOM
      1 C           2.0510  -37.2874    3.9935 C.3       1 UNL1        0.0000
      2 C           1.1954  -36.8253    2.8714 C.2       1 UNL1        0.0000
      3 C           0.1959  -37.2241    0.6841 C.ar      1 UNL1        0.0000
      4 C           0.1466  -35.9475    0.1656 C.ar      1 UNL1        0.0000
      5 C          -0.5914  -35.6072   -0.9507 C.ar      1 UNL1        0.0000
      6 C          -1.3133  -36.5942   -1.5767 C.ar      1 UNL1        0.0000
      7 C          -1.2999  -37.8870   -1.1001 C.ar      1 UNL1        0.0000
      8 C          -0.5414  -38.1926    0.0309 C.ar      1 UNL1        0.0000
      9 C          -0.5548  -39.5722    0.5022 C.2       1 UNL1        0.0000
     10 O           0.6690  -35.6716    2.8448 O.2       1 UNL1        0.0000
     11 O           0.9125  -37.6056    1.7860 O.3       1 UNL1        0.0000
     12 O          -0.1418  -39.8669    1.6529 O.co2     1 UNL1       -0.5000
     13 O          -1.0180  -40.6057   -0.2947 O.co2     1 UNL1       -0.5000
     14 H           2.1305  -36.5098    4.7241 H         1 UNL1        0.0000
     15 H           3.0250  -37.5292    3.6227 H         1 UNL1        0.0000
     16 H           1.6140  -38.1553    4.4409 H         1 UNL1        0.0000
     17 H           0.6900  -35.2075    0.6364 H         1 UNL1        0.0000
     18 H          -0.5995  -34.6376   -1.3057 H         1 UNL1        0.0000
     19 H          -1.8728  -36.3653   -2.4132 H         1 UNL1        0.0000
     20 H          -1.8448  -38.6234   -1.5759 H         1 UNL1        0.0000
@<TRIPOS>BOND
     1    1    2 1
     2    1   14 1
     3    1   15 1
     4    1   16 1
     5    2   10 2
     6    2   11 1
     7    3    4 ar
     8    3    8 ar
     9    3   11 1
    10    4    5 ar
    11    4   17 1
    12    5    6 ar
    13    5   18 1
    14    6    7 ar
    15    6   19 1
    16    7    8 ar
    17    7   20 1
    18    8    9 1
    19    9   12 ar
    20    9   13 ar
@<TRIPOS>SUBSTRUCTURE
1 UNL1 1
@<TRIPOS>COMMENT
aspirin
PLANTSproteinTorsions
102
1 232.8927
42 253.6754
151 306.4469
173 206.6450
432 110.9779
491 171.5185
531 168.4165
563 102.4426
572 84.8811
629 240.8566
730 145.8743
826 49.2021
895 253.4501
921 9.7435
954 206.8469
1044 84.1543
1258 48.0040
1480 31.9841
1534 79.5300
1612 67.3809
1654 165.4420
1680 74.3085
1704 216.3431
1767 123.9942
1795 343.4440
1847 49.9935
1879 194.4400
1921 191.5976
1944 241.0495
1966 109.9988
1975 339.3815
2067 128.1798
2118 89.0048
2167 111.1559
2220 8.4463
2243 108.2717
2272 345.6443
2294 177.4492
2609 2.8175
2728 179.5160
2931 21.3684
3031 26.0023
3044 149.3999
3058 164.9016
3085 71.6050
3166 198.8219
3188 137.8324
3496 117.3037
3614 160.5604
3656 310.7685
3697 185.1895
3722 142.5735
3847 132.7323
3888 26.9417
4051 350.4073
4174 143.7069
4734 129.1273
4804 295.0621
4952 17.7223
5093 82.9680
5103 218.0934
5144 192.3536
5332 268.6271
5363 64.2012
5457 60.1549
5683 144.5193
5900 226.9072
6049 44.5987
6089 79.9909
6125 79.4137
6181 238.8170
6190 215.0000
6214 197.6647
6331 146.8242
6344 140.6100
6432 109.8016
7006 120.6175
7253 22.4171
7344 217.3973
7385 308.0184
7394 233.5966
7408 175.5845
7540 92.6364
7948 261.6810
8021 174.6215
8226 262.1984
8265 135.8032
8391 55.3091
8443 71.5271
8487 247.3216
8515 305.1130
8527 233.7703
8693 137.5081
8705 43.4912
8731 156.8570
8771 90.3441
8793 171.0030
8887 126.6867
8910 64.9496
8921 72.4201
8973 155.4030
8998 255.7098
PLANTSmolcadARTstart hb
PLANTSmolcadARTstart HB
LINES
PLANTSmolcadARTstart HBCH
LINES
PLANTSmolcadARTstart HB-CHO
LINES
PLANTSmolcadARTend
PLANTSmolcadARTstart HB_WATER
LINES
PLANTSmolcadARTend

PLANTSmolcadARTend

