@<TRIPOS>MOLECULE
aspirin_entry_00001_conf_77
20 20 1
SMALL
NO_CHARGES


@<TRIPOS>ATOM
      1 C         -13.9130  -47.4623   -2.5740 C.3       1 UNL1        0.0000
      2 C         -13.7915  -46.4109   -1.5326 C.2       1 UNL1        0.0000
      3 C         -14.0816  -44.0928   -0.8365 C.ar      1 UNL1        0.0000
      4 C         -14.3221  -44.2326    0.5139 C.ar      1 UNL1        0.0000
      5 C         -14.2716  -43.1823    1.4089 C.ar      1 UNL1        0.0000
      6 C         -13.9648  -41.9331    0.9264 C.ar      1 UNL1        0.0000
      7 C         -13.7161  -41.7373   -0.4146 C.ar      1 UNL1        0.0000
      8 C         -13.7761  -42.8238   -1.2886 C.ar      1 UNL1        0.0000
      9 C         -13.5063  -42.5732   -2.6993 C.2       1 UNL1        0.0000
     10 O         -13.3722  -46.6560   -0.3610 O.2       1 UNL1        0.0000
     11 O         -14.1206  -45.1040   -1.7580 O.3       1 UNL1        0.0000
     12 O         -13.1363  -41.4385   -3.0957 O.co2     1 UNL1       -0.5000
     13 O         -13.6480  -43.5681   -3.6520 O.co2     1 UNL1       -0.5000
     14 H         -13.5989  -48.4018   -2.1696 H         1 UNL1        0.0000
     15 H         -13.2947  -47.2092   -3.4097 H         1 UNL1        0.0000
     16 H         -14.9318  -47.5325   -2.8924 H         1 UNL1        0.0000
     17 H         -14.5516  -45.1715    0.8748 H         1 UNL1        0.0000
     18 H         -14.4584  -43.3320    2.4132 H         1 UNL1        0.0000
     19 H         -13.9206  -41.1318    1.5752 H         1 UNL1        0.0000
     20 H         -13.4860  -40.7957   -0.7698 H         1 UNL1        0.0000
@<TRIPOS>BOND
     1    1    2 1
     2    1   14 1
     3    1   15 1
     4    1   16 1
     5    2   10 2
     6    2   11 1
     7    3    4 ar
     8    3    8 ar
     9    3   11 1
    10    4    5 ar
    11    4   17 1
    12    5    6 ar
    13    5   18 1
    14    6    7 ar
    15    6   19 1
    16    7    8 ar
    17    7   20 1
    18    8    9 1
    19    9   12 ar
    20    9   13 ar
@<TRIPOS>SUBSTRUCTURE
1 UNL1 1
@<TRIPOS>COMMENT
aspirin
PLANTSproteinTorsions
102
1 0.1289
42 7.6529
151 247.3234
173 150.4345
432 97.3690
491 54.7110
531 264.7194
563 117.4639
572 293.4044
629 206.1469
730 45.2216
826 55.1566
895 252.4993
921 267.8752
954 44.4021
1044 139.2936
1258 183.1359
1480 22.1042
1534 48.3144
1612 66.0904
1654 232.3644
1680 263.2781
1704 180.6291
1767 267.3683
1795 269.2281
1847 111.7353
1879 39.6518
1921 103.6327
1944 53.4218
1966 130.8428
1975 75.7164
2067 336.6213
2118 185.0642
2167 9.2291
2220 231.2440
2243 168.9945
2272 119.1981
2294 124.7923
2609 75.3669
2728 343.5576
2931 199.8324
3031 46.2616
3044 88.1045
3058 17.6323
3085 183.2600
3166 202.0124
3188 158.5028
3496 176.6729
3614 313.4595
3656 154.0667
3697 41.3607
3722 174.5179
3847 70.6642
3888 82.2576
4051 193.0408
4174 80.0410
4734 144.0598
4804 279.3578
4952 26.5581
5093 59.1348
5103 263.4890
5144 203.0732
5332 231.6110
5363 93.3142
5457 185.4324
5683 116.5287
5900 265.7051
6049 229.6393
6089 75.7549
6125 143.8165
6181 216.7314
6190 178.9654
6214 54.6360
6331 256.0064
6344 75.6899
6432 246.5385
7006 44.1774
7253 22.1701
7344 126.0883
7385 18.0229
7394 175.2955
7408 167.6842
7540 222.7587
7948 218.8101
8021 152.3475
8226 234.0747
8265 159.2825
8391 262.9843
8443 86.7243
8487 56.3683
8515 266.8730
8527 203.3870
8693 270.8923
8705 28.1330
8731 226.2079
8771 243.8836
8793 259.4253
8887 20.6987
8910 57.4288
8921 229.1282
8973 210.5562
8998 257.2202
PLANTSmolcadARTstart hb
PLANTSmolcadARTstart HB
LINES
PLANTSmolcadARTstart HBCH
LINES
-13.1363 -41.4385 -3.09568 -13.084 -39.387 -3.151 255 0 0 5
-13.1363 -41.4385 -3.09568 -12.228 -40.893 -4.598 255 0 0 5
PLANTSmolcadARTstart HB-CHO
LINES
PLANTSmolcadARTend
PLANTSmolcadARTstart HB_WATER
LINES
PLANTSmolcadARTend

PLANTSmolcadARTend

