@<TRIPOS>MOLECULE
aspirin_entry_00001_conf_75
20 20 1
SMALL
NO_CHARGES


@<TRIPOS>ATOM
      1 C           1.8871  -44.1289    0.6820 C.3       1 UNL1        0.0000
      2 C           0.9441  -44.0786    1.8279 C.2       1 UNL1        0.0000
      3 C          -0.0947  -41.9605    1.2139 C.ar      1 UNL1        0.0000
      4 C          -0.0804  -42.0218   -0.1634 C.ar      1 UNL1        0.0000
      5 C          -0.2959  -40.9267   -0.9764 C.ar      1 UNL1        0.0000
      6 C          -0.5378  -39.7132   -0.3795 C.ar      1 UNL1        0.0000
      7 C          -0.5628  -39.5958    0.9931 C.ar      1 UNL1        0.0000
      8 C          -0.3408  -40.7256    1.7818 C.ar      1 UNL1        0.0000
      9 C          -0.3757  -40.5577    3.2297 C.2       1 UNL1        0.0000
     10 O           0.8470  -45.0188    2.6737 O.2       1 UNL1        0.0000
     11 O           0.1133  -43.0183    2.0571 O.3       1 UNL1        0.0000
     12 O          -0.4127  -39.4123    3.7475 O.co2     1 UNL1       -0.5000
     13 O          -0.3676  -41.6462    4.0857 O.co2     1 UNL1       -0.5000
     14 H           2.4307  -45.0501    0.7086 H         1 UNL1        0.0000
     15 H           2.5715  -43.3091    0.7475 H         1 UNL1        0.0000
     16 H           1.3386  -44.0634   -0.2340 H         1 UNL1        0.0000
     17 H           0.1006  -42.9340   -0.6102 H         1 UNL1        0.0000
     18 H          -0.2767  -41.0177   -2.0047 H         1 UNL1        0.0000
     19 H          -0.7022  -38.8796   -0.9654 H         1 UNL1        0.0000
     20 H          -0.7453  -38.6806    1.4345 H         1 UNL1        0.0000
@<TRIPOS>BOND
     1    1    2 1
     2    1   14 1
     3    1   15 1
     4    1   16 1
     5    2   10 2
     6    2   11 1
     7    3    4 ar
     8    3    8 ar
     9    3   11 1
    10    4    5 ar
    11    4   17 1
    12    5    6 ar
    13    5   18 1
    14    6    7 ar
    15    6   19 1
    16    7    8 ar
    17    7   20 1
    18    8    9 1
    19    9   12 ar
    20    9   13 ar
@<TRIPOS>SUBSTRUCTURE
1 UNL1 1
@<TRIPOS>COMMENT
aspirin
PLANTSproteinTorsions
102
1 59.0594
42 27.4862
151 240.6046
173 0.3748
432 159.8063
491 131.8612
531 219.9783
563 126.3396
572 357.9274
629 17.4651
730 167.1377
826 94.0089
895 86.6590
921 43.5914
954 167.8942
1044 301.0246
1258 148.4914
1480 10.6018
1534 178.0365
1612 236.1090
1654 154.0422
1680 17.5236
1704 132.1598
1767 22.8505
1795 182.0995
1847 178.7710
1879 109.3723
1921 102.5915
1944 3.2129
1966 163.2888
1975 148.0980
2067 227.8090
2118 269.5275
2167 350.0085
2220 36.4979
2243 73.1606
2272 55.8510
2294 112.1930
2609 262.9672
2728 104.1479
2931 227.4989
3031 31.0273
3044 166.1022
3058 17.9245
3085 15.6570
3166 39.7232
3188 141.0696
3496 296.7344
3614 29.1724
3656 315.8815
3697 183.3700
3722 136.2328
3847 108.8857
3888 206.8350
4051 150.7802
4174 39.0033
4734 75.2943
4804 241.5101
4952 137.0431
5093 217.0067
5103 72.1618
5144 175.5557
5332 15.0318
5363 118.8974
5457 131.6674
5683 16.5150
5900 91.3037
6049 63.7603
6089 258.8206
6125 260.9298
6181 261.7890
6190 187.3131
6214 184.5044
6331 275.0672
6344 165.1842
6432 306.4080
7006 113.0811
7253 243.6365
7344 268.0003
7385 263.7844
7394 197.1709
7408 214.6356
7540 219.5694
7948 165.4568
8021 56.5303
8226 197.4670
8265 197.9514
8391 172.6111
8443 265.7495
8487 38.0585
8515 212.9792
8527 66.0806
8693 139.8819
8705 252.3722
8731 221.6486
8771 130.3153
8793 83.7272
8887 58.8210
8910 197.6523
8921 170.3177
8973 127.8088
8998 214.3688
PLANTSmolcadARTstart hb
PLANTSmolcadARTstart HB
LINES
PLANTSmolcadARTstart HBCH
LINES
PLANTSmolcadARTstart HB-CHO
LINES
PLANTSmolcadARTend
PLANTSmolcadARTstart HB_WATER
LINES
PLANTSmolcadARTend

PLANTSmolcadARTend

