@<TRIPOS>MOLECULE
aspirin_entry_00001_conf_18
20 20 1
SMALL
NO_CHARGES


@<TRIPOS>ATOM
      1 C         -15.4788  -57.4432   -3.0710 C.3       1 UNL1        0.0000
      2 C         -14.5934  -58.4290   -2.4007 C.2       1 UNL1        0.0000
      3 C         -13.6882  -59.3979   -0.3552 C.ar      1 UNL1        0.0000
      4 C         -13.3747  -60.6705   -0.7833 C.ar      1 UNL1        0.0000
      5 C         -12.5970  -61.5487   -0.0549 C.ar      1 UNL1        0.0000
      6 C         -12.1104  -61.1302    1.1598 C.ar      1 UNL1        0.0000
      7 C         -12.3937  -59.8685    1.6354 C.ar      1 UNL1        0.0000
      8 C         -13.1831  -59.0088    0.8702 C.ar      1 UNL1        0.0000
      9 C         -13.4589  -57.6829    1.4100 C.2       1 UNL1        0.0000
     10 O         -13.9047  -59.2768   -3.0454 O.2       1 UNL1        0.0000
     11 O         -14.4538  -58.4958   -1.0432 O.3       1 UNL1        0.0000
     12 O         -13.1980  -57.4051    2.6084 O.co2     1 UNL1       -0.5000
     13 O         -14.0174  -56.6846    0.6296 O.co2     1 UNL1       -0.5000
     14 H         -15.4251  -57.5795   -4.1309 H         1 UNL1        0.0000
     15 H         -15.1614  -56.4523   -2.8224 H         1 UNL1        0.0000
     16 H         -16.4864  -57.5880   -2.7423 H         1 UNL1        0.0000
     17 H         -13.7403  -60.9830   -1.6961 H         1 UNL1        0.0000
     18 H         -12.3863  -62.4936   -0.4138 H         1 UNL1        0.0000
     19 H         -11.5265  -61.7680    1.7231 H         1 UNL1        0.0000
     20 H         -12.0244  -59.5610    2.5491 H         1 UNL1        0.0000
@<TRIPOS>BOND
     1    1    2 1
     2    1   14 1
     3    1   15 1
     4    1   16 1
     5    2   10 2
     6    2   11 1
     7    3    4 ar
     8    3    8 ar
     9    3   11 1
    10    4    5 ar
    11    4   17 1
    12    5    6 ar
    13    5   18 1
    14    6    7 ar
    15    6   19 1
    16    7    8 ar
    17    7   20 1
    18    8    9 1
    19    9   12 ar
    20    9   13 ar
@<TRIPOS>SUBSTRUCTURE
1 UNL1 1
@<TRIPOS>COMMENT
aspirin
PLANTSproteinTorsions
102
1 246.8367
42 206.5306
151 340.3116
173 10.8965
432 239.0555
491 357.8452
531 136.9717
563 140.1237
572 17.1911
629 205.2987
730 338.6734
826 2.4164
895 88.4313
921 319.2330
954 55.9956
1044 161.5807
1258 183.4035
1480 15.9501
1534 166.6109
1612 37.4179
1654 233.0725
1680 60.5231
1704 142.8684
1767 269.3330
1795 341.5077
1847 107.0002
1879 184.3026
1921 176.8224
1944 53.9373
1966 132.5917
1975 229.7548
2067 5.1841
2118 71.2219
2167 146.0746
2220 166.8550
2243 202.0667
2272 161.2799
2294 47.3874
2609 260.2643
2728 313.9793
2931 163.5561
3031 148.0485
3044 82.0258
3058 273.9487
3085 165.0150
3166 310.7367
3188 154.7363
3496 157.1113
3614 22.2023
3656 127.4256
3697 357.8743
3722 215.4550
3847 76.7880
3888 34.8424
4051 198.6865
4174 80.5916
4734 271.7855
4804 208.0127
4952 28.6647
5093 207.2412
5103 243.7032
5144 209.7218
5332 286.8080
5363 94.3785
5457 186.2207
5683 140.4165
5900 309.1806
6049 260.2424
6089 73.4707
6125 100.7840
6181 274.0350
6190 47.1103
6214 281.1236
6331 234.6787
6344 74.5662
6432 277.6072
7006 248.7374
7253 11.3862
7344 68.1297
7385 88.0676
7394 60.2764
7408 52.3113
7540 268.9852
7948 100.3592
8021 91.9682
8226 179.2894
8265 173.8207
8391 265.2449
8443 143.6991
8487 56.0654
8515 23.9108
8527 196.6784
8693 219.8868
8705 211.2779
8731 55.7960
8771 305.5682
8793 246.0556
8887 104.3395
8910 202.8936
8921 267.2546
8973 203.1023
8998 296.5439
PLANTSmolcadARTstart hb
PLANTSmolcadARTstart HB
LINES
-13.9047 -59.2768 -3.04543 -11.654 -59.599 -3.055 0 255 0 5
PLANTSmolcadARTstart HBCH
LINES
PLANTSmolcadARTstart HB-CHO
LINES
PLANTSmolcadARTend
PLANTSmolcadARTstart HB_WATER
LINES
PLANTSmolcadARTend

PLANTSmolcadARTend

