@<TRIPOS>MOLECULE
aspirin_entry_00001_conf_25
20 20 1
SMALL
NO_CHARGES


@<TRIPOS>ATOM
      1 C         -15.9678  -47.6204    0.5577 C.3       1 UNL1        0.0000
      2 C         -14.6671  -47.2211    1.1523 C.2       1 UNL1        0.0000
      3 C         -13.7448  -46.2602   -0.8894 C.ar      1 UNL1        0.0000
      4 C         -14.3092  -47.0428   -1.8742 C.ar      1 UNL1        0.0000
      5 C         -14.3362  -46.6862   -3.2079 C.ar      1 UNL1        0.0000
      6 C         -13.7710  -45.4877   -3.5705 C.ar      1 UNL1        0.0000
      7 C         -13.1928  -44.6672   -2.6265 C.ar      1 UNL1        0.0000
      8 C         -13.1853  -45.0618   -1.2878 C.ar      1 UNL1        0.0000
      9 C         -12.5636  -44.1645   -0.3213 C.2       1 UNL1        0.0000
     10 O         -14.3692  -47.4558    2.3627 O.2       1 UNL1        0.0000
     11 O         -13.6959  -46.5737    0.4420 O.3       1 UNL1        0.0000
     12 O         -12.1448  -43.0304   -0.6675 O.co2     1 UNL1       -0.5000
     13 O         -12.4091  -44.5248    1.0068 O.co2     1 UNL1       -0.5000
     14 H         -16.5627  -48.1109    1.2997 H         1 UNL1        0.0000
     15 H         -15.7957  -48.2884   -0.2600 H         1 UNL1        0.0000
     16 H         -16.4808  -46.7503    0.2057 H         1 UNL1        0.0000
     17 H         -14.7340  -47.9423   -1.6003 H         1 UNL1        0.0000
     18 H         -14.7702  -47.3030   -3.9131 H         1 UNL1        0.0000
     19 H         -13.7786  -45.1984   -4.5611 H         1 UNL1        0.0000
     20 H         -12.7702  -43.7679   -2.9064 H         1 UNL1        0.0000
@<TRIPOS>BOND
     1    1    2 1
     2    1   14 1
     3    1   15 1
     4    1   16 1
     5    2   10 2
     6    2   11 1
     7    3    4 ar
     8    3    8 ar
     9    3   11 1
    10    4    5 ar
    11    4   17 1
    12    5    6 ar
    13    5   18 1
    14    6    7 ar
    15    6   19 1
    16    7    8 ar
    17    7   20 1
    18    8    9 1
    19    9   12 ar
    20    9   13 ar
@<TRIPOS>SUBSTRUCTURE
1 UNL1 1
@<TRIPOS>COMMENT
aspirin
PLANTSproteinTorsions
102
1 6.5376
42 1.4742
151 323.1383
173 138.3564
432 182.3010
491 7.9214
531 115.2327
563 142.2829
572 64.1172
629 198.2826
730 223.2463
826 7.1028
895 282.4705
921 239.5100
954 36.3482
1044 20.2064
1258 137.2825
1480 318.3887
1534 91.5099
1612 64.8065
1654 245.0102
1680 303.8730
1704 140.8230
1767 243.6167
1795 270.3351
1847 120.3219
1879 44.0388
1921 85.6269
1944 261.5775
1966 92.2666
1975 191.9881
2067 25.2576
2118 249.3251
2167 145.1391
2220 156.8889
2243 14.2507
2272 152.3525
2294 12.1568
2609 231.1524
2728 244.8990
2931 103.5051
3031 117.3441
3044 332.1550
3058 283.3235
3085 179.0197
3166 243.2627
3188 144.6195
3496 157.0859
3614 260.2018
3656 295.1338
3697 96.9560
3722 260.8047
3847 68.9402
3888 342.4849
4051 200.3546
4174 19.7674
4734 121.4420
4804 270.1841
4952 36.0219
5093 239.0613
5103 262.1774
5144 276.0594
5332 269.7305
5363 91.0661
5457 226.3533
5683 130.5939
5900 277.9205
6049 242.6405
6089 105.6041
6125 104.0295
6181 261.9119
6190 46.8833
6214 58.2814
6331 230.9574
6344 260.3249
6432 268.9803
7006 170.0723
7253 12.2666
7344 130.5817
7385 26.2614
7394 140.3930
7408 52.3499
7540 223.5981
7948 72.5602
8021 156.4216
8226 156.3194
8265 271.9078
8391 271.6939
8443 32.4835
8487 58.5033
8515 230.5740
8527 197.8709
8693 267.8686
8705 66.9886
8731 52.3854
8771 251.1089
8793 317.7289
8887 117.4229
8910 34.3375
8921 249.0053
8973 256.7560
8998 85.1678
PLANTSmolcadARTstart hb
PLANTSmolcadARTstart HB
LINES
-12.4091 -44.5248 1.00683 -10.4879 -44.1015 1.28605 0 255 0 5
PLANTSmolcadARTstart HBCH
LINES
PLANTSmolcadARTstart HB-CHO
LINES
-14.3692 -47.4558 2.36265 -11.918 -47.691 2.198 0 255 255 5
PLANTSmolcadARTend
PLANTSmolcadARTstart HB_WATER
LINES
PLANTSmolcadARTend

PLANTSmolcadARTend

