@<TRIPOS>MOLECULE
aspirin_entry_00001_conf_52
20 20 1
SMALL
NO_CHARGES


@<TRIPOS>ATOM
      1 C          -0.9011  -39.0801   -3.4041 C.3       1 UNL1        0.0000
      2 C          -0.2715  -38.7963   -2.0896 C.2       1 UNL1        0.0000
      3 C          -0.1695  -37.4659   -0.0496 C.ar      1 UNL1        0.0000
      4 C           0.2250  -38.4079    0.8766 C.ar      1 UNL1        0.0000
      5 C           0.6905  -38.0883    2.1367 C.ar      1 UNL1        0.0000
      6 C           0.7644  -36.7610    2.4835 C.ar      1 UNL1        0.0000
      7 C           0.3824  -35.7786    1.5961 C.ar      1 UNL1        0.0000
      8 C          -0.0827  -36.1409    0.3311 C.ar      1 UNL1        0.0000
      9 C          -0.4766  -35.0706   -0.5772 C.2       1 UNL1        0.0000
     10 O           0.6502  -39.5198   -1.6040 O.2       1 UNL1        0.0000
     11 O          -0.6361  -37.7371   -1.3073 O.3       1 UNL1        0.0000
     12 O          -0.2026  -33.8705   -0.3204 O.co2     1 UNL1       -0.5000
     13 O          -1.1652  -35.3322   -1.7498 O.co2     1 UNL1       -0.5000
     14 H          -0.4552  -39.9540   -3.8312 H         1 UNL1        0.0000
     15 H          -0.7508  -38.2472   -4.0585 H         1 UNL1        0.0000
     16 H          -1.9497  -39.2431   -3.2693 H         1 UNL1        0.0000
     17 H           0.1696  -39.4043    0.6144 H         1 UNL1        0.0000
     18 H           0.9761  -38.8266    2.7996 H         1 UNL1        0.0000
     19 H           1.1093  -36.4962    3.4195 H         1 UNL1        0.0000
     20 H           0.4409  -34.7833    1.8638 H         1 UNL1        0.0000
@<TRIPOS>BOND
     1    1    2 1
     2    1   14 1
     3    1   15 1
     4    1   16 1
     5    2   10 2
     6    2   11 1
     7    3    4 ar
     8    3    8 ar
     9    3   11 1
    10    4    5 ar
    11    4   17 1
    12    5    6 ar
    13    5   18 1
    14    6    7 ar
    15    6   19 1
    16    7    8 ar
    17    7   20 1
    18    8    9 1
    19    9   12 ar
    20    9   13 ar
@<TRIPOS>SUBSTRUCTURE
1 UNL1 1
@<TRIPOS>COMMENT
aspirin
PLANTSproteinTorsions
102
1 303.4940
42 237.5379
151 154.2796
173 21.1430
432 300.6602
491 182.8174
531 251.3190
563 177.1926
572 50.6360
629 273.7556
730 24.3607
826 58.9237
895 131.8439
921 73.9431
954 91.1969
1044 51.6755
1258 37.2842
1480 114.6165
1534 57.7264
1612 101.8448
1654 358.4793
1680 122.8081
1704 297.5204
1767 110.1492
1795 298.9616
1847 327.7294
1879 121.9315
1921 4.0826
1944 16.2462
1966 106.5309
1975 16.7859
2067 105.2168
2118 155.1139
2167 302.2009
2220 354.7440
2243 83.1460
2272 296.3341
2294 61.4361
2609 49.8380
2728 254.0513
2931 207.0665
3031 305.6184
3044 132.5691
3058 212.8233
3085 256.5897
3166 263.0202
3188 30.8628
3496 65.3294
3614 28.4700
3656 223.5029
3697 353.3292
3722 134.6851
3847 117.7728
3888 18.8015
4051 35.5642
4174 91.6870
4734 135.3797
4804 291.0947
4952 115.2553
5093 204.5009
5103 111.9641
5144 204.7645
5332 258.0092
5363 128.0004
5457 6.3242
5683 118.5826
5900 51.4397
6049 81.5055
6089 296.4323
6125 210.2736
6181 97.7618
6190 76.9008
6214 244.8139
6331 105.1187
6344 105.0137
6432 206.9112
7006 7.6278
7253 271.1595
7344 130.0171
7385 179.0032
7394 134.2856
7408 105.7862
7540 96.0624
7948 270.6470
8021 177.5208
8226 14.7356
8265 144.8943
8391 50.8692
8443 61.2216
8487 124.7079
8515 264.1541
8527 295.9365
8693 124.8068
8705 300.8545
8731 213.3210
8771 174.6267
8793 169.9458
8887 116.7615
8910 164.1496
8921 112.9840
8973 147.1217
8998 153.4523
PLANTSmolcadARTstart hb
PLANTSmolcadARTstart HB
LINES
PLANTSmolcadARTstart HBCH
LINES
PLANTSmolcadARTstart HB-CHO
LINES
PLANTSmolcadARTend
PLANTSmolcadARTstart HB_WATER
LINES
PLANTSmolcadARTend

PLANTSmolcadARTend

