@<TRIPOS>MOLECULE
aspirin_entry_00001_conf_96
20 20 1
SMALL
NO_CHARGES


@<TRIPOS>ATOM
      1 C           1.9811  -36.4222    4.8230 C.3       1 UNL1        0.0000
      2 C           1.5580  -36.9436    3.4987 C.2       1 UNL1        0.0000
      3 C           0.1869  -38.4626    2.1740 C.ar      1 UNL1        0.0000
      4 C          -0.0545  -37.7204    1.0374 C.ar      1 UNL1        0.0000
      5 C          -0.5386  -38.2620   -0.1369 C.ar      1 UNL1        0.0000
      6 C          -0.7916  -39.6119   -0.1728 C.ar      1 UNL1        0.0000
      7 C          -0.5685  -40.4002    0.9350 C.ar      1 UNL1        0.0000
      8 C          -0.0782  -39.8165    2.1041 C.ar      1 UNL1        0.0000
      9 C           0.1439  -40.6861    3.2531 C.2       1 UNL1        0.0000
     10 O           1.9988  -36.4718    2.4070 O.2       1 UNL1        0.0000
     11 O           0.6654  -37.9684    3.3572 O.3       1 UNL1        0.0000
     12 O          -0.2510  -41.8800    3.2468 O.co2     1 UNL1       -0.5000
     13 O           0.7924  -40.2334    4.3898 O.co2     1 UNL1       -0.5000
     14 H           2.6822  -35.6258    4.6846 H         1 UNL1        0.0000
     15 H           2.4407  -37.2080    5.3851 H         1 UNL1        0.0000
     16 H           1.1259  -36.0580    5.3524 H         1 UNL1        0.0000
     17 H           0.1367  -36.7070    1.0657 H         1 UNL1        0.0000
     18 H          -0.7048  -37.6689   -0.9655 H         1 UNL1        0.0000
     19 H          -1.1536  -40.0408   -1.0389 H         1 UNL1        0.0000
     20 H          -0.7609  -41.4139    0.9005 H         1 UNL1        0.0000
@<TRIPOS>BOND
     1    1    2 1
     2    1   14 1
     3    1   15 1
     4    1   16 1
     5    2   10 2
     6    2   11 1
     7    3    4 ar
     8    3    8 ar
     9    3   11 1
    10    4    5 ar
    11    4   17 1
    12    5    6 ar
    13    5   18 1
    14    6    7 ar
    15    6   19 1
    16    7    8 ar
    17    7   20 1
    18    8    9 1
    19    9   12 ar
    20    9   13 ar
@<TRIPOS>SUBSTRUCTURE
1 UNL1 1
@<TRIPOS>COMMENT
aspirin
PLANTSproteinTorsions
102
1 230.6278
42 37.9264
151 11.3088
173 17.5470
432 8.1725
491 326.7081
531 319.7853
563 155.9578
572 83.8786
629 221.2379
730 139.0891
826 38.8770
895 98.0094
921 22.8527
954 236.6050
1044 40.4758
1258 42.8085
1480 45.7791
1534 96.4939
1612 42.6557
1654 41.2542
1680 171.1773
1704 163.3961
1767 117.4934
1795 4.9197
1847 183.4910
1879 126.3611
1921 150.0516
1944 257.5223
1966 79.9593
1975 58.4149
2067 118.3778
2118 156.4741
2167 88.3075
2220 254.7942
2243 110.3744
2272 263.4597
2294 322.8979
2609 0.8987
2728 242.5901
2931 11.7827
3031 39.5913
3044 181.8701
3058 208.0310
3085 15.3590
3166 249.1903
3188 283.8626
3496 92.7333
3614 16.4713
3656 244.8926
3697 333.6844
3722 177.7643
3847 111.4512
3888 8.7819
4051 175.0858
4174 164.6902
4734 166.4577
4804 306.9373
4952 118.5926
5093 170.4887
5103 247.6658
5144 207.9297
5332 280.2273
5363 119.4832
5457 206.5697
5683 141.9342
5900 320.5025
6049 74.5692
6089 227.8328
6125 318.8027
6181 77.5618
6190 28.5939
6214 172.6328
6331 249.1364
6344 132.0714
6432 105.6854
7006 139.3611
7253 114.5387
7344 106.0255
7385 127.7591
7394 71.2175
7408 89.3369
7540 195.1313
7948 267.6092
8021 100.9794
8226 10.2234
8265 133.2065
8391 82.9730
8443 49.5689
8487 270.8634
8515 237.1477
8527 271.7100
8693 264.7476
8705 48.0233
8731 165.2641
8771 148.9893
8793 245.3989
8887 22.1861
8910 169.9425
8921 151.1507
8973 173.1921
8998 152.3060
PLANTSmolcadARTstart hb
PLANTSmolcadARTstart HB
LINES
PLANTSmolcadARTstart HBCH
LINES
PLANTSmolcadARTstart HB-CHO
LINES
PLANTSmolcadARTend
PLANTSmolcadARTstart HB_WATER
LINES
PLANTSmolcadARTend

PLANTSmolcadARTend

