@<TRIPOS>MOLECULE
aspirin_entry_00001_conf_57
20 20 1
SMALL
NO_CHARGES


@<TRIPOS>ATOM
      1 C         -34.6483  -48.4176    4.1841 C.3       1 UNL1        0.0000
      2 C         -35.3210  -47.1074    3.9949 C.2       1 UNL1        0.0000
      3 C         -34.0287  -45.9150    5.6833 C.ar      1 UNL1        0.0000
      4 C         -33.4762  -46.9756    6.3694 C.ar      1 UNL1        0.0000
      5 C         -32.4708  -46.8359    7.3055 C.ar      1 UNL1        0.0000
      6 C         -31.9969  -45.5727    7.5648 C.ar      1 UNL1        0.0000
      7 C         -32.5141  -44.4776    6.9078 C.ar      1 UNL1        0.0000
      8 C         -33.5296  -44.6588    5.9678 C.ar      1 UNL1        0.0000
      9 C         -34.0488  -43.4739    5.2954 C.2       1 UNL1        0.0000
     10 O         -36.2190  -46.9216    3.1187 O.2       1 UNL1        0.0000
     11 O         -35.0246  -46.0072    4.7489 O.3       1 UNL1        0.0000
     12 O         -35.1664  -43.4943    4.7192 O.co2     1 UNL1       -0.5000
     13 O         -33.3349  -42.2877    5.2634 O.co2     1 UNL1       -0.5000
     14 H         -35.0428  -49.1246    3.4846 H         1 UNL1        0.0000
     15 H         -34.8221  -48.7667    5.1804 H         1 UNL1        0.0000
     16 H         -33.5967  -48.3047    4.0240 H         1 UNL1        0.0000
     17 H         -33.8326  -47.9237    6.1729 H         1 UNL1        0.0000
     18 H         -32.0851  -47.6583    7.7963 H         1 UNL1        0.0000
     19 H         -31.2455  -45.4419    8.2601 H         1 UNL1        0.0000
     20 H         -32.1529  -43.5314    7.1079 H         1 UNL1        0.0000
@<TRIPOS>BOND
     1    1    2 1
     2    1   14 1
     3    1   15 1
     4    1   16 1
     5    2   10 2
     6    2   11 1
     7    3    4 ar
     8    3    8 ar
     9    3   11 1
    10    4    5 ar
    11    4   17 1
    12    5    6 ar
    13    5   18 1
    14    6    7 ar
    15    6   19 1
    16    7    8 ar
    17    7   20 1
    18    8    9 1
    19    9   12 ar
    20    9   13 ar
@<TRIPOS>SUBSTRUCTURE
1 UNL1 1
@<TRIPOS>COMMENT
aspirin
PLANTSproteinTorsions
102
1 206.4645
42 154.3499
151 180.1706
173 159.1501
432 52.4687
491 165.4767
531 57.1754
563 287.9980
572 14.8987
629 193.2095
730 112.6470
826 94.5507
895 30.8057
921 177.8945
954 151.2095
1044 225.2257
1258 17.4880
1480 31.9360
1534 27.5533
1612 207.1423
1654 66.5971
1680 229.6331
1704 30.8788
1767 88.1090
1795 213.4434
1847 241.6937
1879 253.7406
1921 204.5082
1944 165.2296
1966 278.5400
1975 88.7110
2067 349.9713
2118 107.8938
2167 164.0804
2220 232.6399
2243 171.5707
2272 239.7583
2294 336.7227
2609 155.3924
2728 101.8219
2931 158.7941
3031 146.8523
3044 35.5275
3058 7.2568
3085 331.3470
3166 0.3636
3188 241.4793
3496 117.0153
3614 322.2718
3656 208.7541
3697 202.8177
3722 185.9435
3847 108.1550
3888 98.1576
4051 235.8891
4174 266.9355
4734 233.3103
4804 288.6100
4952 161.8227
5093 243.7296
5103 191.6542
5144 145.0796
5332 114.0211
5363 188.7527
5457 254.0837
5683 73.1450
5900 208.4391
6049 195.3037
6089 223.3031
6125 182.1285
6181 103.4246
6190 102.1185
6214 73.5729
6331 92.6144
6344 166.4624
6432 264.7300
7006 122.8045
7253 270.1658
7344 130.8414
7385 35.6565
7394 94.9067
7408 248.6288
7540 80.3606
7948 263.6068
8021 223.6520
8226 148.9946
8265 269.8053
8391 254.7745
8443 190.6163
8487 115.2321
8515 22.0706
8527 138.0650
8693 216.5777
8705 129.3699
8731 234.0780
8771 197.8345
8793 149.1345
8887 222.6378
8910 358.0849
8921 230.9263
8973 259.2182
8998 285.4986
PLANTSmolcadARTstart hb
PLANTSmolcadARTstart HB
LINES
-36.219 -46.9216 3.11868 -35.1423 -47.2052 1.42531 0 255 0 5
PLANTSmolcadARTstart HBCH
LINES
PLANTSmolcadARTstart HB-CHO
LINES
PLANTSmolcadARTend
PLANTSmolcadARTstart HB_WATER
LINES
PLANTSmolcadARTend

PLANTSmolcadARTend

