@<TRIPOS>MOLECULE
aspirin_entry_00001_conf_95_protein
256 154 102
SMALL
NO_CHARGES


@<TRIPOS>ATOM
      1 H           1.1667  -84.2708    1.2168 H        28 GLY28       0.0000
      2 N           1.9710  -83.9720    1.7370 N.4      28 GLY28       1.0000
      3 H2          2.3048  -83.1093    1.3479 H        28 GLY28       0.0000
      4 H3          2.6903  -84.6663    1.6443 H        28 GLY28       0.0000
      5 HG1        -4.7750  -77.5151    6.4397 H        31 THR31       0.0000
      6 OG1        -5.5490  -77.8520    5.8930 O.3      31 THR31       0.0000
      7 HH         -4.9159  -67.0979    9.8352 H        38 TYR38       0.0000
      8 OH         -4.6290  -67.0170    8.8830 O.3      38 TYR38       0.0000
      9 HH        -15.8845  -62.6644    7.9163 H        39 TYR39       0.0000
     10 OH        -15.2560  -63.1550    7.3150 O.3      39 TYR39       0.0000
     11 HH         -1.5002  -59.7039    1.9355 H        55 TYR55       0.0000
     12 OH         -2.4450  -59.4310    1.7660 O.3      55 TYR55       0.0000
     13 HG1        -8.3362  -53.8208  -11.2465 H        60 THR60       0.0000
     14 OG1        -8.4490  -52.9250  -11.6880 O.3      60 THR60       0.0000
     15 HG1        -8.8678  -49.4011   -4.2920 H        62 THR62       0.0000
     16 OG1        -9.2280  -49.6990   -5.1820 O.3      62 THR62       0.0000
     17 HH         -9.0119  -43.9073    2.2268 H        64 TYR64       0.0000
     18 OH         -9.5040  -43.9480    1.3590 O.3      64 TYR64       0.0000
     19 HG         -1.4311  -47.6090   -3.9372 H        65 SER65       0.0000
     20 OG         -1.6780  -47.2380   -4.8310 O.3      65 SER65       0.0000
     21 HG1        -1.9251  -50.4690    2.6401 H        70 THR70       0.0000
     22 OG1        -2.7710  -50.8080    2.2150 O.3      70 THR70       0.0000
     23 HG1        -6.7317  -41.5511   -2.7281 H        76 THR76       0.0000
     24 OG1        -7.4980  -42.0730   -2.3400 O.3      76 THR76       0.0000
     25 HG         -7.0631  -36.0607    2.9162 H        81 SER81       0.0000
     26 OG         -7.2260  -35.3370    3.5860 O.3      81 SER81       0.0000
     27 HG        -19.1933  -38.9915   12.9508 H        85 SER85       0.0000
     28 OG        -18.4230  -39.3210   12.4060 O.3      85 SER85       0.0000
     29 HG        -21.0833  -41.7624   14.6694 H        87 SER87       0.0000
     30 OG        -21.7540  -41.4260   14.0100 O.3      87 SER87       0.0000
     31 HG1       -21.5790  -37.2873    7.6110 H        89 THR89       0.0000
     32 OG1       -21.9430  -36.3830    7.3650 O.3      89 THR89       0.0000
     33 HG1       -29.5400  -33.6163   14.4218 H        94 THR94       0.0000
     34 OG1       -29.7610  -34.2720   13.6920 O.3      94 THR94       0.0000
     35 HG1       -31.0100  -22.0786   -1.6382 H       106 THR106      0.0000
     36 OG1       -31.9840  -22.2340   -1.4400 O.3     106 THR106      0.0000
     37 HG1       -25.7541  -38.4356   -8.6939 H       118 THR118      0.0000
     38 OG1       -25.4270  -37.7120   -8.0780 O.3     118 THR118      0.0000
     39 HG        -28.4684  -43.2270   -6.6469 H       121 SER121      0.0000
     40 OG        -28.0170  -43.6970   -5.8890 O.3     121 SER121      0.0000
     41 HG        -21.4299  -49.4643  -11.9277 H       126 SER126      0.0000
     42 OG        -21.9940  -50.0310  -12.5270 O.3     126 SER126      0.0000
     43 HG1       -20.8737  -57.3424   -6.0442 H       129 THR129      0.0000
     44 OG1       -21.5190  -57.3710   -6.8150 O.3     129 THR129      0.0000
     45 HH        -16.1027  -59.0544   -5.3872 H       130 TYR130      0.0000
     46 OH        -16.7630  -58.6500   -6.0170 O.3     130 TYR130      0.0000
     47 HG        -27.7832  -67.2495   -5.1011 H       132 SER132      0.0000
     48 OG        -28.2430  -67.4690   -4.2420 O.3     132 SER132      0.0000
     49 HH        -18.8134  -70.1051   -8.9006 H       136 TYR136      0.0000
     50 OH        -18.4010  -69.8190   -9.7630 O.3     136 TYR136      0.0000
     51 HG        -22.1182  -64.4419  -12.3507 H       138 SER138      0.0000
     52 OG        -21.7000  -65.3460  -12.2760 O.3     138 SER138      0.0000
     53 HG        -24.9263  -61.6454  -10.5872 H       141 SER141      0.0000
     54 OG        -24.2850  -62.2830  -10.1630 O.3     141 SER141      0.0000
     55 HG        -28.4976  -65.7149  -17.2475 H       143 SER143      0.0000
     56 OG        -27.8490  -64.9650  -17.1220 O.3     143 SER143      0.0000
     57 HG        -36.4567  -67.4652   -9.7911 H       146 SER146      0.0000
     58 OG        -35.5350  -67.3800   -9.4140 O.3     146 SER146      0.0000
     59 HH        -27.8709  -70.7429   -7.9527 H       147 TYR147      0.0000
     60 OH        -28.4260  -70.4670   -8.7350 O.3     147 TYR147      0.0000
     61 HH        -37.0439  -61.6333   -2.4453 H       148 TYR148      0.0000
     62 OH        -36.4560  -61.7190   -1.6440 O.3     148 TYR148      0.0000
     63 HG1       -25.8708  -59.1863   -7.6339 H       149 THR149      0.0000
     64 OG1       -26.1570  -58.8760   -6.7210 O.3     149 THR149      0.0000
     65 HG        -19.8212  -66.2312   -0.7097 H       154 SER154      0.0000
     66 OG        -20.0840  -66.8360    0.0410 O.3     154 SER154      0.0000
     67 HZ1       -22.0709  -73.4573    1.1737 H       157 LYS157      0.0000
     68 NZ        -21.3030  -73.3640    1.8070 N.4     157 LYS157      1.0000
     69 HZ2       -21.6380  -73.0511    2.6953 H       157 LYS157      0.0000
     70 HZ3       -20.6476  -72.7023    1.4446 H       157 LYS157      0.0000
     71 HG1       -14.9062  -67.1647   11.8061 H       161 THR161      0.0000
     72 OG1       -13.9700  -67.3810   12.1020 O.3     161 THR161      0.0000
     73 HG1        -9.8554  -63.4845   11.4563 H       165 THR165      0.0000
     74 OG1        -9.5520  -63.8260   10.5610 O.3     165 THR165      0.0000
     75 HZ1        -6.9393  -62.2926   14.9471 H       166 LYS166      0.0000
     76 NZ         -7.2730  -62.7880   14.1460 N.4     166 LYS166      1.0000
     77 HZ2        -7.4717  -63.7352   14.3965 H       166 LYS166      0.0000
     78 HZ3        -6.5781  -62.7698   13.4280 H       166 LYS166      0.0000
     79 HZ1       -19.0246  -67.8404   23.4484 H       168 LYS168      0.0000
     80 NZ        -18.1320  -68.0390   23.8530 N.4     168 LYS168      1.0000
     81 HZ2       -18.1170  -68.9819   24.1846 H       168 LYS168      0.0000
     82 HZ3       -17.9634  -67.4136   24.6140 H       168 LYS168      0.0000
     83 HZ1       -15.5543  -76.9099   20.5756 H       169 LYS169      0.0000
     84 NZ        -15.7760  -75.9460   20.4320 N.4     169 LYS169      1.0000
     85 HZ2       -16.2540  -75.5888   21.2343 H       169 LYS169      0.0000
     86 HZ3       -16.3597  -75.8533   19.6259 H       169 LYS169      0.0000
     87 HZ1       -42.8919  -49.7494   31.9113 H       186 LYS186      0.0000
     88 NZ        -42.5640  -49.1260   31.2020 N.4     186 LYS186      1.0000
     89 HZ2       -41.6910  -48.7277   31.4828 H       186 LYS186      0.0000
     90 HZ3       -43.2341  -48.3983   31.0595 H       186 LYS186      0.0000
     91 HG1       -40.7990  -43.4317   12.6748 H       194 THR194      0.0000
     92 OG1       -41.7230  -43.2040   12.3500 O.3     194 THR194      0.0000
     93 HG1       -42.7482  -55.2023    2.5017 H       206 THR206      0.0000
     94 OG1       -41.9280  -54.7860    2.9080 O.3     206 THR206      0.0000
     95 HZ1       -44.9541  -59.6653   -6.3923 H       211 LYS211      0.0000
     96 NZ        -45.0200  -60.4690   -5.8010 N.4     211 LYS211      1.0000
     97 HZ2       -44.9048  -61.2976   -6.3482 H       211 LYS211      0.0000
     98 HZ3       -45.9142  -60.4845   -5.3555 H       211 LYS211      0.0000
     99 HG1       -36.0754  -64.6760    0.5861 H       212 THR212      0.0000
    100 OG1       -37.0600  -64.5640    0.7570 O.3     212 THR212      0.0000
    101 HG        -39.2013  -71.2671   -4.0090 H       213 SER213      0.0000
    102 OG        -39.6210  -70.4680   -4.4390 O.3     213 SER213      0.0000
    103 HZ1       -40.8006  -71.8981   -8.1611 H       215 LYS215      0.0000
    104 NZ        -40.7140  -72.0550   -7.1780 N.4     215 LYS215      1.0000
    105 HZ2       -40.6093  -71.1800   -6.7073 H       215 LYS215      0.0000
    106 HZ3       -39.9167  -72.6302   -6.9993 H       215 LYS215      0.0000
    107 HG1       -37.7358  -61.7834   -6.2510 H       221 THR221      0.0000
    108 OG1       -37.7410  -62.2150   -5.3430 O.3     221 THR221      0.0000
    109 HZ1       -42.7167  -70.2770   -7.6376 H       222 LYS222      0.0000
    110 NZ        -42.2670  -69.5280   -8.1230 N.4     222 LYS222      1.0000
    111 HZ2       -42.6782  -69.4192   -9.0278 H       222 LYS222      0.0000
    112 HZ3       -41.2928  -69.7277   -8.2196 H       222 LYS222      0.0000
    113 HH        -51.1544  -61.4573  -22.1873 H       242 TYR242      0.0000
    114 OH        -51.5270  -60.6600  -21.7160 O.3     242 TYR242      0.0000
    115 HZ1       -68.8240  -52.2626  -20.4780 H       248 LYS248      0.0000
    116 NZ        -68.1830  -51.5330  -20.2430 N.4     248 LYS248      1.0000
    117 HZ2       -68.6189  -50.6449  -20.3840 H       248 LYS248      0.0000
    118 HZ3       -67.3700  -51.6030  -20.8201 H       248 LYS248      0.0000
    119 HZ1       -64.4201  -46.5516  -12.9736 H       251 LYS251      0.0000
    120 NZ        -64.3690  -47.5440  -13.0810 N.4     251 LYS251      1.0000
    121 HZ2       -65.1564  -47.8650  -13.6066 H       251 LYS251      0.0000
    122 HZ3       -64.3682  -47.9787  -12.1814 H       251 LYS251      0.0000
    123 HZ1       -62.6696  -61.7225  -14.4481 H       253 LYS253      0.0000
    124 NZ        -61.7340  -61.4150  -14.2790 N.4     253 LYS253      1.0000
    125 HZ2       -61.5646  -60.5655  -14.7783 H       253 LYS253      0.0000
    126 HZ3       -61.0905  -62.1166  -14.5826 H       253 LYS253      0.0000
    127 HH        -68.8303  -51.4666  -11.2093 H       254 TYR254      0.0000
    128 OH        -67.9490  -51.2120  -11.6040 O.3     254 TYR254      0.0000
    129 HH        -64.5487  -51.1029    3.9441 H       262 TYR262      0.0000
    130 OH        -65.3490  -51.3490    3.4010 O.3     262 TYR262      0.0000
    131 HG        -66.1485  -63.5532   -2.5270 H       265 SER265      0.0000
    132 OG        -65.2160  -63.5150   -2.8830 O.3     265 SER265      0.0000
    133 HH        -59.1975  -61.3435    2.5264 H       275 TYR275      0.0000
    134 OH        -58.7510  -61.6620    1.6930 O.3     275 TYR275      0.0000
    135 HG        -67.0126  -63.4674    3.9115 H       283 SER283      0.0000
    136 OG        -66.4350  -64.2560    4.1190 O.3     283 SER283      0.0000
    137 HZ1       -63.3886  -47.5343  -23.3862 H       317 LYS317      0.0000
    138 NZ        -62.9320  -46.6960  -23.6840 N.4     317 LYS317      1.0000
    139 HZ2       -63.1596  -46.5121  -24.6399 H       317 LYS317      0.0000
    140 HZ3       -61.9430  -46.8013  -23.5892 H       317 LYS317      0.0000
    141 HG1       -58.1743  -41.5773  -30.3999 H       322 THR322      0.0000
    142 OG1       -58.6530  -41.8510  -29.5590 O.3     322 THR322      0.0000
    143 HG1       -50.1442  -46.6212  -20.9413 H       331 THR331      0.0000
    144 OG1       -50.7660  -45.8310  -20.9280 O.3     331 THR331      0.0000
    145 HE2       -51.0935  -43.1602   -9.0230 H       339 GLU339      0.0000
    146 OE2       -51.4690  -42.4210   -8.5640 O.co2   339 GLU339      0.5000
    147 HG1       -46.5360  -47.8601   -6.1227 H       340 THR340      0.0000
    148 OG1       -46.5450  -46.8770   -5.9140 O.3     340 THR340      0.0000
    149 HZ1       -43.6980  -35.4051   -6.4717 H       342 LYS342      0.0000
    150 NZ        -44.2730  -34.8380   -5.8830 N.4     342 LYS342      1.0000
    151 HZ2       -44.8307  -34.2277   -6.4449 H       342 LYS342      0.0000
    152 HZ3       -43.6966  -34.2967   -5.2722 H       342 LYS342      0.0000
    153 HG        -34.3146  -37.3577    7.2964 H       353 SER353      0.0000
    154 OG        -34.8470  -38.0790    6.8560 O.3     353 SER353      0.0000
    155 HH        -28.7487  -38.7456    7.6539 H       355 TYR355      0.0000
    156 OH        -29.4390  -38.9590    6.9650 O.3     355 TYR355      0.0000
    157 HZ1       -37.4835  -29.1550   -8.0666 H       360 LYS360      0.0000
    158 NZ        -37.0810  -30.0700   -8.0870 N.4     360 LYS360      1.0000
    159 HZ2       -36.1437  -30.0311   -7.7426 H       360 LYS360      0.0000
    160 HZ3       -37.0796  -30.4147   -9.0253 H       360 LYS360      0.0000
    161 HH        -31.4630  -40.4315  -13.7734 H       373 TYR373      0.0000
    162 OH        -31.5330  -40.6670  -14.7410 O.3     373 TYR373      0.0000
    163 HH        -37.8062  -49.0864    2.6802 H       385 TYR385      0.0000
    164 OH        -38.5070  -49.7260    2.9980 O.3     385 TYR385      0.0000
    165 HG        -53.1683  -53.8153   23.3221 H       394 SER394      0.0000
    166 OG        -52.8560  -53.6470   22.3880 O.3     394 SER394      0.0000
    167 HZ1       -57.7199  -44.6433   21.3878 H       396 LYS396      0.0000
    168 NZ        -56.8890  -45.1950   21.4480 N.4     396 LYS396      1.0000
    169 HZ2       -56.6726  -45.3728   22.4079 H       396 LYS396      0.0000
    170 HZ3       -56.1306  -44.7060   21.0191 H       396 LYS396      0.0000
    171 HG        -64.8923  -50.0348   20.0088 H       399 SER399      0.0000
    172 OG        -64.8050  -49.1850   19.4900 O.3     399 SER399      0.0000
    173 HH        -64.0398  -55.6816   16.2987 H       402 TYR402      0.0000
    174 OH        -63.4400  -54.9110   16.0920 O.3     402 TYR402      0.0000
    175 HG        -56.9052  -60.3796   19.9804 H       403 SER403      0.0000
    176 OG        -56.3060  -60.7630   20.6820 O.3     403 SER403      0.0000
    177 HH        -47.5948  -56.4552   16.4689 H       404 TYR404      0.0000
    178 OH        -47.2120  -57.3120   16.8100 O.3     404 TYR404      0.0000
    179 HG1       -60.5923  -64.4409    6.2437 H       411 THR411      0.0000
    180 OG1       -61.0480  -63.9800    7.0130 O.3     411 THR411      0.0000
    181 HG        -65.8380  -60.1462   10.5227 H       412 SER412      0.0000
    182 OG        -65.0720  -59.6800   10.0830 O.3     412 SER412      0.0000
    183 HH        -63.3625  -53.1139   15.8316 H       417 TYR417      0.0000
    184 OH        -63.8670  -52.2620   15.7010 O.3     417 TYR417      0.0000
    185 HG        -26.1550  -63.3891    9.5127 H       455 SER455      0.0000
    186 OG        -26.5990  -63.2690    8.6260 O.3     455 SER455      0.0000
    187 HZ1       -10.9569  -54.5571    6.5598 H       468 LYS468      0.0000
    188 NZ        -11.4800  -54.5700    7.4110 N.4     468 LYS468      1.0000
    189 HZ2       -10.9609  -54.1108    8.1312 H       468 LYS468      0.0000
    190 HZ3       -11.6605  -55.5155    7.6787 H       468 LYS468      0.0000
    191 HZ1       -11.9393  -43.6691   14.5334 H       473 LYS473      0.0000
    192 NZ        -11.2340  -43.8560   13.8500 N.4     473 LYS473      1.0000
    193 HZ2       -10.4152  -44.2099   14.3012 H       473 LYS473      0.0000
    194 HZ3       -11.0096  -43.0143   13.3594 H       473 LYS473      0.0000
    195 HH        -22.6075  -48.0702   16.3961 H       475 TYR475      0.0000
    196 OH        -22.0570  -48.1150   15.5640 O.3     475 TYR475      0.0000
    197 HG1       -12.7040  -49.8427   20.6869 H       476 THR476      0.0000
    198 OG1       -13.0660  -49.5060   19.8110 O.3     476 THR476      0.0000
    199 HG        -15.1257  -49.8979   23.0921 H       477 SER477      0.0000
    200 OG        -15.6220  -50.5540   22.5250 O.3     477 SER477      0.0000
    201 HZ1       -20.6302  -46.1501   31.7160 H       485 LYS485      0.0000
    202 NZ        -20.1320  -46.7880   32.3030 N.4     485 LYS485      1.0000
    203 HZ2       -20.7230  -47.0842   33.0526 H       485 LYS485      0.0000
    204 HZ3       -19.3209  -46.3377   32.6744 H       485 LYS485      0.0000
    205 HZ1       -26.4332  -42.4007   22.7103 H       511 LYS511      0.0000
    206 NZ        -26.7900  -43.3340   22.7180 N.4     511 LYS511      1.0000
    207 HZ2       -26.9670  -43.6335   21.7812 H       511 LYS511      0.0000
    208 HZ3       -27.6384  -43.3643   23.2457 H       511 LYS511      0.0000
    209 HG        -31.2445  -42.7890   15.3516 H       516 SER516      0.0000
    210 OG        -31.9800  -42.6720   16.0180 O.3     516 SER516      0.0000
    211 HG        -35.1059  -47.1577    1.4806 H       530 SER530      0.0000
    212 OG        -34.2320  -47.4470    1.0930 O.3     530 SER530      0.0000
    213 HZ1       -28.3816  -47.7969  -10.6694 H       532 LYS532      0.0000
    214 NZ        -27.6550  -48.3070  -10.2110 N.4     532 LYS532      1.0000
    215 HZ2       -26.9338  -47.6783   -9.9235 H       532 LYS532      0.0000
    216 HZ3       -27.2768  -48.9873  -10.8375 H       532 LYS532      0.0000
    217 HG        -35.5688  -44.5672  -19.3833 H       541 SER541      0.0000
    218 OG        -35.8170  -43.9740  -18.6180 O.3     541 SER541      0.0000
    219 HH        -39.8304  -49.6431  -20.5253 H       544 TYR544      0.0000
    220 OH        -39.2750  -49.0250  -21.0780 O.3     544 TYR544      0.0000
    221 HZ1       -38.3672  -38.1820  -26.1519 H       546 LYS546      0.0000
    222 NZ        -38.9760  -38.9140  -25.8470 N.4     546 LYS546      1.0000
    223 HZ2       -38.6152  -39.7966  -26.1474 H       546 LYS546      0.0000
    224 HZ3       -39.8867  -38.7756  -26.2348 H       546 LYS546      0.0000
    225 HG        -44.2591  -39.6635  -25.2649 H       548 SER548      0.0000
    226 OG        -44.5870  -39.4220  -24.3530 O.3     548 SER548      0.0000
    227 HG1       -43.3531  -41.7638  -21.8811 H       549 THR549      0.0000
    228 OG1       -43.1030  -42.0380  -20.9460 O.3     549 THR549      0.0000
    229 HZ1       -45.0503  -33.9531  -14.6690 H       560 LYS560      0.0000
    230 NZ        -44.3980  -33.9200  -13.9130 N.4     560 LYS560      1.0000
    231 HZ2       -43.5023  -33.6403  -14.2564 H       560 LYS560      0.0000
    232 HZ3       -44.3284  -34.8233  -13.4899 H       560 LYS560      0.0000
    233 HG1       -49.6451  -34.3418   -7.9995 H       561 THR561      0.0000
    234 OG1       -50.0060  -33.4230   -7.8080 O.3     561 THR561      0.0000
    235 HG1       -51.5700  -35.3983    0.0891 H       563 THR563      0.0000
    236 OG1       -51.2400  -36.2740   -0.2790 O.3     563 THR563      0.0000
    237 HZ1       -54.9532  -35.1237    6.5168 H       565 LYS565      0.0000
    238 NZ        -55.2080  -35.3570    5.5790 N.4     565 LYS565      1.0000
    239 HZ2       -56.1699  -35.1315    5.4268 H       565 LYS565      0.0000
    240 HZ3       -55.0657  -36.3352    5.4273 H       565 LYS565      0.0000
    241 HZ1       -52.8911  -34.2103   -6.7530 H       566 LYS566      0.0000
    242 NZ        -52.4230  -34.8340   -6.1280 N.4     566 LYS566      1.0000
    243 HZ2       -51.6477  -34.3649   -5.7054 H       566 LYS566      0.0000
    244 HZ3       -52.0962  -35.6320   -6.6336 H       566 LYS566      0.0000
    245 HG1       -61.6081  -40.6517    1.2277 H       572 THR572      0.0000
    246 OG1       -61.3190  -41.3360    1.9050 O.3     572 THR572      0.0000
    247 HZ1       -70.9983  -41.6246    0.6545 H       573 LYS573      0.0000
    248 NZ        -71.0950  -42.6030    0.8330 N.4     573 LYS573      1.0000
    249 HZ2       -70.8820  -43.1174    0.0031 H       573 LYS573      0.0000
    250 HZ3       -72.0323  -42.8002    1.1189 H       573 LYS573      0.0000
    251 HG1       -65.3210  -41.1189    6.3887 H       574 THR574      0.0000
    252 OG1       -64.6450  -40.3960    6.2120 O.3     574 THR574      0.0000
    253 HH        -50.8995  -36.3095   13.4009 H       577 TYR577      0.0000
    254 OH        -50.9160  -36.9720   12.6540 O.3     577 TYR577      0.0000
    255 HG        -49.1862  -37.3922   10.4042 H       579 SER579      0.0000
    256 OG        -49.7460  -38.1280   10.0250 O.3     579 SER579      0.0000
@<TRIPOS>BOND
     1    2    4 1
     2    2    1 1
     3    2    3 1
     4    6    5 1
     5    8    7 1
     6   10    9 1
     7   12   11 1
     8   14   13 1
     9   16   15 1
    10   18   17 1
    11   20   19 1
    12   22   21 1
    13   24   23 1
    14   26   25 1
    15   28   27 1
    16   30   29 1
    17   32   31 1
    18   34   33 1
    19   36   35 1
    20   38   37 1
    21   40   39 1
    22   42   41 1
    23   44   43 1
    24   46   45 1
    25   48   47 1
    26   50   49 1
    27   52   51 1
    28   54   53 1
    29   56   55 1
    30   58   57 1
    31   60   59 1
    32   62   61 1
    33   64   63 1
    34   66   65 1
    35   68   69 1
    36   68   70 1
    37   68   67 1
    38   72   71 1
    39   74   73 1
    40   76   75 1
    41   76   77 1
    42   76   78 1
    43   80   79 1
    44   80   81 1
    45   80   82 1
    46   84   83 1
    47   84   85 1
    48   84   86 1
    49   88   89 1
    50   88   87 1
    51   88   90 1
    52   92   91 1
    53   94   93 1
    54   96   95 1
    55   96   97 1
    56   96   98 1
    57  100   99 1
    58  102  101 1
    59  104  105 1
    60  104  106 1
    61  104  103 1
    62  108  107 1
    63  110  109 1
    64  110  111 1
    65  110  112 1
    66  114  113 1
    67  116  115 1
    68  116  117 1
    69  116  118 1
    70  120  122 1
    71  120  119 1
    72  120  121 1
    73  124  125 1
    74  124  126 1
    75  124  123 1
    76  128  127 1
    77  130  129 1
    78  132  131 1
    79  134  133 1
    80  136  135 1
    81  138  137 1
    82  138  139 1
    83  138  140 1
    84  142  141 1
    85  144  143 1
    86  146  145 1
    87  148  147 1
    88  150  149 1
    89  150  151 1
    90  150  152 1
    91  154  153 1
    92  156  155 1
    93  158  157 1
    94  158  160 1
    95  158  159 1
    96  162  161 1
    97  164  163 1
    98  166  165 1
    99  168  167 1
   100  168  169 1
   101  168  170 1
   102  172  171 1
   103  174  173 1
   104  176  175 1
   105  178  177 1
   106  180  179 1
   107  182  181 1
   108  184  183 1
   109  186  185 1
   110  188  187 1
   111  188  189 1
   112  188  190 1
   113  192  191 1
   114  192  193 1
   115  192  194 1
   116  196  195 1
   117  198  197 1
   118  200  199 1
   119  202  201 1
   120  202  203 1
   121  202  204 1
   122  206  205 1
   123  206  207 1
   124  206  208 1
   125  210  209 1
   126  212  211 1
   127  214  213 1
   128  214  215 1
   129  214  216 1
   130  218  217 1
   131  220  219 1
   132  222  221 1
   133  222  223 1
   134  222  224 1
   135  226  225 1
   136  228  227 1
   137  230  231 1
   138  230  229 1
   139  230  232 1
   140  234  233 1
   141  236  235 1
   142  238  237 1
   143  238  239 1
   144  238  240 1
   145  242  241 1
   146  242  243 1
   147  242  244 1
   148  246  245 1
   149  248  250 1
   150  248  247 1
   151  248  249 1
   152  252  251 1
   153  254  253 1
   154  256  255 1
@<TRIPOS>SUBSTRUCTURE
28 GLY28 1
31 THR31 5
38 TYR38 7
39 TYR39 9
55 TYR55 11
60 THR60 13
62 THR62 15
64 TYR64 17
65 SER65 19
70 THR70 21
76 THR76 23
81 SER81 25
85 SER85 27
87 SER87 29
89 THR89 31
94 THR94 33
106 THR106 35
118 THR118 37
121 SER121 39
126 SER126 41
129 THR129 43
130 TYR130 45
132 SER132 47
136 TYR136 49
138 SER138 51
141 SER141 53
143 SER143 55
146 SER146 57
147 TYR147 59
148 TYR148 61
149 THR149 63
154 SER154 65
157 LYS157 67
161 THR161 71
165 THR165 73
166 LYS166 75
168 LYS168 79
169 LYS169 83
186 LYS186 87
194 THR194 91
206 THR206 93
211 LYS211 95
212 THR212 99
213 SER213 101
215 LYS215 103
221 THR221 107
222 LYS222 109
242 TYR242 113
248 LYS248 115
251 LYS251 119
253 LYS253 123
254 TYR254 127
262 TYR262 129
265 SER265 131
275 TYR275 133
283 SER283 135
317 LYS317 137
322 THR322 141
331 THR331 143
339 GLU339 145
340 THR340 147
342 LYS342 149
353 SER353 153
355 TYR355 155
360 LYS360 157
373 TYR373 161
385 TYR385 163
394 SER394 165
396 LYS396 167
399 SER399 171
402 TYR402 173
403 SER403 175
404 TYR404 177
411 THR411 179
412 SER412 181
417 TYR417 183
455 SER455 185
468 LYS468 187
473 LYS473 191
475 TYR475 195
476 THR476 197
477 SER477 199
485 LYS485 201
511 LYS511 205
516 SER516 209
530 SER530 211
532 LYS532 213
541 SER541 217
544 TYR544 219
546 LYS546 221
548 SER548 225
549 THR549 227
560 LYS560 229
561 THR561 233
563 THR563 235
565 LYS565 237
566 LYS566 241
572 THR572 245
573 LYS573 247
574 THR574 251
577 TYR577 253
579 SER579 255
@<TRIPOS>COMMENT
