@<TRIPOS>MOLECULE
aspirin_entry_00001_conf_01
20 20 1
SMALL
NO_CHARGES


@<TRIPOS>ATOM
      1 C         -12.7313  -61.0523    1.1437 C.3       1 UNL1        0.0000
      2 C         -13.5714  -59.9591    0.5924 C.2       1 UNL1        0.0000
      3 C         -14.1683  -58.5004   -1.2672 C.ar      1 UNL1        0.0000
      4 C         -14.4980  -57.3356   -0.6072 C.ar      1 UNL1        0.0000
      5 C         -15.1630  -56.2837   -1.2055 C.ar      1 UNL1        0.0000
      6 C         -15.5130  -56.4058   -2.5283 C.ar      1 UNL1        0.0000
      7 C         -15.2083  -57.5486   -3.2351 C.ar      1 UNL1        0.0000
      8 C         -14.5348  -58.5906   -2.5960 C.ar      1 UNL1        0.0000
      9 C         -14.2316  -59.7819   -3.3799 C.2       1 UNL1        0.0000
     10 O         -14.4032  -59.3143    1.3003 O.2       1 UNL1        0.0000
     11 O         -13.5109  -59.5661   -0.7149 O.3       1 UNL1        0.0000
     12 O         -14.8046  -59.9967   -4.4786 O.co2     1 UNL1       -0.5000
     13 O         -13.3080  -60.7186   -2.9470 O.co2     1 UNL1       -0.5000
     14 H         -12.9506  -61.1800    2.1832 H         1 UNL1        0.0000
     15 H         -11.6980  -60.8018    1.0255 H         1 UNL1        0.0000
     16 H         -12.9403  -61.9611    0.6197 H         1 UNL1        0.0000
     17 H         -14.2338  -57.2451    0.3860 H         1 UNL1        0.0000
     18 H         -15.3901  -55.4285   -0.6734 H         1 UNL1        0.0000
     19 H         -16.0105  -55.6334   -2.9984 H         1 UNL1        0.0000
     20 H         -15.4744  -57.6331   -4.2290 H         1 UNL1        0.0000
@<TRIPOS>BOND
     1    1    2 1
     2    1   14 1
     3    1   15 1
     4    1   16 1
     5    2   10 2
     6    2   11 1
     7    3    4 ar
     8    3    8 ar
     9    3   11 1
    10    4    5 ar
    11    4   17 1
    12    5    6 ar
    13    5   18 1
    14    6    7 ar
    15    6   19 1
    16    7    8 ar
    17    7   20 1
    18    8    9 1
    19    9   12 ar
    20    9   13 ar
@<TRIPOS>SUBSTRUCTURE
1 UNL1 1
@<TRIPOS>COMMENT
aspirin
PLANTSproteinTorsions
102
1 243.9490
42 22.6906
151 323.9850
173 167.4517
432 198.2888
491 318.4383
531 129.0126
563 255.8591
572 123.0867
629 185.8338
730 3.7750
826 32.8522
895 255.8581
921 221.8481
954 66.7462
1044 44.8770
1258 123.8417
1480 44.8777
1534 73.8402
1612 180.0209
1654 185.1914
1680 338.9291
1704 110.0409
1767 156.1523
1795 175.0379
1847 186.2401
1879 177.2601
1921 82.3307
1944 57.1406
1966 113.0413
1975 79.2616
2067 12.1931
2118 49.2500
2167 72.3603
2220 293.0146
2243 175.4348
2272 121.5618
2294 347.0605
2609 135.4848
2728 305.9954
2931 53.0373
3031 170.7972
3044 305.0418
3058 245.3406
3085 190.5539
3166 38.8673
3188 212.1496
3496 149.5550
3614 20.1768
3656 294.1845
3697 47.5547
3722 230.8577
3847 138.9561
3888 88.0421
4051 216.0987
4174 41.4129
4734 257.4388
4804 228.0005
4952 203.5892
5093 80.7383
5103 243.2940
5144 154.0319
5332 127.7911
5363 87.6424
5457 266.8071
5683 126.9173
5900 269.0836
6049 243.7760
6089 71.0263
6125 116.6870
6181 275.7564
6190 292.8912
6214 84.0430
6331 234.1836
6344 62.3938
6432 173.3259
7006 296.1911
7253 191.3685
7344 218.6041
7385 46.4206
7394 252.4549
7408 65.9431
7540 233.3936
7948 158.7860
8021 225.1063
8226 150.4737
8265 177.8452
8391 128.4678
8443 73.5256
8487 270.1333
8515 240.0417
8527 225.4370
8693 266.6580
8705 29.8251
8731 93.0377
8771 285.5714
8793 280.1719
8887 15.9009
8910 258.3691
8921 293.2001
8973 208.9196
8998 158.9069
PLANTSmolcadARTstart hb
PLANTSmolcadARTstart HB
LINES
-14.4032 -59.3143 1.3003 -16.346 -59.843 1.833 0 255 0 5
-14.8046 -59.9967 -4.47855 -16.0517 -59.1356 -5.51252 0 255 0 5
-13.308 -60.7186 -2.94703 -11.654 -59.599 -3.055 0 255 0 5
PLANTSmolcadARTstart HBCH
LINES
PLANTSmolcadARTstart HB-CHO
LINES
PLANTSmolcadARTend
PLANTSmolcadARTstart HB_WATER
LINES
PLANTSmolcadARTend

PLANTSmolcadARTend

