@<TRIPOS>MOLECULE
aspirin_entry_00001_conf_61
20 20 1
SMALL
NO_CHARGES


@<TRIPOS>ATOM
      1 C         -14.0395  -60.6048   -3.8391 C.3       1 UNL1        0.0000
      2 C         -14.2561  -59.4768   -2.8981 C.2       1 UNL1        0.0000
      3 C         -14.0711  -58.5476   -0.6520 C.ar      1 UNL1        0.0000
      4 C         -15.2282  -57.8044   -0.5542 C.ar      1 UNL1        0.0000
      5 C         -15.4429  -56.8553    0.4256 C.ar      1 UNL1        0.0000
      6 C         -14.4502  -56.6426    1.3511 C.ar      1 UNL1        0.0000
      7 C         -13.2735  -57.3575    1.2992 C.ar      1 UNL1        0.0000
      8 C         -13.0933  -58.3089    0.2940 C.ar      1 UNL1        0.0000
      9 C         -11.8340  -59.0432    0.2751 C.2       1 UNL1        0.0000
     10 O         -14.8663  -58.4164   -3.2327 O.2       1 UNL1        0.0000
     11 O         -13.8163  -59.4968   -1.6046 O.3       1 UNL1        0.0000
     12 O         -10.8588  -58.6736    0.9778 O.co2     1 UNL1       -0.5000
     13 O         -11.6630  -60.1682   -0.5141 O.co2     1 UNL1       -0.5000
     14 H         -14.4697  -60.3637   -4.7887 H         1 UNL1        0.0000
     15 H         -14.5041  -61.4868   -3.4509 H         1 UNL1        0.0000
     16 H         -12.9900  -60.7758   -3.9549 H         1 UNL1        0.0000
     17 H         -15.9731  -57.9659   -1.2496 H         1 UNL1        0.0000
     18 H         -16.3256  -56.3210    0.4621 H         1 UNL1        0.0000
     19 H         -14.5865  -55.9388    2.0936 H         1 UNL1        0.0000
     20 H         -12.5321  -57.1922    1.9983 H         1 UNL1        0.0000
@<TRIPOS>BOND
     1    1    2 1
     2    1   14 1
     3    1   15 1
     4    1   16 1
     5    2   10 2
     6    2   11 1
     7    3    4 ar
     8    3    8 ar
     9    3   11 1
    10    4    5 ar
    11    4   17 1
    12    5    6 ar
    13    5   18 1
    14    6    7 ar
    15    6   19 1
    16    7    8 ar
    17    7   20 1
    18    8    9 1
    19    9   12 ar
    20    9   13 ar
@<TRIPOS>SUBSTRUCTURE
1 UNL1 1
@<TRIPOS>COMMENT
aspirin
PLANTSproteinTorsions
102
1 247.8471
42 204.8055
151 100.1901
173 183.0764
432 203.4193
491 357.8809
531 137.7097
563 79.0064
572 226.5452
629 177.6150
730 35.3191
826 88.7512
895 101.7026
921 226.2005
954 57.3702
1044 120.3361
1258 123.4965
1480 213.3468
1534 73.8679
1612 178.5906
1654 218.2630
1680 310.6088
1704 48.3228
1767 156.4632
1795 76.4509
1847 103.6516
1879 213.6254
1921 255.0193
1944 219.7139
1966 38.5725
1975 64.4004
2067 7.5447
2118 50.9361
2167 130.3234
2220 284.1017
2243 175.8458
2272 61.7455
2294 28.3473
2609 260.2181
2728 30.5496
2931 59.4318
3031 117.9528
3044 106.2623
3058 300.0536
3085 188.9834
3166 328.9187
3188 278.2289
3496 159.1045
3614 352.2928
3656 296.5914
3697 95.7090
3722 175.6222
3847 113.0156
3888 87.0778
4051 175.1011
4174 81.5452
4734 256.6776
4804 218.8568
4952 27.3376
5093 248.5987
5103 231.3639
5144 158.5016
5332 63.4804
5363 103.4498
5457 247.9978
5683 188.3924
5900 254.7131
6049 158.0774
6089 282.4727
6125 189.5582
6181 226.2469
6190 178.3391
6214 274.2785
6331 232.3833
6344 105.6642
6432 273.3453
7006 253.1801
7253 182.8070
7344 220.3983
7385 191.1504
7394 236.3965
7408 61.4591
7540 213.7027
7948 184.9445
8021 275.3551
8226 166.9155
8265 180.6241
8391 266.6600
8443 147.6738
8487 266.4157
8515 244.6610
8527 243.2549
8693 260.6241
8705 21.6616
8731 84.7421
8771 289.2024
8793 19.1236
8887 108.6462
8910 211.8051
8921 334.5558
8973 184.0772
8998 130.0053
PLANTSmolcadARTstart hb
PLANTSmolcadARTstart HB
LINES
-14.8663 -58.4164 -3.23273 -16.2316 -58.8518 -5.19654 0 255 0 5
-10.8588 -58.6736 0.977843 -8.674 -58.176 1.288 0 255 0 5
PLANTSmolcadARTstart HBCH
LINES
PLANTSmolcadARTstart HB-CHO
LINES
PLANTSmolcadARTend
PLANTSmolcadARTstart HB_WATER
LINES
PLANTSmolcadARTend

PLANTSmolcadARTend

