@<TRIPOS>MOLECULE
aspirin_entry_00001_conf_58
20 20 1
SMALL
NO_CHARGES


@<TRIPOS>ATOM
      1 C         -12.8524  -48.8339    5.1639 C.3       1 UNL1        0.0000
      2 C         -13.3781  -47.5402    5.6686 C.2       1 UNL1        0.0000
      3 C         -13.0987  -45.5784    7.0884 C.ar      1 UNL1        0.0000
      4 C         -14.3654  -45.0349    7.1233 C.ar      1 UNL1        0.0000
      5 C         -14.6277  -43.7412    7.5284 C.ar      1 UNL1        0.0000
      6 C         -13.5696  -42.9561    7.9176 C.ar      1 UNL1        0.0000
      7 C         -12.2831  -43.4492    7.9015 C.ar      1 UNL1        0.0000
      8 C         -12.0576  -44.7623    7.4859 C.ar      1 UNL1        0.0000
      9 C         -10.6817  -45.2446    7.4839 C.2       1 UNL1        0.0000
     10 O         -14.4087  -46.9851    5.1803 O.2       1 UNL1        0.0000
     11 O         -12.7933  -46.8531    6.6947 O.3       1 UNL1        0.0000
     12 O          -9.7582  -44.5682    8.0044 O.co2     1 UNL1       -0.5000
     13 O         -10.3400  -46.4579    6.9105 O.co2     1 UNL1       -0.5000
     14 H         -13.4711  -49.1814    4.3630 H         1 UNL1        0.0000
     15 H         -12.8565  -49.5535    5.9556 H         1 UNL1        0.0000
     16 H         -11.8520  -48.6984    4.8101 H         1 UNL1        0.0000
     17 H         -15.1591  -45.6260    6.8314 H         1 UNL1        0.0000
     18 H         -15.5928  -43.3743    7.5395 H         1 UNL1        0.0000
     19 H         -13.7396  -41.9857    8.2250 H         1 UNL1        0.0000
     20 H         -11.4930  -42.8534    8.1955 H         1 UNL1        0.0000
@<TRIPOS>BOND
     1    1    2 1
     2    1   14 1
     3    1   15 1
     4    1   16 1
     5    2   10 2
     6    2   11 1
     7    3    4 ar
     8    3    8 ar
     9    3   11 1
    10    4    5 ar
    11    4   17 1
    12    5    6 ar
    13    5   18 1
    14    6    7 ar
    15    6   19 1
    16    7    8 ar
    17    7   20 1
    18    8    9 1
    19    9   12 ar
    20    9   13 ar
@<TRIPOS>SUBSTRUCTURE
1 UNL1 1
@<TRIPOS>COMMENT
aspirin
PLANTSproteinTorsions
102
1 357.5789
42 356.3303
151 308.3336
173 135.7268
432 111.9070
491 2.1833
531 124.4730
563 300.5999
572 344.3832
629 250.0117
730 262.1981
826 105.3354
895 292.0128
921 130.3525
954 253.4398
1044 17.4701
1258 143.6257
1480 323.8846
1534 90.8403
1612 60.0171
1654 349.5039
1680 74.2820
1704 162.6704
1767 290.6548
1795 265.8739
1847 210.9828
1879 318.6519
1921 82.7671
1944 264.6841
1966 85.6940
1975 54.7865
2067 21.8054
2118 249.8266
2167 166.7910
2220 136.1184
2243 21.2844
2272 286.8419
2294 69.4693
2609 222.7128
2728 245.7940
2931 119.8923
3031 159.8357
3044 179.9481
3058 323.8103
3085 131.7000
3166 296.3043
3188 169.0443
3496 198.1245
3614 258.2017
3656 297.1598
3697 121.3285
3722 203.4344
3847 70.4946
3888 343.1915
4051 200.7988
4174 30.8833
4734 37.4308
4804 140.8327
4952 119.1508
5093 321.0059
5103 293.9384
5144 68.6326
5332 275.1664
5363 315.2908
5457 269.1508
5683 9.6730
5900 115.6392
6049 241.6991
6089 108.7611
6125 95.8202
6181 233.6064
6190 55.5783
6214 267.3267
6331 68.5801
6344 262.2932
6432 264.5869
7006 170.6036
7253 175.7598
7344 68.8276
7385 25.9850
7394 297.1183
7408 21.0003
7540 23.0565
7948 188.1559
8021 241.2363
8226 144.3226
8265 168.4299
8391 262.4716
8443 7.6161
8487 171.7190
8515 26.5103
8527 30.9561
8693 260.8090
8705 111.1752
8731 57.2836
8771 224.4644
8793 309.3844
8887 264.6415
8910 58.6817
8921 242.6810
8973 219.6021
8998 255.6538
PLANTSmolcadARTstart hb
PLANTSmolcadARTstart HB
LINES
PLANTSmolcadARTstart HBCH
LINES
PLANTSmolcadARTstart HB-CHO
LINES
PLANTSmolcadARTend
PLANTSmolcadARTstart HB_WATER
LINES
PLANTSmolcadARTend

PLANTSmolcadARTend

