@<TRIPOS>MOLECULE
aspirin_entry_00001_conf_68
20 20 1
SMALL
NO_CHARGES


@<TRIPOS>ATOM
      1 C         -12.9312  -43.5268    8.2361 C.3       1 UNL1        0.0000
      2 C         -12.4701  -43.4211    6.8287 C.2       1 UNL1        0.0000
      3 C         -12.6012  -45.8057    6.3402 C.ar      1 UNL1        0.0000
      4 C         -12.2971  -46.3660    7.5627 C.ar      1 UNL1        0.0000
      5 C         -12.5269  -47.6923    7.8706 C.ar      1 UNL1        0.0000
      6 C         -13.0890  -48.4939    6.9069 C.ar      1 UNL1        0.0000
      7 C         -13.4120  -47.9852    5.6678 C.ar      1 UNL1        0.0000
      8 C         -13.1650  -46.6392    5.3939 C.ar      1 UNL1        0.0000
      9 C         -13.5216  -46.1413    4.0708 C.2       1 UNL1        0.0000
     10 O         -12.1167  -42.3202    6.3071 O.2       1 UNL1        0.0000
     11 O         -12.3911  -44.4988    5.9924 O.3       1 UNL1        0.0000
     12 O         -13.9603  -46.9175    3.1839 O.co2     1 UNL1       -0.5000
     13 O         -13.3900  -44.8029    3.7405 O.co2     1 UNL1       -0.5000
     14 H         -12.9082  -42.5590    8.6919 H         1 UNL1        0.0000
     15 H         -12.2858  -44.1894    8.7737 H         1 UNL1        0.0000
     16 H         -13.9305  -43.9079    8.2561 H         1 UNL1        0.0000
     17 H         -11.8757  -45.7625    8.2857 H         1 UNL1        0.0000
     18 H         -12.2839  -48.0708    8.8000 H         1 UNL1        0.0000
     19 H         -13.2710  -49.4888    7.1125 H         1 UNL1        0.0000
     20 H         -13.8342  -48.5937    4.9486 H         1 UNL1        0.0000
@<TRIPOS>BOND
     1    1    2 1
     2    1   14 1
     3    1   15 1
     4    1   16 1
     5    2   10 2
     6    2   11 1
     7    3    4 ar
     8    3    8 ar
     9    3   11 1
    10    4    5 ar
    11    4   17 1
    12    5    6 ar
    13    5   18 1
    14    6    7 ar
    15    6   19 1
    16    7    8 ar
    17    7   20 1
    18    8    9 1
    19    9   12 ar
    20    9   13 ar
@<TRIPOS>SUBSTRUCTURE
1 UNL1 1
@<TRIPOS>COMMENT
aspirin
PLANTSproteinTorsions
102
1 191.6286
42 211.5718
151 110.5990
173 54.8550
432 47.0591
491 195.1479
531 136.3439
563 233.5699
572 54.9942
629 136.4919
730 140.0396
826 98.9079
895 31.7859
921 119.6691
954 187.5674
1044 204.4780
1258 101.3900
1480 4.3872
1534 336.0544
1612 42.2606
1654 71.1522
1680 217.1026
1704 120.0566
1767 2.0168
1795 181.9851
1847 152.9609
1879 98.9345
1921 217.9215
1944 228.9548
1966 266.9467
1975 99.9394
2067 171.9407
2118 140.9411
2167 153.8825
2220 231.9042
2243 135.9345
2272 254.9265
2294 317.0959
2609 177.0022
2728 29.0388
2931 241.0788
3031 155.1214
3044 159.6448
3058 2.3173
3085 308.6380
3166 0.3281
3188 356.3683
3496 144.6733
3614 288.9167
3656 209.8834
3697 30.9119
3722 150.5356
3847 261.9400
3888 91.0564
4051 237.1846
4174 282.0814
4734 200.4204
4804 250.5506
4952 259.6522
5093 1.7421
5103 291.4112
5144 161.9623
5332 249.0782
5363 223.1662
5457 206.2494
5683 115.3341
5900 191.4468
6049 188.8199
6089 260.9330
6125 167.0288
6181 85.0318
6190 83.3684
6214 174.5356
6331 66.7575
6344 151.9310
6432 174.0671
7006 71.2060
7253 309.9850
7344 107.3274
7385 21.4654
7394 183.2347
7408 184.1823
7540 77.2526
7948 299.0495
8021 126.3967
8226 121.4708
8265 241.5417
8391 233.6116
8443 239.6853
8487 105.3307
8515 79.9542
8527 223.0354
8693 272.0988
8705 121.1507
8731 213.3643
8771 207.5264
8793 302.6939
8887 78.3426
8910 92.2365
8921 251.1828
8973 261.1384
8998 242.3479
PLANTSmolcadARTstart hb
PLANTSmolcadARTstart HB
LINES
PLANTSmolcadARTstart HBCH
LINES
-13.39 -44.8029 3.7405 -14.807 -43.973 3.961 255 0 0 5
PLANTSmolcadARTstart HB-CHO
LINES
-13.9603 -46.9175 3.18394 -11.918 -47.691 2.198 0 255 255 5
PLANTSmolcadARTend
PLANTSmolcadARTstart HB_WATER
LINES
PLANTSmolcadARTend

PLANTSmolcadARTend

