@<TRIPOS>MOLECULE
aspirin_entry_00001_conf_06
20 20 1
SMALL
NO_CHARGES


@<TRIPOS>ATOM
      1 C         -25.4452  -41.9193   -9.0496 C.3       1 UNL1        0.0000
      2 C         -24.2418  -42.7664   -9.2471 C.2       1 UNL1        0.0000
      3 C         -23.2299  -44.8303  -10.0587 C.ar      1 UNL1        0.0000
      4 C         -21.9743  -44.4016  -10.4337 C.ar      1 UNL1        0.0000
      5 C         -20.9231  -45.2588  -10.6926 C.ar      1 UNL1        0.0000
      6 C         -21.1418  -46.6094  -10.5687 C.ar      1 UNL1        0.0000
      7 C         -22.3779  -47.0918  -10.1974 C.ar      1 UNL1        0.0000
      8 C         -23.4160  -46.1942   -9.9436 C.ar      1 UNL1        0.0000
      9 C         -24.7078  -46.7462   -9.5533 C.2       1 UNL1        0.0000
     10 O         -23.0772  -42.3843   -8.9208 O.2       1 UNL1        0.0000
     11 O         -24.2987  -44.0178   -9.7927 O.3       1 UNL1        0.0000
     12 O         -24.9414  -47.9779   -9.6518 O.co2     1 UNL1       -0.5000
     13 O         -25.7221  -45.9403   -9.0641 O.co2     1 UNL1       -0.5000
     14 H         -25.1566  -40.9881   -8.6085 H         1 UNL1        0.0000
     15 H         -26.1328  -42.4223   -8.4024 H         1 UNL1        0.0000
     16 H         -25.9124  -41.7379   -9.9947 H         1 UNL1        0.0000
     17 H         -21.8114  -43.3870  -10.5255 H         1 UNL1        0.0000
     18 H         -19.9979  -44.8944  -10.9707 H         1 UNL1        0.0000
     19 H         -20.3721  -47.2707  -10.7565 H         1 UNL1        0.0000
     20 H         -22.5347  -48.1081  -10.1062 H         1 UNL1        0.0000
@<TRIPOS>BOND
     1    1    2 1
     2    1   14 1
     3    1   15 1
     4    1   16 1
     5    2   10 2
     6    2   11 1
     7    3    4 ar
     8    3    8 ar
     9    3   11 1
    10    4    5 ar
    11    4   17 1
    12    5    6 ar
    13    5   18 1
    14    6    7 ar
    15    6   19 1
    16    7    8 ar
    17    7   20 1
    18    8    9 1
    19    9   12 ar
    20    9   13 ar
@<TRIPOS>SUBSTRUCTURE
1 UNL1 1
@<TRIPOS>COMMENT
aspirin
PLANTSproteinTorsions
102
1 209.4882
42 270.4448
151 115.8730
173 177.6381
432 203.7378
491 116.9775
531 131.2097
563 60.5971
572 65.9941
629 147.4430
730 289.4688
826 177.6098
895 239.4316
921 157.4280
954 75.5047
1044 214.6955
1258 64.5793
1480 352.4657
1534 23.5087
1612 202.5909
1654 162.1822
1680 252.7650
1704 113.0705
1767 26.3878
1795 145.9536
1847 157.1864
1879 178.4481
1921 247.4051
1944 67.4593
1966 255.5611
1975 103.0070
2067 209.8484
2118 118.0835
2167 229.7758
2220 32.8594
2243 176.3410
2272 96.6154
2294 140.1994
2609 169.9857
2728 120.2367
2931 179.9474
3031 180.0796
3044 191.1995
3058 280.2665
3085 268.1563
3166 2.4296
3188 5.7715
3496 352.0361
3614 41.3645
3656 197.7095
3697 279.1536
3722 99.7927
3847 245.8441
3888 1.4815
4051 245.5905
4174 321.0696
4734 272.6068
4804 323.5400
4952 144.6237
5093 333.2826
5103 1.9516
5144 110.7976
5332 287.8678
5363 201.6156
5457 34.2673
5683 94.3139
5900 249.2954
6049 170.2175
6089 271.8583
6125 185.6585
6181 158.6832
6190 63.5226
6214 340.9824
6331 56.3652
6344 188.6100
6432 72.6046
7006 8.6273
7253 233.0174
7344 19.3304
7385 62.5134
7394 99.3918
7408 86.7444
7540 98.8008
7948 298.5899
8021 167.6855
8226 176.9016
8265 206.6862
8391 260.0881
8443 261.5956
8487 46.2845
8515 6.5222
8527 226.0011
8693 183.8488
8705 294.5850
8731 313.2983
8771 307.8085
8793 136.0710
8887 74.4778
8910 69.0995
8921 222.1961
8973 266.9432
8998 169.6245
PLANTSmolcadARTstart hb
PLANTSmolcadARTstart HB
LINES
PLANTSmolcadARTstart HBCH
LINES
-24.9414 -47.9779 -9.65178 -26.6587 -48.3816 -10.1996 255 0 0 5
PLANTSmolcadARTstart HB-CHO
LINES
PLANTSmolcadARTend
PLANTSmolcadARTstart HB_WATER
LINES
PLANTSmolcadARTend

PLANTSmolcadARTend

