@<TRIPOS>MOLECULE
aspirin_entry_00001_conf_66
20 20 1
SMALL
NO_CHARGES


@<TRIPOS>ATOM
      1 C         -18.2755  -43.3949    0.0362 C.3       1 UNL1        0.0000
      2 C         -18.1270  -43.4971    1.5101 C.2       1 UNL1        0.0000
      3 C         -20.4267  -42.8812    2.0339 C.ar      1 UNL1        0.0000
      4 C         -21.1331  -43.3558    0.9491 C.ar      1 UNL1        0.0000
      5 C         -22.4169  -42.9517    0.6407 C.ar      1 UNL1        0.0000
      6 C         -23.0207  -42.0286    1.4597 C.ar      1 UNL1        0.0000
      7 C         -22.3597  -41.5213    2.5571 C.ar      1 UNL1        0.0000
      8 C         -21.0628  -41.9544    2.8366 C.ar      1 UNL1        0.0000
      9 C         -20.3992  -41.3927    4.0070 C.2       1 UNL1        0.0000
     10 O         -17.0325  -43.8178    2.0651 O.2       1 UNL1        0.0000
     11 O         -19.1550  -43.2533    2.3765 O.3       1 UNL1        0.0000
     12 O         -21.0345  -40.6947    4.8382 O.co2     1 UNL1       -0.5000
     13 O         -19.0516  -41.6029    4.2465 O.co2     1 UNL1       -0.5000
     14 H         -17.3425  -43.6285   -0.4326 H         1 UNL1        0.0000
     15 H         -18.5658  -42.3987   -0.2244 H         1 UNL1        0.0000
     16 H         -19.0246  -44.0829   -0.2951 H         1 UNL1        0.0000
     17 H         -20.6785  -44.0495    0.3354 H         1 UNL1        0.0000
     18 H         -22.9098  -43.3335   -0.1823 H         1 UNL1        0.0000
     19 H         -23.9801  -41.7107    1.2508 H         1 UNL1        0.0000
     20 H         -22.8200  -40.8280    3.1680 H         1 UNL1        0.0000
@<TRIPOS>BOND
     1    1    2 1
     2    1   14 1
     3    1   15 1
     4    1   16 1
     5    2   10 2
     6    2   11 1
     7    3    4 ar
     8    3    8 ar
     9    3   11 1
    10    4    5 ar
    11    4   17 1
    12    5    6 ar
    13    5   18 1
    14    6    7 ar
    15    6   19 1
    16    7    8 ar
    17    7   20 1
    18    8    9 1
    19    9   12 ar
    20    9   13 ar
@<TRIPOS>SUBSTRUCTURE
1 UNL1 1
@<TRIPOS>COMMENT
aspirin
PLANTSproteinTorsions
102
1 323.1648
42 105.0705
151 226.1943
173 143.2825
432 75.7353
491 52.1517
531 107.6110
563 305.7981
572 31.8849
629 24.3192
730 253.7737
826 182.7017
895 307.7950
921 187.0004
954 11.4135
1044 172.7322
1258 143.9824
1480 292.2184
1534 56.8965
1612 45.7459
1654 260.3986
1680 101.9982
1704 59.0250
1767 162.7312
1795 81.8270
1847 143.7454
1879 219.3665
1921 83.8759
1944 273.0934
1966 175.5653
1975 91.4919
2067 222.9019
2118 344.9721
2167 122.9987
2220 171.4546
2243 46.0996
2272 193.5480
2294 203.8781
2609 124.3109
2728 338.9536
2931 251.8751
3031 17.5095
3044 292.0558
3058 15.0310
3085 155.8672
3166 215.0536
3188 171.7236
3496 148.7168
3614 100.5203
3656 245.6120
3697 191.6458
3722 247.5411
3847 95.1093
3888 215.4931
4051 192.8343
4174 30.8639
4734 252.0650
4804 340.2019
4952 297.1358
5093 95.6952
5103 205.2200
5144 206.9414
5332 231.2329
5363 132.4750
5457 188.7945
5683 105.8086
5900 206.4195
6049 199.8416
6089 9.5676
6125 269.0502
6181 225.9326
6190 207.7789
6214 308.1384
6331 236.1763
6344 74.0998
6432 230.9777
7006 347.1400
7253 145.9033
7344 66.4245
7385 57.4984
7394 275.9151
7408 151.5359
7540 18.3185
7948 279.5046
8021 66.0440
8226 76.7715
8265 301.6340
8391 265.4848
8443 112.3120
8487 77.2081
8515 55.9771
8527 156.3283
8693 131.7607
8705 59.5792
8731 67.0045
8771 241.1870
8793 285.1876
8887 222.6098
8910 97.6753
8921 268.0271
8973 238.6776
8998 257.6629
PLANTSmolcadARTstart hb
PLANTSmolcadARTstart HB
LINES
PLANTSmolcadARTstart HBCH
LINES
-19.0516 -41.6029 4.24652 -17.42 -41.962 5.124 255 0 0 5
PLANTSmolcadARTstart HB-CHO
LINES
PLANTSmolcadARTend
PLANTSmolcadARTstart HB_WATER
LINES
PLANTSmolcadARTend

PLANTSmolcadARTend

