@<TRIPOS>MOLECULE
aspirin_entry_00001_conf_21
20 20 1
SMALL
NO_CHARGES


@<TRIPOS>ATOM
      1 C         -13.8151  -63.1036    1.5948 C.3       1 UNL1        0.0000
      2 C         -14.0188  -62.0704    0.5480 C.2       1 UNL1        0.0000
      3 C         -13.7928  -61.3728   -1.7768 C.ar      1 UNL1        0.0000
      4 C         -13.9215  -60.0009   -1.7293 C.ar      1 UNL1        0.0000
      5 C         -14.2200  -59.2256   -2.8323 C.ar      1 UNL1        0.0000
      6 C         -14.3968  -59.8564   -4.0398 C.ar      1 UNL1        0.0000
      7 C         -14.2801  -61.2254   -4.1434 C.ar      1 UNL1        0.0000
      8 C         -13.9769  -61.9754   -3.0060 C.ar      1 UNL1        0.0000
      9 C         -13.8624  -63.4207   -3.1591 C.2       1 UNL1        0.0000
     10 O         -14.6908  -61.0144    0.7530 O.2       1 UNL1        0.0000
     11 O         -13.4985  -62.1791   -0.7108 O.3       1 UNL1        0.0000
     12 O         -14.0853  -63.9738   -4.2663 O.co2     1 UNL1       -0.5000
     13 O         -13.5079  -64.2360   -2.0974 O.co2     1 UNL1       -0.5000
     14 H         -14.3120  -62.8027    2.4934 H         1 UNL1        0.0000
     15 H         -12.7684  -63.2152    1.7864 H         1 UNL1        0.0000
     16 H         -14.2175  -64.0359    1.2585 H         1 UNL1        0.0000
     17 H         -13.7877  -59.5285   -0.8218 H         1 UNL1        0.0000
     18 H         -14.3068  -58.1999   -2.7518 H         1 UNL1        0.0000
     19 H         -14.6204  -59.2992   -4.8793 H         1 UNL1        0.0000
     20 H         -14.4142  -61.6924   -5.0542 H         1 UNL1        0.0000
@<TRIPOS>BOND
     1    1    2 1
     2    1   14 1
     3    1   15 1
     4    1   16 1
     5    2   10 2
     6    2   11 1
     7    3    4 ar
     8    3    8 ar
     9    3   11 1
    10    4    5 ar
    11    4   17 1
    12    5    6 ar
    13    5   18 1
    14    6    7 ar
    15    6   19 1
    16    7    8 ar
    17    7   20 1
    18    8    9 1
    19    9   12 ar
    20    9   13 ar
@<TRIPOS>SUBSTRUCTURE
1 UNL1 1
@<TRIPOS>COMMENT
aspirin
PLANTSproteinTorsions
102
1 13.9897
42 113.1150
151 59.3311
173 147.4469
432 235.6496
491 21.8396
531 137.9386
563 73.1184
572 85.2885
629 210.3885
730 20.5484
826 14.6343
895 83.7180
921 216.9646
954 55.0709
1044 43.1544
1258 124.2400
1480 199.3369
1534 64.4210
1612 179.5112
1654 184.6115
1680 20.7059
1704 49.8048
1767 159.9104
1795 78.0064
1847 114.1106
1879 182.2215
1921 172.1768
1944 64.2932
1966 54.4122
1975 188.4984
2067 6.6169
2118 63.7441
2167 135.8691
2220 171.9984
2243 180.1734
2272 119.2988
2294 348.7536
2609 155.5892
2728 192.7183
2931 152.8495
3031 52.0184
3044 88.1452
3058 208.1318
3085 164.2659
3166 38.4076
3188 212.5872
3496 149.5668
3614 330.8635
3656 125.8649
3697 170.0192
3722 190.0274
3847 73.2165
3888 60.3767
4051 187.5393
4174 11.6952
4734 219.8601
4804 209.5703
4952 339.2618
5093 202.6278
5103 237.6633
5144 157.7064
5332 270.7588
5363 87.8080
5457 267.4266
5683 125.9373
5900 281.0079
6049 156.0899
6089 110.1666
6125 192.2572
6181 264.3504
6190 56.4410
6214 83.5233
6331 234.6328
6344 338.8431
6432 173.9239
7006 282.8049
7253 184.8765
7344 69.9983
7385 70.1282
7394 177.2664
7408 74.3704
7540 202.5143
7948 221.6567
8021 224.8007
8226 180.9083
8265 273.0578
8391 271.2096
8443 150.3561
8487 253.5283
8515 219.6709
8527 227.7979
8693 220.9592
8705 54.1149
8731 93.2742
8771 176.2421
8793 14.2216
8887 16.2264
8910 159.3395
8921 293.9752
8973 249.5023
8998 254.5571
PLANTSmolcadARTstart hb
PLANTSmolcadARTstart HB
LINES
PLANTSmolcadARTstart HBCH
LINES
PLANTSmolcadARTstart HB-CHO
LINES
PLANTSmolcadARTend
PLANTSmolcadARTstart HB_WATER
LINES
PLANTSmolcadARTend

PLANTSmolcadARTend

