@<TRIPOS>MOLECULE
aspirin_entry_00001_conf_46
20 20 1
SMALL
NO_CHARGES


@<TRIPOS>ATOM
      1 C           0.2475  -34.3673   -0.7886 C.3       1 UNL1        0.0000
      2 C           0.3766  -35.6850   -0.1163 C.2       1 UNL1        0.0000
      3 C          -0.2898  -38.0211    0.0857 C.ar      1 UNL1        0.0000
      4 C          -0.0356  -38.2902    1.4138 C.ar      1 UNL1        0.0000
      5 C           0.0380  -39.5684    1.9310 C.ar      1 UNL1        0.0000
      6 C          -0.1531  -40.6262    1.0756 C.ar      1 UNL1        0.0000
      7 C          -0.4097  -40.4138   -0.2613 C.ar      1 UNL1        0.0000
      8 C          -0.4770  -39.1071   -0.7471 C.ar      1 UNL1        0.0000
      9 C          -0.7506  -38.9265   -2.1677 C.2       1 UNL1        0.0000
     10 O           1.1917  -35.8895    0.8337 O.2       1 UNL1        0.0000
     11 O          -0.3714  -36.7726   -0.4691 O.3       1 UNL1        0.0000
     12 O          -0.9994  -39.9114   -2.9091 O.co2     1 UNL1       -0.5000
     13 O          -0.7452  -37.6714   -2.7529 O.co2     1 UNL1       -0.5000
     14 H           0.9298  -33.6728   -0.3446 H         1 UNL1        0.0000
     15 H          -0.7531  -34.0060   -0.6752 H         1 UNL1        0.0000
     16 H           0.4724  -34.4744   -1.8289 H         1 UNL1        0.0000
     17 H           0.1069  -37.4946    2.0551 H         1 UNL1        0.0000
     18 H           0.2304  -39.7246    2.9333 H         1 UNL1        0.0000
     19 H          -0.1034  -41.5913    1.4379 H         1 UNL1        0.0000
     20 H          -0.5524  -41.2137   -0.8981 H         1 UNL1        0.0000
@<TRIPOS>BOND
     1    1    2 1
     2    1   14 1
     3    1   15 1
     4    1   16 1
     5    2   10 2
     6    2   11 1
     7    3    4 ar
     8    3    8 ar
     9    3   11 1
    10    4    5 ar
    11    4   17 1
    12    5    6 ar
    13    5   18 1
    14    6    7 ar
    15    6   19 1
    16    7    8 ar
    17    7   20 1
    18    8    9 1
    19    9   12 ar
    20    9   13 ar
@<TRIPOS>SUBSTRUCTURE
1 UNL1 1
@<TRIPOS>COMMENT
aspirin
PLANTSproteinTorsions
102
1 223.2330
42 217.3028
151 135.4064
173 292.2749
432 334.3594
491 151.0537
531 240.1761
563 100.2529
572 62.0135
629 222.4069
730 145.3412
826 61.2819
895 131.2475
921 20.2234
954 89.2034
1044 233.1974
1258 42.2164
1480 13.2192
1534 59.2301
1612 42.2339
1654 47.2581
1680 119.2904
1704 211.8264
1767 200.9767
1795 253.0670
1847 184.0707
1879 115.0929
1921 1.6476
1944 12.1362
1966 204.1096
1975 11.2555
2067 102.2327
2118 140.8492
2167 76.7523
2220 245.6645
2243 161.5893
2272 347.4271
2294 85.4187
2609 315.0757
2728 200.2807
2931 53.2580
3031 38.2022
3044 156.1665
3058 224.1648
3085 324.4889
3166 200.1744
3188 272.4402
3496 120.2086
3614 147.2274
3656 208.2442
3697 18.2461
3722 137.1571
3847 132.2178
3888 333.5348
4051 66.1534
4174 112.9052
4734 187.1030
4804 272.4908
4952 149.4035
5093 139.4288
5103 216.4230
5144 201.4927
5332 252.5765
5363 116.5840
5457 12.6402
5683 37.7330
5900 49.8470
6049 68.9060
6089 275.1002
6125 114.8155
6181 93.6092
6190 26.8507
6214 182.0447
6331 91.1631
6344 96.2800
6432 208.3866
7006 124.3644
7253 309.6942
7344 120.6420
7385 143.8376
7394 146.0629
7408 67.2895
7540 283.1602
7948 263.1772
8021 190.3378
8226 85.5122
8265 100.9193
8391 74.0610
8443 26.1978
8487 142.3296
8515 253.5882
8527 23.4869
8693 140.7476
8705 51.8196
8731 227.9515
8771 183.9532
8793 87.8458
8887 56.7452
8910 179.2686
8921 120.6461
8973 156.8648
8998 291.7907
PLANTSmolcadARTstart hb
PLANTSmolcadARTstart HB
LINES
PLANTSmolcadARTstart HBCH
LINES
PLANTSmolcadARTstart HB-CHO
LINES
PLANTSmolcadARTend
PLANTSmolcadARTstart HB_WATER
LINES
PLANTSmolcadARTend

PLANTSmolcadARTend

