@<TRIPOS>MOLECULE
aspirin_entry_00001_conf_03
20 20 1
SMALL
NO_CHARGES


@<TRIPOS>ATOM
      1 C         -33.4056  -43.0866    7.6427 C.3       1 UNL1        0.0000
      2 C         -33.3374  -42.9693    6.1641 C.2       1 UNL1        0.0000
      3 C         -33.2862  -45.3655    5.7191 C.ar      1 UNL1        0.0000
      4 C         -32.5697  -45.8445    6.7952 C.ar      1 UNL1        0.0000
      5 C         -32.5270  -47.1788    7.1482 C.ar      1 UNL1        0.0000
      6 C         -33.2373  -48.0744    6.3862 C.ar      1 UNL1        0.0000
      7 C         -33.9699  -47.6494    5.2994 C.ar      1 UNL1        0.0000
      8 C         -33.9889  -46.2924    4.9740 C.ar      1 UNL1        0.0000
      9 C         -34.7765  -45.8849    3.8166 C.2       1 UNL1        0.0000
     10 O         -33.2555  -41.8510    5.5713 O.2       1 UNL1        0.0000
     11 O         -33.3567  -44.0542    5.3336 O.3       1 UNL1        0.0000
     12 O         -34.6117  -44.7564    3.2867 O.co2     1 UNL1       -0.5000
     13 O         -35.7321  -46.7186    3.2606 O.co2     1 UNL1       -0.5000
     14 H         -33.3742  -42.1101    8.0791 H         1 UNL1        0.0000
     15 H         -32.5737  -43.6607    7.9934 H         1 UNL1        0.0000
     16 H         -34.3170  -43.5732    7.9200 H         1 UNL1        0.0000
     17 H         -32.0374  -45.1706    7.3670 H         1 UNL1        0.0000
     18 H         -31.9772  -47.4944    7.9632 H         1 UNL1        0.0000
     19 H         -33.2218  -49.0772    6.6296 H         1 UNL1        0.0000
     20 H         -34.5013  -48.3283    4.7315 H         1 UNL1        0.0000
@<TRIPOS>BOND
     1    1    2 1
     2    1   14 1
     3    1   15 1
     4    1   16 1
     5    2   10 2
     6    2   11 1
     7    3    4 ar
     8    3    8 ar
     9    3   11 1
    10    4    5 ar
    11    4   17 1
    12    5    6 ar
    13    5   18 1
    14    6    7 ar
    15    6   19 1
    16    7    8 ar
    17    7   20 1
    18    8    9 1
    19    9   12 ar
    20    9   13 ar
@<TRIPOS>SUBSTRUCTURE
1 UNL1 1
@<TRIPOS>COMMENT
aspirin
PLANTSproteinTorsions
102
1 218.4407
42 205.7760
151 168.0243
173 135.4147
432 39.7949
491 162.3651
531 123.5837
563 281.3267
572 155.4476
629 155.5159
730 104.1560
826 239.5728
895 31.0224
921 185.3474
954 236.0670
1044 150.8728
1258 311.0964
1480 210.4262
1534 40.7949
1612 201.3834
1654 188.1799
1680 128.3660
1704 31.7442
1767 331.4562
1795 254.6691
1847 0.3116
1879 254.8482
1921 246.6683
1944 124.6034
1966 344.2672
1975 98.8336
2067 186.2577
2118 215.5768
2167 114.4196
2220 233.2354
2243 133.8278
2272 214.1921
2294 162.3579
2609 179.4342
2728 92.6306
2931 209.5621
3031 147.0572
3044 41.5953
3058 353.1670
3085 257.2332
3166 1.7857
3188 5.5726
3496 145.0810
3614 297.9888
3656 202.5141
3697 201.6700
3722 126.5023
3847 260.8249
3888 90.6051
4051 257.6569
4174 267.6555
4734 139.2755
4804 305.9846
4952 107.4006
5093 236.2410
5103 287.4506
5144 129.5078
5332 128.3530
5363 182.1824
5457 242.3128
5683 100.3381
5900 175.6326
6049 170.3327
6089 273.3990
6125 163.8872
6181 89.2086
6190 37.7317
6214 267.5490
6331 74.5290
6344 263.5320
6432 248.1581
7006 67.3132
7253 73.9457
7344 24.3985
7385 27.1404
7394 153.7034
7408 211.0332
7540 117.1850
7948 281.1792
8021 181.9589
8226 129.4484
8265 267.4347
8391 266.1302
8443 225.6880
8487 115.7274
8515 90.8784
8527 260.0112
8693 200.3422
8705 127.6672
8731 227.5648
8771 215.7045
8793 150.9885
8887 237.8868
8910 113.0735
8921 248.5479
8973 264.7016
8998 185.9774
PLANTSmolcadARTstart hb
PLANTSmolcadARTstart HB
LINES
-35.7321 -46.7186 3.2606 -34.9659 -47.041 1.63539 0 255 0 5
PLANTSmolcadARTstart HBCH
LINES
PLANTSmolcadARTstart HB-CHO
LINES
PLANTSmolcadARTend
PLANTSmolcadARTstart HB_WATER
LINES
PLANTSmolcadARTend

PLANTSmolcadARTend

