@<TRIPOS>MOLECULE
aspirin_entry_00001_conf_38
20 20 1
SMALL
NO_CHARGES


@<TRIPOS>ATOM
      1 C         -14.2443  -60.7058   -4.3197 C.3       1 UNL1        0.0000
      2 C         -13.9126  -60.9496   -2.8930 C.2       1 UNL1        0.0000
      3 C         -14.1702  -62.2848   -0.8699 C.ar      1 UNL1        0.0000
      4 C         -14.1262  -61.3381    0.1316 C.ar      1 UNL1        0.0000
      5 C         -13.9069  -61.6447    1.4599 C.ar      1 UNL1        0.0000
      6 C         -13.7238  -62.9632    1.7996 C.ar      1 UNL1        0.0000
      7 C         -13.7575  -63.9497    0.8382 C.ar      1 UNL1        0.0000
      8 C         -13.9822  -63.6007   -0.4943 C.ar      1 UNL1        0.0000
      9 C         -14.0102  -64.6748   -1.4797 C.2       1 UNL1        0.0000
     10 O         -13.1677  -60.1718   -2.2230 O.2       1 UNL1        0.0000
     11 O         -14.3844  -62.0263   -2.1967 O.3       1 UNL1        0.0000
     12 O         -14.0554  -65.8797   -1.1224 O.co2     1 UNL1       -0.5000
     13 O         -13.9862  -64.4119   -2.8391 O.co2     1 UNL1       -0.5000
     14 H         -13.7646  -59.8075   -4.6482 H         1 UNL1        0.0000
     15 H         -15.3038  -60.6039   -4.4268 H         1 UNL1        0.0000
     16 H         -13.9036  -61.5299   -4.9106 H         1 UNL1        0.0000
     17 H         -14.2647  -60.3484   -0.1250 H         1 UNL1        0.0000
     18 H         -13.8822  -60.9035    2.1782 H         1 UNL1        0.0000
     19 H         -13.5584  -63.2183    2.7859 H         1 UNL1        0.0000
     20 H         -13.6192  -64.9384    1.1011 H         1 UNL1        0.0000
@<TRIPOS>BOND
     1    1    2 1
     2    1   14 1
     3    1   15 1
     4    1   16 1
     5    2   10 2
     6    2   11 1
     7    3    4 ar
     8    3    8 ar
     9    3   11 1
    10    4    5 ar
    11    4   17 1
    12    5    6 ar
    13    5   18 1
    14    6    7 ar
    15    6   19 1
    16    7    8 ar
    17    7   20 1
    18    8    9 1
    19    9   12 ar
    20    9   13 ar
@<TRIPOS>SUBSTRUCTURE
1 UNL1 1
@<TRIPOS>COMMENT
aspirin
PLANTSproteinTorsions
102
1 282.7623
42 122.1054
151 330.2091
173 136.3698
432 91.6779
491 14.1107
531 132.6803
563 216.1714
572 198.8972
629 185.6297
730 45.6578
826 37.1336
895 115.6784
921 223.7021
954 102.9654
1044 163.2355
1258 151.7069
1480 225.0843
1534 77.3406
1612 182.9104
1654 238.1688
1680 70.1849
1704 53.7533
1767 264.7039
1795 254.4156
1847 105.0026
1879 188.7331
1921 227.0887
1944 75.3551
1966 175.4377
1975 192.9458
2067 332.9499
2118 192.1456
2167 264.3523
2220 148.5650
2243 73.0480
2272 66.6746
2294 23.4660
2609 143.3356
2728 102.9488
2931 116.6758
3031 176.2634
3044 89.5324
3058 65.2951
3085 187.0710
3166 239.7680
3188 72.9858
3496 194.1893
3614 316.8950
3656 127.3255
3697 165.9120
3722 168.8242
3847 32.4045
3888 152.6023
4051 229.0842
4174 333.5356
4734 210.9134
4804 212.5317
4952 6.9017
5093 82.7319
5103 266.1853
5144 304.6729
5332 286.8131
5363 109.7555
5457 258.5167
5683 10.9898
5900 158.9118
6049 231.6756
6089 107.5257
6125 131.2674
6181 221.4010
6190 76.6342
6214 258.1287
6331 203.8708
6344 101.7177
6432 246.8002
7006 306.2075
7253 183.1255
7344 144.1201
7385 44.9824
7394 139.7273
7408 47.6871
7540 215.9229
7948 158.2874
8021 150.8812
8226 153.3881
8265 155.0676
8391 239.5556
8443 73.6309
8487 315.1541
8515 280.3623
8527 223.4752
8693 216.0799
8705 13.3570
8731 57.4483
8771 279.9150
8793 9.7971
8887 230.0151
8910 68.6495
8921 270.4919
8973 190.1118
8998 305.4562
PLANTSmolcadARTstart hb
PLANTSmolcadARTstart HB
LINES
-13.1677 -60.1718 -2.22302 -11.654 -59.599 -3.055 0 255 0 5
PLANTSmolcadARTstart HBCH
LINES
PLANTSmolcadARTstart HB-CHO
LINES
PLANTSmolcadARTend
PLANTSmolcadARTstart HB_WATER
LINES
PLANTSmolcadARTend

PLANTSmolcadARTend

