@<TRIPOS>MOLECULE
aspirin_entry_00001_conf_97
20 20 1
SMALL
NO_CHARGES


@<TRIPOS>ATOM
      1 C          -0.5883  -41.2503    0.8106 C.3       1 UNL1        0.0000
      2 C          -0.1891  -40.6337   -0.4799 C.2       1 UNL1        0.0000
      3 C           0.3930  -38.4560    0.4480 C.ar      1 UNL1        0.0000
      4 C           0.8722  -38.7959    1.6953 C.ar      1 UNL1        0.0000
      5 C           1.0589  -37.8827    2.7140 C.ar      1 UNL1        0.0000
      6 C           0.7509  -36.5663    2.4696 C.ar      1 UNL1        0.0000
      7 C           0.2681  -36.1722    1.2407 C.ar      1 UNL1        0.0000
      8 C           0.0931  -37.1244    0.2355 C.ar      1 UNL1        0.0000
      9 C          -0.4199  -36.6654   -1.0497 C.2       1 UNL1        0.0000
     10 O          -0.1769  -41.2810   -1.5706 O.2       1 UNL1        0.0000
     11 O           0.1929  -39.3264   -0.5891 O.3       1 UNL1        0.0000
     12 O          -0.2917  -37.3670   -2.0854 O.co2     1 UNL1       -0.5000
     13 O          -1.0625  -35.4457   -1.1795 O.co2     1 UNL1       -0.5000
     14 H          -0.8457  -42.2764    0.6503 H         1 UNL1        0.0000
     15 H          -1.4335  -40.7287    1.2084 H         1 UNL1        0.0000
     16 H           0.2260  -41.1894    1.5016 H         1 UNL1        0.0000
     17 H           1.1038  -39.7848    1.8771 H         1 UNL1        0.0000
     18 H           1.4209  -38.1809    3.6338 H         1 UNL1        0.0000
     19 H           0.8819  -35.8643    3.2147 H         1 UNL1        0.0000
     20 H           0.0390  -35.1811    1.0644 H         1 UNL1        0.0000
@<TRIPOS>BOND
     1    1    2 1
     2    1   14 1
     3    1   15 1
     4    1   16 1
     5    2   10 2
     6    2   11 1
     7    3    4 ar
     8    3    8 ar
     9    3   11 1
    10    4    5 ar
    11    4   17 1
    12    5    6 ar
    13    5   18 1
    14    6    7 ar
    15    6   19 1
    16    7    8 ar
    17    7   20 1
    18    8    9 1
    19    9   12 ar
    20    9   13 ar
@<TRIPOS>SUBSTRUCTURE
1 UNL1 1
@<TRIPOS>COMMENT
aspirin
PLANTSproteinTorsions
102
1 57.0000
42 44.0000
151 249.0000
173 333.0000
432 128.0000
491 213.0000
531 2.0000
563 16.0000
572 324.0000
629 145.0000
730 158.0000
826 115.0000
895 35.0000
921 32.0000
954 145.0000
1044 135.0000
1258 160.0000
1480 45.0000
1534 133.0000
1612 242.0000
1654 142.0000
1680 191.0000
1704 164.0000
1767 37.0000
1795 76.0000
1847 179.0000
1879 214.0000
1921 62.0000
1944 2.0000
1966 21.0000
1975 254.0000
2067 231.0000
2118 269.0000
2167 6.0000
2220 33.0000
2243 69.0000
2272 57.0000
2294 79.0000
2609 23.0000
2728 273.0000
2931 56.0000
3031 35.0000
3044 117.0000
3058 32.0000
3085 16.0000
3166 30.0000
3188 25.0000
3496 129.0000
3614 45.0000
3656 223.0000
3697 203.0000
3722 122.0000
3847 160.0000
3888 188.0000
4051 304.0000
4174 188.0000
4734 130.0000
4804 264.0000
4952 154.0000
5093 232.0000
5103 93.0000
5144 174.0000
5332 32.0000
5363 19.0000
5457 259.0000
5683 7.0000
5900 69.0000
6049 209.0000
6089 222.0000
6125 83.0000
6181 280.0000
6190 138.0000
6214 175.0000
6331 283.0000
6344 137.0000
6432 252.0000
7006 181.0000
7253 247.0000
7344 226.0000
7385 163.0000
7394 325.0000
7408 260.0000
7540 131.0000
7948 120.0000
8021 40.0000
8226 196.0000
8265 183.0000
8391 180.0000
8443 211.0000
8487 34.0000
8515 271.0000
8527 62.0000
8693 132.0000
8705 29.0000
8731 180.0000
8771 75.0000
8793 75.0000
8887 220.0000
8910 214.0000
8921 183.0000
8973 270.0000
8998 192.0000
PLANTSmolcadARTstart hb
PLANTSmolcadARTstart HB
LINES
PLANTSmolcadARTstart HBCH
LINES
PLANTSmolcadARTstart HB-CHO
LINES
PLANTSmolcadARTend
PLANTSmolcadARTstart HB_WATER
LINES
PLANTSmolcadARTend

PLANTSmolcadARTend

