@<TRIPOS>MOLECULE
aspirin_entry_00001_conf_37
20 20 1
SMALL
NO_CHARGES


@<TRIPOS>ATOM
      1 C          -0.3133  -41.2850    2.1749 C.3       1 UNL1        0.0000
      2 C          -0.2302  -39.8047    2.0949 C.2       1 UNL1        0.0000
      3 C           0.0855  -37.7817    0.7720 C.ar      1 UNL1        0.0000
      4 C           0.5175  -36.8777    1.7192 C.ar      1 UNL1        0.0000
      5 C           0.5424  -35.5126    1.5132 C.ar      1 UNL1        0.0000
      6 C           0.1144  -35.0318    0.2995 C.ar      1 UNL1        0.0000
      7 C          -0.3280  -35.8912   -0.6824 C.ar      1 UNL1        0.0000
      8 C          -0.3381  -37.2651   -0.4371 C.ar      1 UNL1        0.0000
      9 C          -0.8137  -38.1393   -1.5025 C.2       1 UNL1        0.0000
     10 O          -0.4077  -39.0557    3.1030 O.2       1 UNL1        0.0000
     11 O           0.0439  -39.1401    0.9329 O.3       1 UNL1        0.0000
     12 O          -1.0863  -37.6817   -2.6417 O.co2     1 UNL1       -0.5000
     13 O          -0.9847  -39.4988   -1.3023 O.co2     1 UNL1       -0.5000
     14 H          -0.5368  -41.5752    3.1803 H         1 UNL1        0.0000
     15 H           0.6230  -41.7109    1.8807 H         1 UNL1        0.0000
     16 H          -1.0851  -41.6344    1.5218 H         1 UNL1        0.0000
     17 H           0.8394  -37.2404    2.6299 H         1 UNL1        0.0000
     18 H           0.8745  -34.8709    2.2508 H         1 UNL1        0.0000
     19 H           0.1236  -34.0154    0.1209 H         1 UNL1        0.0000
     20 H          -0.6480  -35.5226   -1.5920 H         1 UNL1        0.0000
@<TRIPOS>BOND
     1    1    2 1
     2    1   14 1
     3    1   15 1
     4    1   16 1
     5    2   10 2
     6    2   11 1
     7    3    4 ar
     8    3    8 ar
     9    3   11 1
    10    4    5 ar
    11    4   17 1
    12    5    6 ar
    13    5   18 1
    14    6    7 ar
    15    6   19 1
    16    7    8 ar
    17    7   20 1
    18    8    9 1
    19    9   12 ar
    20    9   13 ar
@<TRIPOS>SUBSTRUCTURE
1 UNL1 1
@<TRIPOS>COMMENT
aspirin
PLANTSproteinTorsions
102
1 218.1516
42 353.9834
151 126.4272
173 190.9037
432 247.2052
491 328.0268
531 141.7977
563 96.7729
572 21.3137
629 236.2695
730 222.9784
826 224.8059
895 45.7952
921 62.8812
954 14.1511
1044 114.6579
1258 47.0478
1480 18.9896
1534 56.4008
1612 341.9120
1654 155.4898
1680 210.8529
1704 167.4397
1767 186.0009
1795 8.1931
1847 47.6528
1879 46.3710
1921 187.3421
1944 325.4846
1966 61.5785
1975 16.4631
2067 92.4444
2118 149.7035
2167 85.6152
2220 248.5696
2243 88.4328
2272 296.8924
2294 321.5362
2609 4.5670
2728 288.4793
2931 51.8381
3031 260.6601
3044 216.5248
3058 223.4205
3085 316.6372
3166 202.8227
3188 140.9597
3496 248.3775
3614 17.0633
3656 85.3784
3697 228.4313
3722 67.0763
3847 106.6323
3888 25.4087
4051 52.8397
4174 187.3388
4734 144.9503
4804 16.6214
4952 297.0696
5093 80.3004
5103 242.9348
5144 144.9943
5332 68.4239
5363 50.5972
5457 74.1325
5683 149.0013
5900 142.0154
6049 139.0480
6089 63.0731
6125 99.1852
6181 167.3878
6190 195.5016
6214 164.3373
6331 88.2613
6344 141.0267
6432 107.7985
7006 133.6388
7253 273.7970
7344 104.2145
7385 124.1853
7394 122.5241
7408 322.4035
7540 78.8933
7948 266.4060
8021 226.4247
8226 3.6789
8265 125.4456
8391 68.4878
8443 306.3567
8487 123.4670
8515 14.9821
8527 304.4091
8693 145.2948
8705 55.6252
8731 275.2581
8771 180.5606
8793 161.4059
8887 265.3629
8910 170.3028
8921 198.0163
8973 38.3401
8998 172.2329
PLANTSmolcadARTstart hb
PLANTSmolcadARTstart HB
LINES
PLANTSmolcadARTstart HBCH
LINES
PLANTSmolcadARTstart HB-CHO
LINES
PLANTSmolcadARTend
PLANTSmolcadARTstart HB_WATER
LINES
PLANTSmolcadARTend

PLANTSmolcadARTend

