@<TRIPOS>MOLECULE
aspirin_entry_00001_conf_15
20 20 1
SMALL
NO_CHARGES


@<TRIPOS>ATOM
      1 C         -13.2069  -65.5145   -4.9623 C.3       1 UNL1        0.0000
      2 C         -13.0535  -65.0975   -3.5455 C.2       1 UNL1        0.0000
      3 C         -13.6101  -63.5650   -1.7334 C.ar      1 UNL1        0.0000
      4 C         -13.6099  -64.4138   -0.6469 C.ar      1 UNL1        0.0000
      5 C         -13.6073  -63.9748    0.6623 C.ar      1 UNL1        0.0000
      6 C         -13.6041  -62.6203    0.8921 C.ar      1 UNL1        0.0000
      7 C         -13.6047  -61.7276   -0.1573 C.ar      1 UNL1        0.0000
      8 C         -13.6069  -62.2095   -1.4671 C.ar      1 UNL1        0.0000
      9 C         -13.6075  -61.2313   -2.5482 C.2       1 UNL1        0.0000
     10 O         -12.3907  -65.7750   -2.7026 O.2       1 UNL1        0.0000
     11 O         -13.6125  -63.9556   -3.0451 O.3       1 UNL1        0.0000
     12 O         -13.3365  -60.0232   -2.3277 O.co2     1 UNL1       -0.5000
     13 O         -13.9065  -61.5917   -3.8514 O.co2     1 UNL1       -0.5000
     14 H         -12.6846  -66.4348   -5.1210 H         1 UNL1        0.0000
     15 H         -12.8010  -64.7592   -5.6020 H         1 UNL1        0.0000
     16 H         -14.2447  -65.6495   -5.1836 H         1 UNL1        0.0000
     17 H         -13.6115  -65.4308   -0.8212 H         1 UNL1        0.0000
     18 H         -13.6068  -64.6461    1.4467 H         1 UNL1        0.0000
     19 H         -13.6018  -62.2669    1.8618 H         1 UNL1        0.0000
     20 H         -13.6021  -60.7112    0.0232 H         1 UNL1        0.0000
@<TRIPOS>BOND
     1    1    2 1
     2    1   14 1
     3    1   15 1
     4    1   16 1
     5    2   10 2
     6    2   11 1
     7    3    4 ar
     8    3    8 ar
     9    3   11 1
    10    4    5 ar
    11    4   17 1
    12    5    6 ar
    13    5   18 1
    14    6    7 ar
    15    6   19 1
    16    7    8 ar
    17    7   20 1
    18    8    9 1
    19    9   12 ar
    20    9   13 ar
@<TRIPOS>SUBSTRUCTURE
1 UNL1 1
@<TRIPOS>COMMENT
aspirin
PLANTSproteinTorsions
102
1 22.4852
42 123.7554
151 337.7952
173 135.9720
432 199.1660
491 38.4409
531 137.0967
563 76.4696
572 181.7844
629 345.7410
730 351.7562
826 32.6900
895 243.0038
921 227.8405
954 37.7718
1044 110.9632
1258 223.9680
1480 253.2630
1534 91.6496
1612 44.7330
1654 270.3818
1680 97.5452
1704 134.5821
1767 272.3134
1795 350.9818
1847 126.6800
1879 243.1452
1921 253.3759
1944 148.3325
1966 44.3030
1975 77.1943
2067 313.5773
2118 56.6711
2167 84.8863
2220 237.0380
2243 130.9632
2272 134.0118
2294 347.1353
2609 88.5075
2728 308.1450
2931 117.5659
3031 144.8423
3044 90.1605
3058 306.2736
3085 160.9329
3166 44.1619
3188 158.2378
3496 154.9933
3614 19.6028
3656 228.9426
3697 96.1584
3722 187.3340
3847 36.3550
3888 9.2086
4051 174.4062
4174 9.0637
4734 274.4520
4804 203.9004
4952 120.5943
5093 68.9129
5103 219.5457
5144 155.6460
5332 235.4054
5363 103.8320
5457 22.6546
5683 115.8811
5900 101.9469
6049 174.9543
6089 274.2782
6125 117.1304
6181 278.8919
6190 97.3118
6214 235.5638
6331 146.8089
6344 116.1998
6432 192.1028
7006 290.0437
7253 193.6028
7344 204.2884
7385 32.8921
7394 61.1946
7408 213.0071
7540 194.9095
7948 199.3567
8021 217.9173
8226 172.3021
8265 172.2485
8391 121.4445
8443 146.2366
8487 264.8157
8515 224.5663
8527 197.5494
8693 215.5912
8705 22.8111
8731 75.4313
8771 171.9497
8793 295.5571
8887 101.1959
8910 203.3347
8921 270.0282
8973 245.3807
8998 118.6087
PLANTSmolcadARTstart hb
PLANTSmolcadARTstart HB
LINES
-13.3365 -60.0232 -2.32775 -11.654 -59.599 -3.055 0 255 0 5
PLANTSmolcadARTstart HBCH
LINES
PLANTSmolcadARTstart HB-CHO
LINES
PLANTSmolcadARTend
PLANTSmolcadARTstart HB_WATER
LINES
PLANTSmolcadARTend

PLANTSmolcadARTend

