@<TRIPOS>MOLECULE
aspirin_entry_00001_conf_93
20 20 1
SMALL
NO_CHARGES


@<TRIPOS>ATOM
      1 C         -36.0033  -45.9485    3.4488 C.3       1 UNL1        0.0000
      2 C         -34.9933  -46.9616    3.8465 C.2       1 UNL1        0.0000
      3 C         -33.2915  -45.3648    4.5511 C.ar      1 UNL1        0.0000
      4 C         -33.3499  -44.3737    3.5945 C.ar      1 UNL1        0.0000
      5 C         -32.8269  -43.1086    3.7761 C.ar      1 UNL1        0.0000
      6 C         -32.2175  -42.8245    4.9741 C.ar      1 UNL1        0.0000
      7 C         -32.1311  -43.7786    5.9644 C.ar      1 UNL1        0.0000
      8 C         -32.6720  -45.0462    5.7439 C.ar      1 UNL1        0.0000
      9 C         -32.5593  -46.0262    6.8175 C.2       1 UNL1        0.0000
     10 O         -35.1749  -48.2065    3.6847 O.2       1 UNL1        0.0000
     11 O         -33.7955  -46.6299    4.4142 O.3       1 UNL1        0.0000
     12 O         -32.7966  -47.2436    6.6098 O.co2     1 UNL1       -0.5000
     13 O         -32.1908  -45.6566    8.1002 O.co2     1 UNL1       -0.5000
     14 H         -36.8550  -46.4410    3.0281 H         1 UNL1        0.0000
     15 H         -35.5785  -45.2880    2.7223 H         1 UNL1        0.0000
     16 H         -36.3031  -45.3875    4.3088 H         1 UNL1        0.0000
     17 H         -33.8086  -44.5883    2.6956 H         1 UNL1        0.0000
     18 H         -32.8931  -42.3956    3.0322 H         1 UNL1        0.0000
     19 H         -31.8190  -41.8861    5.1344 H         1 UNL1        0.0000
     20 H         -31.6718  -43.5577    6.8621 H         1 UNL1        0.0000
@<TRIPOS>BOND
     1    1    2 1
     2    1   14 1
     3    1   15 1
     4    1   16 1
     5    2   10 2
     6    2   11 1
     7    3    4 ar
     8    3    8 ar
     9    3   11 1
    10    4    5 ar
    11    4   17 1
    12    5    6 ar
    13    5   18 1
    14    6    7 ar
    15    6   19 1
    16    7    8 ar
    17    7   20 1
    18    8    9 1
    19    9   12 ar
    20    9   13 ar
@<TRIPOS>SUBSTRUCTURE
1 UNL1 1
@<TRIPOS>COMMENT
aspirin
PLANTSproteinTorsions
102
1 5.2887
42 290.7106
151 179.2187
173 53.4084
432 43.4430
491 195.5412
531 32.9046
563 283.6579
572 167.7882
629 7.0630
730 150.3012
826 244.4987
895 187.2546
921 79.7968
954 158.5892
1044 248.4179
1258 62.6632
1480 225.3708
1534 339.6797
1612 40.2819
1654 41.8224
1680 229.4609
1704 60.3298
1767 311.5187
1795 258.1184
1847 48.6972
1879 211.5031
1921 176.5575
1944 194.9185
1966 256.6081
1975 352.1755
2067 103.5317
2118 138.7523
2167 115.6761
2220 28.4145
2243 168.7543
2272 99.8740
2294 220.1180
2609 181.5417
2728 104.5729
2931 140.6805
3031 211.8682
3044 67.5251
3058 25.1846
3085 33.0163
3166 238.2211
3188 24.7780
3496 148.2711
3614 294.0847
3656 183.4369
3697 140.3580
3722 172.2372
3847 244.0825
3888 2.0458
4051 238.0152
4174 77.8817
4734 149.8537
4804 183.7602
4952 241.7350
5093 29.3273
5103 223.3278
5144 199.2991
5332 44.2308
5363 200.1634
5457 258.1484
5683 228.2050
5900 214.2470
6049 143.3138
6089 148.4363
6125 184.4489
6181 152.5361
6190 80.6450
6214 225.9750
6331 260.8078
6344 148.5566
6432 268.4582
7006 24.4254
7253 306.2022
7344 117.3279
7385 62.8957
7394 138.7519
7408 252.5900
7540 309.0728
7948 305.3138
8021 176.9578
8226 222.9534
8265 226.1895
8391 123.9061
8443 151.8156
8487 252.0774
8515 19.8577
8527 115.1594
8693 202.0209
8705 93.5272
8731 293.1327
8771 212.9948
8793 151.3108
8887 200.2829
8910 268.4718
8921 202.5545
8973 271.3026
8998 276.0931
PLANTSmolcadARTstart hb
PLANTSmolcadARTstart HB
LINES
PLANTSmolcadARTstart HBCH
LINES
PLANTSmolcadARTstart HB-CHO
LINES
PLANTSmolcadARTend
PLANTSmolcadARTstart HB_WATER
LINES
PLANTSmolcadARTend

PLANTSmolcadARTend

