@<TRIPOS>MOLECULE
aspirin_entry_00001_conf_92
20 20 1
SMALL
NO_CHARGES


@<TRIPOS>ATOM
      1 C         -24.2588  -44.0232    2.3416 C.3       1 UNL1        0.0000
      2 C         -23.0597  -43.4241    1.7027 C.2       1 UNL1        0.0000
      3 C         -20.6530  -43.0371    1.6940 C.ar      1 UNL1        0.0000
      4 C         -20.3189  -43.1608    0.3620 C.ar      1 UNL1        0.0000
      5 C         -19.1324  -42.6981   -0.1714 C.ar      1 UNL1        0.0000
      6 C         -18.2393  -42.0815    0.6710 C.ar      1 UNL1        0.0000
      7 C         -18.5227  -41.9319    2.0110 C.ar      1 UNL1        0.0000
      8 C         -19.7330  -42.4124    2.5134 C.ar      1 UNL1        0.0000
      9 C         -19.9935  -42.2338    3.9367 C.2       1 UNL1        0.0000
     10 O         -23.1106  -42.8177    0.5899 O.2       1 UNL1        0.0000
     11 O         -21.8155  -43.4800    2.2645 O.3       1 UNL1        0.0000
     12 O         -19.3014  -41.4425    4.6268 O.co2     1 UNL1       -0.5000
     13 O         -21.0056  -42.9258    4.5805 O.co2     1 UNL1       -0.5000
     14 H         -25.1143  -43.8544    1.7216 H         1 UNL1        0.0000
     15 H         -24.4166  -43.5705    3.2980 H         1 UNL1        0.0000
     16 H         -24.1086  -45.0751    2.4653 H         1 UNL1        0.0000
     17 H         -20.9910  -43.6234   -0.2695 H         1 UNL1        0.0000
     18 H         -18.9226  -42.8115   -1.1760 H         1 UNL1        0.0000
     19 H         -17.3454  -41.7267    0.2965 H         1 UNL1        0.0000
     20 H         -17.8468  -41.4674    2.6379 H         1 UNL1        0.0000
@<TRIPOS>BOND
     1    1    2 1
     2    1   14 1
     3    1   15 1
     4    1   16 1
     5    2   10 2
     6    2   11 1
     7    3    4 ar
     8    3    8 ar
     9    3   11 1
    10    4    5 ar
    11    4   17 1
    12    5    6 ar
    13    5   18 1
    14    6    7 ar
    15    6   19 1
    16    7    8 ar
    17    7   20 1
    18    8    9 1
    19    9   12 ar
    20    9   13 ar
@<TRIPOS>SUBSTRUCTURE
1 UNL1 1
@<TRIPOS>COMMENT
aspirin
PLANTSproteinTorsions
102
1 36.6031
42 283.8066
151 182.1982
173 176.2608
432 268.2702
491 172.9705
531 76.8659
563 159.2676
572 171.1694
629 127.5154
730 66.3004
826 132.3595
895 109.3885
921 212.8560
954 79.1479
1044 24.7029
1258 175.1443
1480 37.5767
1534 50.6046
1612 291.1746
1654 234.2098
1680 255.5615
1704 188.7921
1767 246.5854
1795 233.4207
1847 303.6582
1879 353.5251
1921 224.9305
1944 130.3306
1966 59.1382
1975 143.3253
2067 65.3112
2118 133.8207
2167 64.5285
2220 136.3611
2243 268.6513
2272 326.1480
2294 132.9617
2609 306.6368
2728 313.2766
2931 246.6883
3031 147.4102
3044 291.5201
3058 244.2825
3085 22.6410
3166 32.1867
3188 58.9789
3496 84.9889
3614 126.7986
3656 314.7243
3697 149.4488
3722 104.6879
3847 321.7064
3888 189.2644
4051 339.9250
4174 142.6116
4734 64.0368
4804 324.9937
4952 134.2908
5093 183.3809
5103 27.1059
5144 77.7750
5332 108.2124
5363 313.7266
5457 227.5768
5683 258.4981
5900 47.5882
6049 155.3835
6089 250.0706
6125 164.4246
6181 350.0528
6190 121.0037
6214 150.5697
6331 347.9770
6344 215.0083
6432 261.9435
7006 169.9182
7253 284.8136
7344 57.9450
7385 120.4847
7394 81.3101
7408 169.9223
7540 185.0550
7948 218.8905
8021 44.6441
8226 44.3843
8265 233.3128
8391 211.3121
8443 241.4528
8487 46.5165
8515 66.9078
8527 111.0670
8693 160.1738
8705 172.5586
8731 161.0962
8771 227.6641
8793 76.1458
8887 28.1828
8910 168.9662
8921 159.1595
8973 165.7470
8998 275.4996
PLANTSmolcadARTstart hb
PLANTSmolcadARTstart HB
LINES
PLANTSmolcadARTstart HBCH
LINES
-19.3014 -41.4425 4.62684 -17.42 -41.962 5.124 255 0 0 5
PLANTSmolcadARTstart HB-CHO
LINES
PLANTSmolcadARTend
PLANTSmolcadARTstart HB_WATER
LINES
PLANTSmolcadARTend

PLANTSmolcadARTend

