@<TRIPOS>MOLECULE
aspirin_entry_00001_conf_13
20 20 1
SMALL
NO_CHARGES


@<TRIPOS>ATOM
      1 C         -14.1236  -62.0413   -5.0323 C.3       1 UNL1        0.0000
      2 C         -14.1990  -62.4801   -3.6158 C.2       1 UNL1        0.0000
      3 C         -13.5169  -62.2122   -1.2909 C.ar      1 UNL1        0.0000
      4 C         -13.5264  -63.5167   -0.8449 C.ar      1 UNL1        0.0000
      5 C         -13.4791  -63.8652    0.4904 C.ar      1 UNL1        0.0000
      6 C         -13.4188  -62.8573    1.4220 C.ar      1 UNL1        0.0000
      7 C         -13.4072  -61.5361    1.0310 C.ar      1 UNL1        0.0000
      8 C         -13.4558  -61.2233   -0.3283 C.ar      1 UNL1        0.0000
      9 C         -13.4416  -59.8134   -0.6992 C.2       1 UNL1        0.0000
     10 O         -14.8607  -63.4989   -3.2512 O.2       1 UNL1        0.0000
     11 O         -13.5622  -61.8218   -2.6019 O.3       1 UNL1        0.0000
     12 O         -13.4892  -58.9132    0.1777 O.co2     1 UNL1       -0.5000
     13 O         -13.3776  -59.4130   -2.0233 O.co2     1 UNL1       -0.5000
     14 H         -14.6974  -62.7074   -5.6423 H         1 UNL1        0.0000
     15 H         -13.1036  -62.0519   -5.3549 H         1 UNL1        0.0000
     16 H         -14.5151  -61.0497   -5.1195 H         1 UNL1        0.0000
     17 H         -13.5709  -64.2726   -1.5458 H         1 UNL1        0.0000
     18 H         -13.4879  -64.8560    0.7806 H         1 UNL1        0.0000
     19 H         -13.3823  -63.0917    2.4264 H         1 UNL1        0.0000
     20 H         -13.3616  -60.7842    1.7368 H         1 UNL1        0.0000
@<TRIPOS>BOND
     1    1    2 1
     2    1   14 1
     3    1   15 1
     4    1   16 1
     5    2   10 2
     6    2   11 1
     7    3    4 ar
     8    3    8 ar
     9    3   11 1
    10    4    5 ar
    11    4   17 1
    12    5    6 ar
    13    5   18 1
    14    6    7 ar
    15    6   19 1
    16    7    8 ar
    17    7   20 1
    18    8    9 1
    19    9   12 ar
    20    9   13 ar
@<TRIPOS>SUBSTRUCTURE
1 UNL1 1
@<TRIPOS>COMMENT
aspirin
PLANTSproteinTorsions
102
1 17.9817
42 118.7151
151 39.5931
173 9.0198
432 244.1184
491 316.3745
531 135.7791
563 171.6360
572 66.6781
629 345.9294
730 45.5993
826 238.5295
895 252.5698
921 223.4495
954 42.9439
1044 46.0924
1258 126.2280
1480 218.4984
1534 76.6434
1612 217.7036
1654 270.6853
1680 96.8272
1704 147.8606
1767 282.1790
1795 83.1689
1847 115.9805
1879 184.5527
1921 217.4373
1944 254.2090
1966 113.3770
1975 225.1374
2067 326.0145
2118 61.0382
2167 82.2513
2220 278.6717
2243 131.9954
2272 58.8921
2294 15.7991
2609 156.8753
2728 191.9510
2931 57.0285
3031 42.1194
3044 88.2892
3058 47.0906
3085 119.7667
3166 43.5825
3188 154.6744
3496 156.9631
3614 302.5223
3656 335.9969
3697 31.5037
3722 209.8958
3847 35.1128
3888 8.2435
4051 187.5614
4174 131.8510
4734 31.1263
4804 334.6286
4952 348.8978
5093 257.2078
5103 258.4612
5144 292.0101
5332 233.9212
5363 88.9658
5457 25.2325
5683 80.2718
5900 102.5564
6049 165.5337
6089 73.9132
6125 185.8816
6181 216.3243
6190 116.4525
6214 238.6954
6331 212.2317
6344 339.2417
6432 268.4076
7006 255.3542
7253 181.4960
7344 210.7813
7385 23.0682
7394 178.2089
7408 50.7921
7540 231.0010
7948 207.1618
8021 222.2778
8226 140.5163
8265 271.7010
8391 271.8835
8443 149.1972
8487 267.3321
8515 28.0232
8527 242.3334
8693 221.3551
8705 27.5007
8731 59.5697
8771 279.2366
8793 21.5883
8887 224.3928
8910 180.1952
8921 282.8792
8973 171.5123
8998 136.5526
PLANTSmolcadARTstart hb
PLANTSmolcadARTstart HB
LINES
-13.3776 -59.413 -2.02327 -11.654 -59.599 -3.055 0 255 0 5
PLANTSmolcadARTstart HBCH
LINES
PLANTSmolcadARTstart HB-CHO
LINES
PLANTSmolcadARTend
PLANTSmolcadARTstart HB_WATER
LINES
PLANTSmolcadARTend

PLANTSmolcadARTend

