@<TRIPOS>MOLECULE
aspirin_entry_00001_conf_87
20 20 1
SMALL
NO_CHARGES


@<TRIPOS>ATOM
      1 C         -13.5119  -35.7871   11.4911 C.3       1 UNL1        0.0000
      2 C         -13.6227  -37.0627   10.7391 C.2       1 UNL1        0.0000
      3 C         -14.5772  -39.2951   10.5211 C.ar      1 UNL1        0.0000
      4 C         -14.7548  -39.3866    9.1569 C.ar      1 UNL1        0.0000
      5 C         -15.0194  -40.5729    8.5016 C.ar      1 UNL1        0.0000
      6 C         -15.1092  -41.7214    9.2501 C.ar      1 UNL1        0.0000
      7 C         -14.9406  -41.6865   10.6171 C.ar      1 UNL1        0.0000
      8 C         -14.6740  -40.4683   11.2439 C.ar      1 UNL1        0.0000
      9 C         -14.5023  -40.4754   12.6917 C.2       1 UNL1        0.0000
     10 O         -13.0810  -37.2358    9.6054 O.2       1 UNL1        0.0000
     11 O         -14.3137  -38.1428   11.2111 O.3       1 UNL1        0.0000
     12 O         -14.4062  -41.5567   13.3265 O.co2     1 UNL1       -0.5000
     13 O         -14.4408  -39.2991   13.4199 O.co2     1 UNL1       -0.5000
     14 H         -12.9259  -35.0914   10.9276 H         1 UNL1        0.0000
     15 H         -13.0401  -35.9692   12.4339 H         1 UNL1        0.0000
     16 H         -14.4889  -35.3830   11.6533 H         1 UNL1        0.0000
     17 H         -14.6863  -38.5233    8.5961 H         1 UNL1        0.0000
     18 H         -15.1453  -40.5961    7.4771 H         1 UNL1        0.0000
     19 H         -15.3059  -42.6208    8.7837 H         1 UNL1        0.0000
     20 H         -15.0093  -42.5536   11.1730 H         1 UNL1        0.0000
@<TRIPOS>BOND
     1    1    2 1
     2    1   14 1
     3    1   15 1
     4    1   16 1
     5    2   10 2
     6    2   11 1
     7    3    4 ar
     8    3    8 ar
     9    3   11 1
    10    4    5 ar
    11    4   17 1
    12    5    6 ar
    13    5   18 1
    14    6    7 ar
    15    6   19 1
    16    7    8 ar
    17    7   20 1
    18    8    9 1
    19    9   12 ar
    20    9   13 ar
@<TRIPOS>SUBSTRUCTURE
1 UNL1 1
@<TRIPOS>COMMENT
aspirin
PLANTSproteinTorsions
102
1 233.7297
42 59.9769
151 266.2968
173 292.8586
432 278.0989
491 178.8650
531 174.4160
563 117.1383
572 31.9268
629 178.9730
730 232.0670
826 236.4855
895 263.9422
921 69.5560
954 313.0677
1044 259.1862
1258 52.2926
1480 75.0577
1534 70.3259
1612 77.2531
1654 53.8067
1680 184.9807
1704 228.6506
1767 116.2476
1795 340.2152
1847 264.0481
1879 135.3280
1921 19.2021
1944 310.5009
1966 109.8257
1975 313.6183
2067 100.4910
2118 110.5413
2167 187.5897
2220 336.7464
2243 176.5370
2272 225.4360
2294 193.7108
2609 263.0698
2728 79.1655
2931 283.1082
3031 197.4429
3044 164.9925
3058 176.8904
3085 46.4040
3166 263.1590
3188 267.8065
3496 268.9784
3614 56.0859
3656 30.4051
3697 4.9733
3722 17.5708
3847 348.9960
3888 131.2541
4051 304.7234
4174 110.0476
4734 134.9735
4804 276.9013
4952 156.3220
5093 192.8468
5103 218.1388
5144 58.1830
5332 11.1713
5363 112.6914
5457 228.6194
5683 188.5341
5900 33.1565
6049 52.2724
6089 192.5968
6125 6.5740
6181 246.6033
6190 191.6614
6214 177.1301
6331 174.5717
6344 198.4663
6432 105.8152
7006 259.1055
7253 210.4558
7344 114.5439
7385 138.6640
7394 74.2154
7408 13.4583
7540 160.1310
7948 260.3407
8021 141.2375
8226 2.3756
8265 121.7478
8391 57.1150
8443 65.7113
8487 325.3095
8515 312.5339
8527 299.5635
8693 58.4960
8705 60.1887
8731 201.6283
8771 154.0057
8793 239.6720
8887 117.4645
8910 145.9193
8921 146.1816
8973 160.1069
8998 259.1250
PLANTSmolcadARTstart hb
PLANTSmolcadARTstart HB
LINES
PLANTSmolcadARTstart HBCH
LINES
PLANTSmolcadARTstart HB-CHO
LINES
PLANTSmolcadARTend
PLANTSmolcadARTstart HB_WATER
LINES
PLANTSmolcadARTend

PLANTSmolcadARTend

