@<TRIPOS>MOLECULE
aspirin_entry_00001_conf_48
20 20 1
SMALL
NO_CHARGES


@<TRIPOS>ATOM
      1 C         -13.6176  -65.6562   -2.7654 C.3       1 UNL1        0.0000
      2 C         -13.7461  -64.1955   -2.5320 C.2       1 UNL1        0.0000
      3 C         -13.5441  -62.2778   -1.0408 C.ar      1 UNL1        0.0000
      4 C         -13.2438  -61.2095   -1.8591 C.ar      1 UNL1        0.0000
      5 C         -13.4355  -59.8921   -1.4924 C.ar      1 UNL1        0.0000
      6 C         -13.9536  -59.6345   -0.2464 C.ar      1 UNL1        0.0000
      7 C         -14.2708  -60.6649    0.6116 C.ar      1 UNL1        0.0000
      8 C         -14.0632  -61.9838    0.2051 C.ar      1 UNL1        0.0000
      9 C         -14.4122  -63.0440    1.1431 C.2       1 UNL1        0.0000
     10 O         -14.2151  -63.4036   -3.4047 O.2       1 UNL1        0.0000
     11 O         -13.3708  -63.5967   -1.3626 O.3       1 UNL1        0.0000
     12 O         -15.1439  -62.8116    2.1392 O.co2     1 UNL1       -0.5000
     13 O         -13.9527  -64.3395    0.9760 O.co2     1 UNL1       -0.5000
     14 H         -13.9737  -65.8927   -3.7463 H         1 UNL1        0.0000
     15 H         -14.1972  -66.1856   -2.0384 H         1 UNL1        0.0000
     16 H         -12.5903  -65.9418   -2.6793 H         1 UNL1        0.0000
     17 H         -12.8554  -61.4047   -2.7948 H         1 UNL1        0.0000
     18 H         -13.1969  -59.1220   -2.1374 H         1 UNL1        0.0000
     19 H         -14.1065  -58.6582    0.0512 H         1 UNL1        0.0000
     20 H         -14.6599  -60.4635    1.5464 H         1 UNL1        0.0000
@<TRIPOS>BOND
     1    1    2 1
     2    1   14 1
     3    1   15 1
     4    1   16 1
     5    2   10 2
     6    2   11 1
     7    3    4 ar
     8    3    8 ar
     9    3   11 1
    10    4    5 ar
    11    4   17 1
    12    5    6 ar
    13    5   18 1
    14    6    7 ar
    15    6   19 1
    16    7    8 ar
    17    7   20 1
    18    8    9 1
    19    9   12 ar
    20    9   13 ar
@<TRIPOS>SUBSTRUCTURE
1 UNL1 1
@<TRIPOS>COMMENT
aspirin
PLANTSproteinTorsions
102
1 25.9517
42 4.4882
151 241.4405
173 185.0359
432 122.0073
491 44.4335
531 140.2556
563 254.9484
572 192.0431
629 200.2170
730 295.5512
826 25.6575
895 332.0403
921 218.7921
954 47.5320
1044 195.5300
1258 123.5394
1480 53.2491
1534 91.4993
1612 215.6639
1654 221.6289
1680 67.3394
1704 54.5054
1767 284.6075
1795 77.3896
1847 116.1536
1879 239.3929
1921 250.3654
1944 218.9759
1966 42.5330
1975 190.0372
2067 8.8582
2118 62.3140
2167 66.1080
2220 292.1126
2243 336.7540
2272 58.3759
2294 353.6046
2609 132.5852
2728 237.8849
2931 52.7135
3031 47.5782
3044 83.8645
3058 308.5265
3085 160.7175
3166 51.3767
3188 129.8362
3496 147.2671
3614 292.9275
3656 266.3704
3697 8.3572
3722 63.0438
3847 37.4298
3888 7.4579
4051 169.1203
4174 39.6049
4734 146.0640
4804 199.4068
4952 111.6046
5093 67.9331
5103 266.9017
5144 157.8128
5332 252.1585
5363 89.9096
5457 268.5699
5683 16.8346
5900 82.4995
6049 186.7600
6089 240.4893
6125 126.2681
6181 248.0477
6190 72.2456
6214 263.0055
6331 237.0214
6344 123.3648
6432 174.7484
7006 271.6824
7253 180.0649
7344 63.5431
7385 49.2509
7394 67.4365
7408 275.2687
7540 256.8831
7948 17.9530
8021 224.0882
8226 162.6779
8265 169.5777
8391 124.1558
8443 96.3008
8487 40.7031
8515 266.4513
8527 206.5101
8693 224.9930
8705 27.6422
8731 207.4545
8771 172.0427
8793 297.0623
8887 10.7916
8910 260.0898
8921 308.4493
8973 235.2293
8998 344.3158
PLANTSmolcadARTstart hb
PLANTSmolcadARTstart HB
LINES
PLANTSmolcadARTstart HBCH
LINES
PLANTSmolcadARTstart HB-CHO
LINES
PLANTSmolcadARTend
PLANTSmolcadARTstart HB_WATER
LINES
PLANTSmolcadARTend

PLANTSmolcadARTend

