@<TRIPOS>MOLECULE
aspirin_entry_00001_conf_85
20 20 1
SMALL
NO_CHARGES


@<TRIPOS>ATOM
      1 C         -23.8071  -47.2415  -10.0897 C.3       1 UNL1        0.0000
      2 C         -24.7850  -46.2387  -10.5825 C.2       1 UNL1        0.0000
      3 C         -23.3358  -44.2915  -10.3580 C.ar      1 UNL1        0.0000
      4 C         -22.1169  -44.8335  -10.7064 C.ar      1 UNL1        0.0000
      5 C         -20.9120  -44.1894  -10.5059 C.ar      1 UNL1        0.0000
      6 C         -20.9312  -42.9425   -9.9294 C.ar      1 UNL1        0.0000
      7 C         -22.1217  -42.3545   -9.5616 C.ar      1 UNL1        0.0000
      8 C         -23.3195  -43.0367   -9.7806 C.ar      1 UNL1        0.0000
      9 C         -24.5565  -42.3791   -9.3768 C.2       1 UNL1        0.0000
     10 O         -25.9060  -46.5649  -11.0784 O.2       1 UNL1        0.0000
     11 O         -24.5518  -44.8931  -10.5380 O.3       1 UNL1        0.0000
     12 O         -24.5677  -41.1635   -9.0547 O.co2     1 UNL1       -0.5000
     13 O         -25.7593  -43.0636   -9.3306 O.co2     1 UNL1       -0.5000
     14 H         -24.2065  -48.2249  -10.2258 H         1 UNL1        0.0000
     15 H         -23.6183  -47.0741   -9.0501 H         1 UNL1        0.0000
     16 H         -22.8934  -47.1475  -10.6379 H         1 UNL1        0.0000
     17 H         -22.1042  -45.7697  -11.1399 H         1 UNL1        0.0000
     18 H         -20.0214  -44.6324  -10.7826 H         1 UNL1        0.0000
     19 H         -20.0439  -42.4402   -9.7693 H         1 UNL1        0.0000
     20 H         -22.1283  -41.4172   -9.1290 H         1 UNL1        0.0000
@<TRIPOS>BOND
     1    1    2 1
     2    1   14 1
     3    1   15 1
     4    1   16 1
     5    2   10 2
     6    2   11 1
     7    3    4 ar
     8    3    8 ar
     9    3   11 1
    10    4    5 ar
    11    4   17 1
    12    5    6 ar
    13    5   18 1
    14    6    7 ar
    15    6   19 1
    16    7    8 ar
    17    7   20 1
    18    8    9 1
    19    9   12 ar
    20    9   13 ar
@<TRIPOS>SUBSTRUCTURE
1 UNL1 1
@<TRIPOS>COMMENT
aspirin
PLANTSproteinTorsions
102
1 51.4964
42 189.6630
151 80.9758
173 141.4087
432 146.0191
491 26.1599
531 133.1954
563 101.4369
572 44.0354
629 99.7803
730 158.8929
826 97.8804
895 32.6045
921 112.0880
954 67.7341
1044 23.3709
1258 158.6381
1480 93.0520
1534 92.4970
1612 190.8192
1654 302.2332
1680 233.1785
1704 156.5933
1767 83.8949
1795 91.7651
1847 238.5433
1879 220.3847
1921 26.4097
1944 11.5730
1966 30.4623
1975 37.2216
2067 76.7853
2118 237.5738
2167 354.8372
2220 339.0362
2243 323.4144
2272 58.3996
2294 239.6120
2609 176.6629
2728 120.0174
2931 175.0147
3031 31.7531
3044 164.8023
3058 39.5938
3085 353.1102
3166 18.3600
3188 339.0972
3496 322.3812
3614 351.3734
3656 313.8387
3697 203.5577
3722 58.7059
3847 201.4755
3888 338.5768
4051 205.2888
4174 58.1079
4734 120.8877
4804 265.5599
4952 151.7381
5093 243.0800
5103 86.5944
5144 292.6473
5332 10.9106
5363 68.3206
5457 259.6509
5683 27.5851
5900 77.9108
6049 201.7576
6089 156.9112
6125 70.0328
6181 41.8740
6190 167.7961
6214 185.8395
6331 284.4041
6344 154.0957
6432 263.5389
7006 269.1897
7253 271.6115
7344 95.7743
7385 284.6115
7394 293.9781
7408 281.9850
7540 213.6447
7948 166.9864
8021 160.2102
8226 178.6597
8265 31.2768
8391 112.3611
8443 80.1354
8487 65.4402
8515 304.2915
8527 60.7397
8693 223.3546
8705 214.2962
8731 225.7005
8771 137.1060
8793 207.3186
8887 94.4052
8910 213.2821
8921 62.2890
8973 257.0046
8998 200.2883
PLANTSmolcadARTstart hb
PLANTSmolcadARTstart HB
LINES
-25.906 -46.5649 -11.0784 -26.527 -46.112 -13.089 0 255 0 5
-25.906 -46.5649 -11.0784 -26.9909 -47.6208 -9.917 0 255 0 5
PLANTSmolcadARTstart HBCH
LINES
PLANTSmolcadARTstart HB-CHO
LINES
PLANTSmolcadARTend
PLANTSmolcadARTstart HB_WATER
LINES
PLANTSmolcadARTend

PLANTSmolcadARTend

