@<TRIPOS>MOLECULE
aspirin_entry_00001_conf_100
20 20 1
SMALL
NO_CHARGES


@<TRIPOS>ATOM
      1 C         -63.3417  -39.3529  -13.2607 C.3       1 UNL1        0.0000
      2 C         -63.5088  -39.8781  -11.8819 C.2       1 UNL1        0.0000
      3 C         -62.5925  -41.0403   -9.9449 C.ar      1 UNL1        0.0000
      4 C         -62.8214  -42.3682   -9.6528 C.ar      1 UNL1        0.0000
      5 C         -62.9024  -42.8615   -8.3656 C.ar      1 UNL1        0.0000
      6 C         -62.7457  -41.9812   -7.3225 C.ar      1 UNL1        0.0000
      7 C         -62.5154  -40.6433   -7.5582 C.ar      1 UNL1        0.0000
      8 C         -62.4396  -40.1822   -8.8733 C.ar      1 UNL1        0.0000
      9 C         -62.1946  -38.7597   -9.0786 C.2       1 UNL1        0.0000
     10 O         -64.5983  -39.7769  -11.2404 O.2       1 UNL1        0.0000
     11 O         -62.5046  -40.5087  -11.2030 O.3       1 UNL1        0.0000
     12 O         -62.2621  -37.9468   -8.1215 O.co2     1 UNL1       -0.5000
     13 O         -61.8819  -38.2512  -10.3281 O.co2     1 UNL1       -0.5000
     14 H         -64.2575  -38.9037  -13.5839 H         1 UNL1        0.0000
     15 H         -63.0866  -40.1563  -13.9195 H         1 UNL1        0.0000
     16 H         -62.5613  -38.6214  -13.2712 H         1 UNL1        0.0000
     17 H         -62.9381  -43.0281  -10.4372 H         1 UNL1        0.0000
     18 H         -63.0751  -43.8645   -8.1920 H         1 UNL1        0.0000
     19 H         -62.8017  -42.3253   -6.3511 H         1 UNL1        0.0000
     20 H         -62.3985  -39.9879   -6.7693 H         1 UNL1        0.0000
@<TRIPOS>BOND
     1    1    2 1
     2    1   14 1
     3    1   15 1
     4    1   16 1
     5    2   10 2
     6    2   11 1
     7    3    4 ar
     8    3    8 ar
     9    3   11 1
    10    4    5 ar
    11    4   17 1
    12    5    6 ar
    13    5   18 1
    14    6    7 ar
    15    6   19 1
    16    7    8 ar
    17    7   20 1
    18    8    9 1
    19    9   12 ar
    20    9   13 ar
@<TRIPOS>SUBSTRUCTURE
1 UNL1 1
@<TRIPOS>COMMENT
aspirin
PLANTSproteinTorsions
102
1 237.8858
42 124.9565
151 240.6241
173 163.7116
432 71.7184
491 55.2982
531 129.9568
563 116.1955
572 146.9829
629 174.9628
730 333.5753
826 314.5834
895 138.0207
921 40.9023
954 68.2279
1044 142.7632
1258 224.7206
1480 320.9368
1534 270.0380
1612 178.7565
1654 311.0283
1680 191.2896
1704 213.0201
1767 285.1964
1795 73.8429
1847 113.5115
1879 185.5618
1921 79.6415
1944 185.1390
1966 64.1185
1975 243.7285
2067 217.0006
2118 278.5811
2167 168.4372
2220 306.1850
2243 120.7736
2272 281.4331
2294 53.1408
2609 148.0259
2728 211.1183
2931 249.3759
3031 55.8543
3044 203.5335
3058 222.0787
3085 86.7359
3166 50.5609
3188 212.5430
3496 124.7603
3614 296.4287
3656 149.6040
3697 51.8945
3722 202.7764
3847 52.1534
3888 53.5957
4051 79.9458
4174 11.6723
4734 38.8066
4804 196.4966
4952 119.1159
5093 251.9888
5103 168.2778
5144 173.2778
5332 129.2039
5363 253.0635
5457 14.7232
5683 154.9380
5900 197.2035
6049 158.7322
6089 178.2173
6125 189.5558
6181 143.8765
6190 60.4599
6214 260.3691
6331 228.3995
6344 34.2681
6432 263.5790
7006 32.9775
7253 48.8350
7344 282.2881
7385 352.6908
7394 202.7484
7408 76.1899
7540 113.1510
7948 91.4696
8021 167.3001
8226 135.1870
8265 180.5765
8391 115.9037
8443 46.9806
8487 292.6787
8515 49.8685
8527 214.1527
8693 241.6582
8705 128.6839
8731 173.3737
8771 220.2246
8793 271.1747
8887 20.7237
8910 47.8708
8921 144.4224
8973 84.6451
8998 196.5943
PLANTSmolcadARTstart hb
PLANTSmolcadARTstart HB
LINES
PLANTSmolcadARTstart HBCH
LINES
PLANTSmolcadARTstart HB-CHO
LINES
PLANTSmolcadARTend
PLANTSmolcadARTstart HB_WATER
LINES
PLANTSmolcadARTend

PLANTSmolcadARTend

