@<TRIPOS>MOLECULE
aspirin_entry_00001_conf_98
20 20 1
SMALL
NO_CHARGES


@<TRIPOS>ATOM
      1 C         -32.6579  -43.2569    3.2744 C.3       1 UNL1        0.0000
      2 C         -33.6878  -44.3187    3.1453 C.2       1 UNL1        0.0000
      3 C         -33.4573  -45.1801    5.4141 C.ar      1 UNL1        0.0000
      4 C         -33.1017  -44.0959    6.1880 C.ar      1 UNL1        0.0000
      5 C         -32.4891  -44.2083    7.4204 C.ar      1 UNL1        0.0000
      6 C         -32.2215  -45.4679    7.8991 C.ar      1 UNL1        0.0000
      7 C         -32.5554  -46.5859    7.1663 C.ar      1 UNL1        0.0000
      8 C         -33.1740  -46.4319    5.9247 C.ar      1 UNL1        0.0000
      9 C         -33.5106  -47.6404    5.1818 C.2       1 UNL1        0.0000
     10 O         -34.2875  -44.5587    2.0538 O.2       1 UNL1        0.0000
     11 O         -34.0650  -45.1153    4.1895 O.3       1 UNL1        0.0000
     12 O         -33.4141  -48.7754    5.7147 O.co2     1 UNL1       -0.5000
     13 O         -33.9449  -47.5860    3.8680 O.co2     1 UNL1       -0.5000
     14 H         -32.5302  -42.7683    2.3311 H         1 UNL1        0.0000
     15 H         -31.7302  -43.6953    3.5773 H         1 UNL1        0.0000
     16 H         -32.9714  -42.5436    4.0073 H         1 UNL1        0.0000
     17 H         -33.3041  -43.1506    5.8274 H         1 UNL1        0.0000
     18 H         -32.2401  -43.3688    7.9674 H         1 UNL1        0.0000
     19 H         -31.7644  -45.5786    8.8178 H         1 UNL1        0.0000
     20 H         -32.3512  -47.5292    7.5326 H         1 UNL1        0.0000
@<TRIPOS>BOND
     1    1    2 1
     2    1   14 1
     3    1   15 1
     4    1   16 1
     5    2   10 2
     6    2   11 1
     7    3    4 ar
     8    3    8 ar
     9    3   11 1
    10    4    5 ar
    11    4   17 1
    12    5    6 ar
    13    5   18 1
    14    6    7 ar
    15    6   19 1
    16    7    8 ar
    17    7   20 1
    18    8    9 1
    19    9   12 ar
    20    9   13 ar
@<TRIPOS>SUBSTRUCTURE
1 UNL1 1
@<TRIPOS>COMMENT
aspirin
PLANTSproteinTorsions
102
1 36.5782
42 114.9254
151 187.0175
173 71.2185
432 357.0292
491 164.0947
531 108.6141
563 59.8327
572 69.3574
629 145.4677
730 153.1487
826 102.7578
895 208.6259
921 153.0522
954 10.3207
1044 249.1967
1258 96.4846
1480 57.5832
1534 118.2623
1612 223.9526
1654 159.0125
1680 125.5939
1704 134.1589
1767 21.2904
1795 192.5977
1847 347.0684
1879 234.9499
1921 15.8258
1944 256.1465
1966 247.5869
1975 329.6202
2067 203.3681
2118 175.8217
2167 329.6981
2220 258.4170
2243 207.1814
2272 87.9675
2294 99.0069
2609 183.5411
2728 156.2477
2931 137.2110
3031 262.3888
3044 139.0749
3058 104.9414
3085 31.0340
3166 11.2209
3188 5.2010
3496 80.7593
3614 116.7912
3656 208.0432
3697 12.6224
3722 145.8427
3847 74.9874
3888 96.5154
4051 240.0854
4174 45.0575
4734 211.6253
4804 202.7748
4952 148.0133
5093 1.0197
5103 312.5330
5144 131.0444
5332 280.5110
5363 176.8956
5457 71.7431
5683 312.5399
5900 214.3170
6049 142.7524
6089 270.0651
6125 140.3471
6181 154.8355
6190 98.7895
6214 332.4746
6331 257.1803
6344 330.7703
6432 258.9359
7006 71.4430
7253 153.0633
7344 107.9776
7385 136.8286
7394 216.8367
7408 193.3316
7540 105.1243
7948 86.4214
8021 186.3024
8226 62.5140
8265 253.0270
8391 263.6431
8443 172.4457
8487 190.6148
8515 82.9673
8527 102.7251
8693 253.4437
8705 135.2372
8731 216.0095
8771 175.5884
8793 180.9534
8887 45.9835
8910 94.8754
8921 224.9490
8973 133.2250
8998 125.1636
PLANTSmolcadARTstart hb
PLANTSmolcadARTstart HB
LINES
-33.9449 -47.586 3.86803 -33.987 -47.063 1.9819 0 255 0 5
PLANTSmolcadARTstart HBCH
LINES
PLANTSmolcadARTstart HB-CHO
LINES
PLANTSmolcadARTend
PLANTSmolcadARTstart HB_WATER
LINES
PLANTSmolcadARTend

PLANTSmolcadARTend

