@<TRIPOS>MOLECULE
aspirin_entry_00001_conf_59
20 20 1
SMALL
NO_CHARGES


@<TRIPOS>ATOM
      1 C          -0.1486  -38.1046   -4.9733 C.3       1 UNL1        0.0000
      2 C           0.1415  -38.7520   -3.6688 C.2       1 UNL1        0.0000
      3 C          -0.3774  -38.9955   -1.2995 C.ar      1 UNL1        0.0000
      4 C          -0.3497  -40.3663   -1.1542 C.ar      1 UNL1        0.0000
      5 C          -0.3211  -41.0015    0.0715 C.ar      1 UNL1        0.0000
      6 C          -0.3194  -40.2248    1.2047 C.ar      1 UNL1        0.0000
      7 C          -0.3469  -38.8501    1.1166 C.ar      1 UNL1        0.0000
      8 C          -0.3750  -38.2442   -0.1404 C.ar      1 UNL1        0.0000
      9 C          -0.4035  -36.7874   -0.1890 C.2       1 UNL1        0.0000
     10 O           0.9201  -39.7473   -3.5591 O.2       1 UNL1        0.0000
     11 O          -0.4062  -38.3248   -2.4922 O.3       1 UNL1        0.0000
     12 O          -0.1798  -36.1011    0.8408 O.co2     1 UNL1       -0.5000
     13 O          -0.6784  -36.1068   -1.3632 O.co2     1 UNL1       -0.5000
     14 H           0.3910  -38.6079   -5.7482 H         1 UNL1        0.0000
     15 H           0.1534  -37.0789   -4.9370 H         1 UNL1        0.0000
     16 H          -1.1979  -38.1607   -5.1734 H         1 UNL1        0.0000
     17 H          -0.3502  -40.9482   -2.0062 H         1 UNL1        0.0000
     18 H          -0.3005  -42.0319    0.1345 H         1 UNL1        0.0000
     19 H          -0.2980  -40.6757    2.1328 H         1 UNL1        0.0000
     20 H          -0.3453  -38.2730    1.9726 H         1 UNL1        0.0000
@<TRIPOS>BOND
     1    1    2 1
     2    1   14 1
     3    1   15 1
     4    1   16 1
     5    2   10 2
     6    2   11 1
     7    3    4 ar
     8    3    8 ar
     9    3   11 1
    10    4    5 ar
    11    4   17 1
    12    5    6 ar
    13    5   18 1
    14    6    7 ar
    15    6   19 1
    16    7    8 ar
    17    7   20 1
    18    8    9 1
    19    9   12 ar
    20    9   13 ar
@<TRIPOS>SUBSTRUCTURE
1 UNL1 1
@<TRIPOS>COMMENT
aspirin
PLANTSproteinTorsions
102
1 244.2345
42 218.4307
151 353.2004
173 338.0013
432 327.5424
491 62.8673
531 327.1595
563 157.3393
572 65.3441
629 218.4460
730 145.5946
826 184.5853
895 131.5629
921 26.5429
954 67.4989
1044 276.5468
1258 45.4703
1480 117.4591
1534 66.4385
1612 11.4263
1654 30.4099
1680 125.4335
1704 221.4216
1767 201.4043
1795 270.3901
1847 120.3634
1879 118.2764
1921 235.2702
1944 12.2503
1966 70.2494
1975 15.2942
2067 111.2830
2118 137.2712
2167 108.2562
2220 249.2445
2243 83.2235
2272 348.3638
2294 86.1258
2609 28.1221
2728 212.1312
2931 54.1183
3031 211.1752
3044 189.1661
3058 217.1686
3085 312.5256
3166 201.1746
3188 253.1757
3496 120.1782
3614 157.1848
3656 210.2176
3697 352.3573
3722 135.2330
3847 131.2437
3888 18.2510
4051 8.2646
4174 114.2832
4734 122.2985
4804 272.0635
4952 19.3050
5093 140.3336
5103 85.3804
5144 192.4096
5332 258.9906
5363 74.7510
5457 18.6536
5683 95.5621
5900 229.4859
6049 44.3977
6089 269.0328
6125 83.2626
6181 38.2034
6190 89.1514
6214 192.1115
6331 117.0622
6344 113.5250
6432 218.8141
7006 183.7929
7253 152.7779
7344 134.7670
7385 107.7597
7394 167.7584
7408 63.7546
7540 170.7712
7948 247.6759
8021 94.6883
8226 22.6543
8265 88.6846
8391 75.7163
8443 68.7505
8487 144.2826
8515 249.2484
8527 36.2048
8693 120.1823
8705 52.1522
8731 225.1442
8771 177.9137
8793 118.8086
8887 125.6240
8910 173.4644
8921 144.3683
8973 149.2453
8998 180.1460
PLANTSmolcadARTstart hb
PLANTSmolcadARTstart HB
LINES
PLANTSmolcadARTstart HBCH
LINES
PLANTSmolcadARTstart HB-CHO
LINES
PLANTSmolcadARTend
PLANTSmolcadARTstart HB_WATER
LINES
PLANTSmolcadARTend

PLANTSmolcadARTend

