@<TRIPOS>MOLECULE
aspirin_entry_00001_conf_90
20 20 1
SMALL
NO_CHARGES


@<TRIPOS>ATOM
      1 C         -14.5031  -71.8072   -7.7229 C.3       1 UNL1        0.0000
      2 C         -14.9845  -71.1669   -8.9731 C.2       1 UNL1        0.0000
      3 C         -14.6574  -69.5625  -10.7790 C.ar      1 UNL1        0.0000
      4 C         -15.4068  -70.1090  -11.7992 C.ar      1 UNL1        0.0000
      5 C         -15.7810  -69.4082  -12.9286 C.ar      1 UNL1        0.0000
      6 C         -15.3854  -68.0972  -13.0392 C.ar      1 UNL1        0.0000
      7 C         -14.6348  -67.5018  -12.0490 C.ar      1 UNL1        0.0000
      8 C         -14.2762  -68.2425  -10.9218 C.ar      1 UNL1        0.0000
      9 C         -13.4819  -67.5747   -9.8978 C.2       1 UNL1        0.0000
     10 O         -16.0996  -71.4573   -9.5030 O.2       1 UNL1        0.0000
     11 O         -14.2648  -70.2188   -9.6440 O.3       1 UNL1        0.0000
     12 O         -13.3012  -66.3305   -9.9281 O.co2     1 UNL1       -0.5000
     13 O         -12.8973  -68.2802   -8.8595 O.co2     1 UNL1       -0.5000
     14 H         -15.2314  -72.5125   -7.3809 H         1 UNL1        0.0000
     15 H         -14.3531  -71.0582   -6.9738 H         1 UNL1        0.0000
     16 H         -13.5790  -72.3111   -7.9135 H         1 UNL1        0.0000
     17 H         -15.7038  -71.0934  -11.7143 H         1 UNL1        0.0000
     18 H         -16.3435  -69.8569  -13.6691 H         1 UNL1        0.0000
     19 H         -15.6526  -67.5518  -13.8737 H         1 UNL1        0.0000
     20 H         -14.3413  -66.5162  -12.1391 H         1 UNL1        0.0000
@<TRIPOS>BOND
     1    1    2 1
     2    1   14 1
     3    1   15 1
     4    1   16 1
     5    2   10 2
     6    2   11 1
     7    3    4 ar
     8    3    8 ar
     9    3   11 1
    10    4    5 ar
    11    4   17 1
    12    5    6 ar
    13    5   18 1
    14    6    7 ar
    15    6   19 1
    16    7    8 ar
    17    7   20 1
    18    8    9 1
    19    9   12 ar
    20    9   13 ar
@<TRIPOS>SUBSTRUCTURE
1 UNL1 1
@<TRIPOS>COMMENT
aspirin
PLANTSproteinTorsions
102
1 78.7716
42 197.3162
151 18.9108
173 159.8226
432 83.0018
491 350.3167
531 188.0442
563 132.2531
572 39.7875
629 339.6053
730 314.0466
826 76.4903
895 203.7556
921 23.4501
954 295.8939
1044 190.6508
1258 142.8300
1480 12.6978
1534 255.0757
1612 55.5259
1654 351.4698
1680 81.7711
1704 115.5321
1767 37.0141
1795 295.6229
1847 342.6251
1879 218.1755
1921 117.9230
1944 309.1251
1966 174.3279
1975 350.4960
2067 235.5671
2118 77.9640
2167 289.1385
2220 280.7964
2243 210.6286
2272 350.5535
2294 243.4055
2609 183.1859
2728 213.0460
2931 74.7852
3031 112.6613
3044 39.9186
3058 65.1533
3085 68.6730
3166 77.3103
3188 260.9957
3496 218.1637
3614 3.6629
3656 68.1043
3697 191.1847
3722 246.3776
3847 255.1535
3888 256.2116
4051 42.2882
4174 267.3116
4734 212.3507
4804 151.0870
4952 18.6777
5093 310.0761
5103 235.8063
5144 139.6125
5332 218.8116
5363 304.7753
5457 71.0495
5683 79.9567
5900 309.4702
6049 56.4713
6089 63.5369
6125 16.7121
6181 162.8344
6190 229.6725
6214 352.6902
6331 1.1237
6344 139.1816
6432 239.4230
7006 84.3331
7253 261.1593
7344 65.7781
7385 300.7422
7394 78.2778
7408 30.1271
7540 163.8716
7948 165.0851
8021 109.8925
8226 280.6729
8265 56.4855
8391 314.6768
8443 332.1053
8487 321.6304
8515 31.5836
8527 141.6165
8693 155.3204
8705 330.0211
8731 68.1006
8771 182.3318
8793 134.1232
8887 174.1494
8910 130.2699
8921 288.2655
8973 93.5158
8998 169.7440
PLANTSmolcadARTstart hb
PLANTSmolcadARTstart HB
LINES
PLANTSmolcadARTstart HBCH
LINES
PLANTSmolcadARTstart HB-CHO
LINES
PLANTSmolcadARTend
PLANTSmolcadARTstart HB_WATER
LINES
PLANTSmolcadARTend

PLANTSmolcadARTend

