@<TRIPOS>MOLECULE
aspirin_entry_00001_conf_56
20 20 1
SMALL
NO_CHARGES


@<TRIPOS>ATOM
      1 C         -41.1827  -32.8531  -13.2557 C.3       1 UNL1        0.0000
      2 C         -40.4934  -31.8945  -12.3552 C.2       1 UNL1        0.0000
      3 C         -40.9233  -33.1327  -10.3000 C.ar      1 UNL1        0.0000
      4 C         -40.9395  -34.4446  -10.7239 C.ar      1 UNL1        0.0000
      5 C         -41.4706  -35.4789   -9.9790 C.ar      1 UNL1        0.0000
      6 C         -42.0100  -35.1831   -8.7506 C.ar      1 UNL1        0.0000
      7 C         -42.0203  -33.8886   -8.2788 C.ar      1 UNL1        0.0000
      8 C         -41.4736  -32.8698   -9.0606 C.ar      1 UNL1        0.0000
      9 C         -41.5047  -31.5145   -8.5242 C.2       1 UNL1        0.0000
     10 O         -39.9365  -30.8376  -12.7813 O.2       1 UNL1        0.0000
     11 O         -40.4083  -32.0780  -11.0039 O.3       1 UNL1        0.0000
     12 O         -41.8209  -31.2998   -7.3261 O.co2     1 UNL1       -0.5000
     13 O         -41.1911  -30.4174   -9.3088 O.co2     1 UNL1       -0.5000
     14 H         -41.1214  -32.5011  -14.2643 H         1 UNL1        0.0000
     15 H         -42.2100  -32.9358  -12.9687 H         1 UNL1        0.0000
     16 H         -40.7135  -33.8115  -13.1822 H         1 UNL1        0.0000
     17 H         -40.5333  -34.6652  -11.6463 H         1 UNL1        0.0000
     18 H         -41.4615  -36.4480  -10.3350 H         1 UNL1        0.0000
     19 H         -42.4130  -35.9387   -8.1745 H         1 UNL1        0.0000
     20 H         -42.4273  -33.6740   -7.3547 H         1 UNL1        0.0000
@<TRIPOS>BOND
     1    1    2 1
     2    1   14 1
     3    1   15 1
     4    1   16 1
     5    2   10 2
     6    2   11 1
     7    3    4 ar
     8    3    8 ar
     9    3   11 1
    10    4    5 ar
    11    4   17 1
    12    5    6 ar
    13    5   18 1
    14    6    7 ar
    15    6   19 1
    16    7    8 ar
    17    7   20 1
    18    8    9 1
    19    9   12 ar
    20    9   13 ar
@<TRIPOS>SUBSTRUCTURE
1 UNL1 1
@<TRIPOS>COMMENT
aspirin
PLANTSproteinTorsions
102
1 201.8341
42 54.6988
151 154.1180
173 253.0272
432 22.4751
491 216.1379
531 338.7209
563 146.5488
572 23.5998
629 178.9180
730 154.8934
826 217.5311
895 200.7031
921 314.0695
954 198.7501
1044 129.3239
1258 354.2999
1480 225.8873
1534 285.9059
1612 255.9962
1654 175.6268
1680 181.3459
1704 228.3002
1767 54.5263
1795 118.0764
1847 353.8409
1879 188.0471
1921 28.3316
1944 101.5194
1966 225.8633
1975 38.5080
2067 227.3028
2118 92.3791
2167 103.0719
2220 203.5136
2243 23.3531
2272 225.4140
2294 30.0383
2609 25.5227
2728 206.8847
2931 50.1559
3031 150.1727
3044 146.4559
3058 201.3300
3085 261.4297
3166 318.7380
3188 222.8825
3496 124.1474
3614 308.6032
3656 243.2278
3697 202.0334
3722 133.0594
3847 246.7367
3888 106.7987
4051 182.0993
4174 231.2384
4734 201.2439
4804 46.6569
4952 172.1868
5093 26.3419
5103 216.1967
5144 90.9922
5332 308.9494
5363 110.1168
5457 229.4568
5683 24.8191
5900 174.4171
6049 255.1876
6089 110.2658
6125 230.3763
6181 177.8423
6190 197.5058
6214 152.7549
6331 100.9941
6344 98.5653
6432 197.7962
7006 65.1441
7253 173.5583
7344 76.0584
7385 8.4848
7394 115.4680
7408 89.2491
7540 106.3746
7948 125.2350
8021 228.4201
8226 286.8785
8265 16.3840
8391 243.3496
8443 120.2959
8487 290.9444
8515 256.9848
8527 95.7547
8693 209.7461
8705 73.7080
8731 214.4414
8771 183.7609
8793 266.4672
8887 190.2890
8910 271.6168
8921 188.5056
8973 210.5502
8998 215.2897
PLANTSmolcadARTstart hb
PLANTSmolcadARTstart HB
LINES
PLANTSmolcadARTstart HBCH
LINES
PLANTSmolcadARTstart HB-CHO
LINES
PLANTSmolcadARTend
PLANTSmolcadARTstart HB_WATER
LINES
PLANTSmolcadARTend

PLANTSmolcadARTend

