@<TRIPOS>MOLECULE
aspirin_entry_00001_conf_17
20 20 1
SMALL
NO_CHARGES


@<TRIPOS>ATOM
      1 C         -14.0182  -63.7190    1.8027 C.3       1 UNL1        0.0000
      2 C         -14.1233  -63.7430    0.3217 C.2       1 UNL1        0.0000
      3 C         -13.7056  -62.6617   -1.8227 C.ar      1 UNL1        0.0000
      4 C         -13.9160  -63.6779   -2.7305 C.ar      1 UNL1        0.0000
      5 C         -14.1183  -63.4638   -4.0795 C.ar      1 UNL1        0.0000
      6 C         -14.1099  -62.1693   -4.5393 C.ar      1 UNL1        0.0000
      7 C         -13.9036  -61.1160   -3.6752 C.ar      1 UNL1        0.0000
      8 C         -13.7031  -61.3722   -2.3180 C.ar      1 UNL1        0.0000
      9 C         -13.4885  -60.2297   -1.4381 C.2       1 UNL1        0.0000
     10 O         -14.8002  -64.6168   -0.3003 O.2       1 UNL1        0.0000
     11 O         -13.5012  -62.8277   -0.4796 O.3       1 UNL1        0.0000
     12 O         -13.2785  -59.0820   -1.9074 O.co2     1 UNL1       -0.5000
     13 O         -13.5054  -60.3632   -0.0599 O.co2     1 UNL1       -0.5000
     14 H         -14.5864  -64.5275    2.2130 H         1 UNL1        0.0000
     15 H         -14.4009  -62.7907    2.1720 H         1 UNL1        0.0000
     16 H         -12.9926  -63.8211    2.0888 H         1 UNL1        0.0000
     17 H         -13.9228  -64.6496   -2.3835 H         1 UNL1        0.0000
     18 H         -14.2727  -64.2550   -4.7247 H         1 UNL1        0.0000
     19 H         -14.2591  -61.9829   -5.5433 H         1 UNL1        0.0000
     20 H         -13.8987  -60.1459   -4.0279 H         1 UNL1        0.0000
@<TRIPOS>BOND
     1    1    2 1
     2    1   14 1
     3    1   15 1
     4    1   16 1
     5    2   10 2
     6    2   11 1
     7    3    4 ar
     8    3    8 ar
     9    3   11 1
    10    4    5 ar
    11    4   17 1
    12    5    6 ar
    13    5   18 1
    14    6    7 ar
    15    6   19 1
    16    7    8 ar
    17    7   20 1
    18    8    9 1
    19    9   12 ar
    20    9   13 ar
@<TRIPOS>SUBSTRUCTURE
1 UNL1 1
@<TRIPOS>COMMENT
aspirin
PLANTSproteinTorsions
102
1 21.7865
42 352.7660
151 163.8449
173 12.3746
432 90.1851
491 35.9946
531 135.4357
563 168.9028
572 6.3912
629 189.6060
730 50.0761
826 42.0529
895 256.4105
921 315.8128
954 43.1037
1044 104.4328
1258 157.3381
1480 47.6279
1534 79.3523
1612 219.7916
1654 239.4170
1680 75.8920
1704 173.1852
1767 318.5094
1795 81.9110
1847 112.0310
1879 178.8180
1921 85.5288
1944 65.7977
1966 127.5842
1975 206.9530
2067 25.2922
2118 52.9316
2167 107.5685
2220 115.8560
2243 194.5823
2272 268.7323
2294 41.0593
2609 79.7744
2728 263.0947
2931 108.4935
3031 41.3842
3044 82.8158
3058 333.9590
3085 189.7043
3166 10.4305
3188 75.0996
3496 157.4807
3614 328.3497
3656 154.0329
3697 39.7670
3722 177.0467
3847 74.4251
3888 85.7537
4051 187.0257
4174 305.9741
4734 266.4476
4804 220.1142
4952 264.3226
5093 85.0370
5103 284.6975
5144 301.3517
5332 233.3768
5363 85.3531
5457 291.3729
5683 22.9986
5900 268.7623
6049 235.5616
6089 77.2669
6125 106.6020
6181 200.8814
6190 307.2614
6214 281.4102
6331 229.7733
6344 68.3330
6432 273.7888
7006 220.2205
7253 208.1456
7344 118.0236
7385 15.2694
7394 167.9039
7408 65.3960
7540 232.5453
7948 215.6021
8021 261.0786
8226 140.7348
8265 165.7368
8391 267.7717
8443 26.0912
8487 260.7994
8515 262.0204
8527 202.2135
8693 304.4628
8705 39.5189
8731 206.1351
8771 319.1189
8793 244.4732
8887 103.7501
8910 252.9658
8921 231.1176
8973 217.6152
8998 133.9538
PLANTSmolcadARTstart hb
PLANTSmolcadARTstart HB
LINES
-13.2785 -59.082 -1.90743 -11.654 -59.599 -3.055 0 255 0 5
PLANTSmolcadARTstart HBCH
LINES
PLANTSmolcadARTstart HB-CHO
LINES
PLANTSmolcadARTend
PLANTSmolcadARTstart HB_WATER
LINES
PLANTSmolcadARTend

PLANTSmolcadARTend

