@<TRIPOS>MOLECULE
aspirin_entry_00001_conf_35
20 20 1
SMALL
NO_CHARGES


@<TRIPOS>ATOM
      1 C         -12.6563  -61.6231   10.7244 C.3       1 UNL1        0.0000
      2 C         -11.4247  -60.8802   10.3555 C.2       1 UNL1        0.0000
      3 C         -12.4279  -58.6596   10.4252 C.ar      1 UNL1        0.0000
      4 C         -13.7417  -59.0355   10.6080 C.ar      1 UNL1        0.0000
      5 C         -14.7846  -58.1357   10.7054 C.ar      1 UNL1        0.0000
      6 C         -14.4955  -56.7957   10.6161 C.ar      1 UNL1        0.0000
      7 C         -13.1995  -56.3651   10.4330 C.ar      1 UNL1        0.0000
      8 C         -12.1719  -57.3049   10.3395 C.ar      1 UNL1        0.0000
      9 C         -10.8153  -56.8072   10.1460 C.2       1 UNL1        0.0000
     10 O         -10.3430  -61.4643   10.0435 O.2       1 UNL1        0.0000
     11 O         -11.3648  -59.5155   10.3236 O.3       1 UNL1        0.0000
     12 O         -10.5703  -55.5738   10.1606 O.co2     1 UNL1       -0.5000
     13 O          -9.7505  -57.6677    9.9377 O.co2     1 UNL1       -0.5000
     14 H         -12.4648  -62.6748   10.6784 H         1 UNL1        0.0000
     15 H         -13.4411  -61.3733   10.0416 H         1 UNL1        0.0000
     16 H         -12.9494  -61.3560   11.7179 H         1 UNL1        0.0000
     17 H         -13.9571  -60.0423   10.6756 H         1 UNL1        0.0000
     18 H         -15.7548  -58.4612   10.8426 H         1 UNL1        0.0000
     19 H         -15.2575  -56.1031   10.6862 H         1 UNL1        0.0000
     20 H         -12.9900  -55.3564   10.3669 H         1 UNL1        0.0000
@<TRIPOS>BOND
     1    1    2 1
     2    1   14 1
     3    1   15 1
     4    1   16 1
     5    2   10 2
     6    2   11 1
     7    3    4 ar
     8    3    8 ar
     9    3   11 1
    10    4    5 ar
    11    4   17 1
    12    5    6 ar
    13    5   18 1
    14    6    7 ar
    15    6   19 1
    16    7    8 ar
    17    7   20 1
    18    8    9 1
    19    9   12 ar
    20    9   13 ar
@<TRIPOS>SUBSTRUCTURE
1 UNL1 1
@<TRIPOS>COMMENT
aspirin
PLANTSproteinTorsions
102
1 267.4407
42 205.2435
151 179.4676
173 160.4904
432 135.1588
491 11.6043
531 145.5745
563 255.5841
572 201.5645
629 202.0427
730 343.0014
826 53.0382
895 11.3781
921 219.2663
954 23.2839
1044 186.5275
1258 140.8473
1480 216.5572
1534 69.4023
1612 345.4612
1654 220.9161
1680 187.1569
1704 171.8939
1767 338.9229
1795 53.0493
1847 84.5282
1879 75.5477
1921 153.3502
1944 38.7822
1966 98.8542
1975 236.7424
2067 323.4919
2118 78.6777
2167 143.5109
2220 177.7506
2243 168.9247
2272 212.9964
2294 301.7020
2609 174.6612
2728 30.4088
2931 132.4374
3031 82.0525
3044 290.1454
3058 292.7087
3085 203.3550
3166 243.2254
3188 123.4177
3496 183.1974
3614 321.2093
3656 165.4738
3697 25.1645
3722 188.3502
3847 49.2432
3888 345.7929
4051 193.7328
4174 21.4245
4734 118.3048
4804 274.5112
4952 23.0929
5093 246.9204
5103 225.5000
5144 197.4598
5332 128.9874
5363 74.4387
5457 189.4882
5683 34.5975
5900 253.3139
6049 173.8480
6089 99.3051
6125 107.0971
6181 181.2640
6190 23.2239
6214 41.4879
6331 248.2058
6344 88.0318
6432 260.5134
7006 346.1514
7253 55.5351
7344 293.3667
7385 209.3989
7394 295.3928
7408 298.3915
7540 53.8632
7948 36.2127
8021 335.1743
8226 201.9241
8265 274.1571
8391 257.3976
8443 84.5432
8487 36.3094
8515 15.1299
8527 209.0925
8693 303.5966
8705 13.7509
8731 215.9021
8771 211.5682
8793 75.4203
8887 81.3783
8910 52.1154
8921 262.3481
8973 203.4144
8998 191.7358
PLANTSmolcadARTstart hb
PLANTSmolcadARTstart HB
LINES
PLANTSmolcadARTstart HBCH
LINES
-10.5703 -55.5738 10.1606 -11.335 -54.7182 8.38841 255 0 0 5
PLANTSmolcadARTstart HB-CHO
LINES
PLANTSmolcadARTend
PLANTSmolcadARTstart HB_WATER
LINES
PLANTSmolcadARTend

PLANTSmolcadARTend

