@<TRIPOS>MOLECULE
aspirin_entry_00001_conf_89
20 20 1
SMALL
NO_CHARGES


@<TRIPOS>ATOM
      1 C         -16.9309  -72.6807   22.0206 C.3       1 UNL1        0.0000
      2 C         -18.2601  -72.0583   21.7956 C.2       1 UNL1        0.0000
      3 C         -20.1213  -70.7186   22.6221 C.ar      1 UNL1        0.0000
      4 C         -20.5114  -70.0548   21.4784 C.ar      1 UNL1        0.0000
      5 C         -21.7067  -69.3730   21.3640 C.ar      1 UNL1        0.0000
      6 C         -22.5506  -69.3570   22.4479 C.ar      1 UNL1        0.0000
      7 C         -22.2097  -70.0037   23.6158 C.ar      1 UNL1        0.0000
      8 C         -20.9929  -70.6828   23.6932 C.ar      1 UNL1        0.0000
      9 C         -20.6708  -71.3537   24.9469 C.2       1 UNL1        0.0000
     10 O         -18.8477  -72.0914   20.6720 O.2       1 UNL1        0.0000
     11 O         -18.9483  -71.4059   22.7793 O.3       1 UNL1        0.0000
     12 O         -21.5382  -71.4953   25.8464 O.co2     1 UNL1       -0.5000
     13 O         -19.4045  -71.8562   25.1954 O.co2     1 UNL1       -0.5000
     14 H         -16.5903  -73.1313   21.1118 H         1 UNL1        0.0000
     15 H         -17.0120  -73.4290   22.7809 H         1 UNL1        0.0000
     16 H         -16.2342  -71.9308   22.3311 H         1 UNL1        0.0000
     17 H         -19.8768  -70.0684   20.6649 H         1 UNL1        0.0000
     18 H         -21.9595  -68.8893   20.4876 H         1 UNL1        0.0000
     19 H         -23.4500  -68.8545   22.3875 H         1 UNL1        0.0000
     20 H         -22.8491  -69.9875   24.4262 H         1 UNL1        0.0000
@<TRIPOS>BOND
     1    1    2 1
     2    1   14 1
     3    1   15 1
     4    1   16 1
     5    2   10 2
     6    2   11 1
     7    3    4 ar
     8    3    8 ar
     9    3   11 1
    10    4    5 ar
    11    4   17 1
    12    5    6 ar
    13    5   18 1
    14    6    7 ar
    15    6   19 1
    16    7    8 ar
    17    7   20 1
    18    8    9 1
    19    9   12 ar
    20    9   13 ar
@<TRIPOS>SUBSTRUCTURE
1 UNL1 1
@<TRIPOS>COMMENT
aspirin
PLANTSproteinTorsions
102
1 351.6692
42 153.1676
151 10.9966
173 2.6279
432 96.7448
491 13.5729
531 6.0221
563 315.8550
572 8.4636
629 5.3814
730 233.1520
826 310.2469
895 100.2011
921 200.0610
954 58.2305
1044 243.4326
1258 264.1720
1480 37.0277
1534 183.9706
1612 45.2279
1654 293.1617
1680 237.1572
1704 218.5192
1767 201.2267
1795 82.1288
1847 140.3211
1879 322.1137
1921 112.5706
1944 25.2031
1966 200.3861
1975 68.6812
2067 48.9642
2118 86.7524
2167 147.3499
2220 245.0803
2243 153.8347
2272 246.4922
2294 146.5529
2609 179.4017
2728 238.4165
2931 223.3985
3031 122.7351
3044 93.1956
3058 132.9903
3085 297.7112
3166 243.2298
3188 215.4099
3496 333.5465
3614 228.8284
3656 80.8611
3697 145.8875
3722 174.6322
3847 150.0054
3888 0.5410
4051 255.2518
4174 126.0279
4734 212.3096
4804 292.6886
4952 118.6697
5093 32.6761
5103 249.5391
5144 143.8382
5332 234.0185
5363 155.7439
5457 105.7668
5683 205.6911
5900 71.9104
6049 56.4915
6089 286.5452
6125 58.4327
6181 169.7759
6190 158.8700
6214 110.9417
6331 208.9398
6344 136.0572
6432 162.1413
7006 27.7069
7253 151.4063
7344 157.4050
7385 203.2291
7394 89.1360
7408 186.0226
7540 55.1004
7948 305.3818
8021 289.3159
8226 182.9652
8265 163.5753
8391 45.9077
8443 226.4950
8487 58.7719
8515 229.9772
8527 290.6225
8693 47.8565
8705 354.8230
8731 22.9880
8771 168.3951
8793 187.3547
8887 268.5366
8910 149.2881
8921 129.6867
8973 281.9758
8998 270.7573
PLANTSmolcadARTstart hb
PLANTSmolcadARTstart HB
LINES
PLANTSmolcadARTstart HBCH
LINES
PLANTSmolcadARTstart HB-CHO
LINES
PLANTSmolcadARTend
PLANTSmolcadARTstart HB_WATER
LINES
PLANTSmolcadARTend

PLANTSmolcadARTend

