@<TRIPOS>MOLECULE
aspirin_entry_00001_conf_50
20 20 1
SMALL
NO_CHARGES


@<TRIPOS>ATOM
      1 C           0.3379  -41.5525    0.8512 C.3       1 UNL1        0.0000
      2 C          -0.2520  -40.2634    0.4096 C.2       1 UNL1        0.0000
      3 C          -0.0333  -37.8523    0.1251 C.ar      1 UNL1        0.0000
      4 C          -0.6078  -37.6754   -1.1157 C.ar      1 UNL1        0.0000
      5 C          -0.9618  -36.4403   -1.6216 C.ar      1 UNL1        0.0000
      6 C          -0.7292  -35.3307   -0.8458 C.ar      1 UNL1        0.0000
      7 C          -0.1569  -35.4506    0.4018 C.ar      1 UNL1        0.0000
      8 C           0.1870  -36.7161    0.8793 C.ar      1 UNL1        0.0000
      9 C           0.7901  -36.7988    2.2041 C.2       1 UNL1        0.0000
     10 O          -1.3419  -40.1971   -0.2358 O.2       1 UNL1        0.0000
     11 O           0.3328  -39.0553    0.6654 O.3       1 UNL1        0.0000
     12 O           1.3283  -37.8624    2.6048 O.co2     1 UNL1       -0.5000
     13 O           0.7918  -35.7167    3.0682 O.co2     1 UNL1       -0.5000
     14 H          -0.2935  -42.3582    0.5396 H         1 UNL1        0.0000
     15 H           0.4234  -41.5585    1.9176 H         1 UNL1        0.0000
     16 H           1.3077  -41.6686    0.4149 H         1 UNL1        0.0000
     17 H          -0.7826  -38.5098   -1.6968 H         1 UNL1        0.0000
     18 H          -1.3905  -36.3534   -2.5569 H         1 UNL1        0.0000
     19 H          -0.9852  -34.3962   -1.2013 H         1 UNL1        0.0000
     20 H           0.0147  -34.6122    0.9792 H         1 UNL1        0.0000
@<TRIPOS>BOND
     1    1    2 1
     2    1   14 1
     3    1   15 1
     4    1   16 1
     5    2   10 2
     6    2   11 1
     7    3    4 ar
     8    3    8 ar
     9    3   11 1
    10    4    5 ar
    11    4   17 1
    12    5    6 ar
    13    5   18 1
    14    6    7 ar
    15    6   19 1
    16    7    8 ar
    17    7   20 1
    18    8    9 1
    19    9   12 ar
    20    9   13 ar
@<TRIPOS>SUBSTRUCTURE
1 UNL1 1
@<TRIPOS>COMMENT
aspirin
PLANTSproteinTorsions
102
1 228.8221
42 22.6224
151 22.3896
173 194.6992
432 350.6112
491 65.7091
531 144.0320
563 175.0796
572 51.4434
629 2.7090
730 349.5686
826 190.8471
895 145.0838
921 34.0642
954 254.2886
1044 26.2531
1258 168.1937
1480 25.1372
1534 112.5120
1612 120.5615
1654 59.9878
1680 129.1034
1704 169.0308
1767 114.2250
1795 68.7234
1847 189.0038
1879 131.6214
1921 18.4146
1944 21.4925
1966 74.0251
1975 96.5123
2067 272.7106
2118 33.9838
2167 132.9223
2220 55.1417
2243 167.1605
2272 297.4744
2294 175.9539
2609 180.5281
2728 212.2444
2931 59.0860
3031 281.9167
3044 204.3728
3058 226.9426
3085 84.1722
3166 189.7569
3188 130.3398
3496 118.9660
3614 39.7887
3656 29.9364
3697 289.4417
3722 148.1064
3847 125.2989
3888 266.6824
4051 39.4669
4174 111.6852
4734 140.3822
4804 32.3955
4952 145.6688
5093 311.0521
5103 237.9524
5144 161.4018
5332 269.4257
5363 129.1771
5457 65.9898
5683 200.3931
5900 93.3050
6049 71.1577
6089 21.2865
6125 29.3341
6181 44.0005
6190 80.4360
6214 153.6667
6331 127.7168
6344 123.5415
6432 194.1981
7006 334.8911
7253 163.8933
7344 124.7292
7385 124.9898
7394 236.4609
7408 63.9526
7540 85.7350
7948 269.1761
8021 190.8526
8226 20.3169
8265 90.0738
8391 66.9486
8443 53.7771
8487 276.6734
8515 236.7034
8527 312.5849
8693 202.1407
8705 343.0402
8731 158.4218
8771 177.3454
8793 160.0088
8887 50.1878
8910 172.9011
8921 142.0571
8973 193.8828
8998 277.6830
PLANTSmolcadARTstart hb
PLANTSmolcadARTstart HB
LINES
PLANTSmolcadARTstart HBCH
LINES
PLANTSmolcadARTstart HB-CHO
LINES
PLANTSmolcadARTend
PLANTSmolcadARTstart HB_WATER
LINES
PLANTSmolcadARTend

PLANTSmolcadARTend

