@<TRIPOS>MOLECULE
aspirin_entry_00001_conf_78
20 20 1
SMALL
NO_CHARGES


@<TRIPOS>ATOM
      1 C         -12.0644  -64.7717   -7.0816 C.3       1 UNL1        0.0000
      2 C         -12.8764  -63.6839   -7.6833 C.2       1 UNL1        0.0000
      3 C         -13.4192  -62.2836   -9.6035 C.ar      1 UNL1        0.0000
      4 C         -13.7224  -61.0874   -8.9886 C.ar      1 UNL1        0.0000
      5 C         -14.3481  -60.0379   -9.6318 C.ar      1 UNL1        0.0000
      6 C         -14.6848  -60.1958  -10.9543 C.ar      1 UNL1        0.0000
      7 C         -14.4054  -61.3710  -11.6170 C.ar      1 UNL1        0.0000
      8 C         -13.7714  -62.4094  -10.9332 C.ar      1 UNL1        0.0000
      9 C         -13.4940  -63.6357  -11.6713 C.2       1 UNL1        0.0000
     10 O         -13.6962  -62.9907   -7.0079 O.2       1 UNL1        0.0000
     11 O         -12.8010  -63.3483   -9.0057 O.3       1 UNL1        0.0000
     12 O         -13.9801  -63.8263  -12.8154 O.co2     1 UNL1       -0.5000
     13 O         -12.6912  -64.6332  -11.1438 O.co2     1 UNL1       -0.5000
     14 H         -12.2911  -64.8501   -6.0389 H         1 UNL1        0.0000
     15 H         -11.0249  -64.5503   -7.2048 H         1 UNL1        0.0000
     16 H         -12.2920  -65.6969   -7.5678 H         1 UNL1        0.0000
     17 H         -13.4681  -60.9701   -7.9956 H         1 UNL1        0.0000
     18 H         -14.5562  -59.1583   -9.1327 H         1 UNL1        0.0000
     19 H         -15.1530  -59.4259  -11.4575 H         1 UNL1        0.0000
     20 H         -14.6613  -61.4823  -12.6109 H         1 UNL1        0.0000
@<TRIPOS>BOND
     1    1    2 1
     2    1   14 1
     3    1   15 1
     4    1   16 1
     5    2   10 2
     6    2   11 1
     7    3    4 ar
     8    3    8 ar
     9    3   11 1
    10    4    5 ar
    11    4   17 1
    12    5    6 ar
    13    5   18 1
    14    6    7 ar
    15    6   19 1
    16    7    8 ar
    17    7   20 1
    18    8    9 1
    19    9   12 ar
    20    9   13 ar
@<TRIPOS>SUBSTRUCTURE
1 UNL1 1
@<TRIPOS>COMMENT
aspirin
PLANTSproteinTorsions
102
1 16.2314
42 112.6793
151 324.5731
173 167.2626
432 220.6345
491 0.7051
531 132.9964
563 255.1254
572 180.6024
629 22.8445
730 31.8667
826 53.5505
895 83.1462
921 300.2853
954 75.8658
1044 47.7673
1258 132.7613
1480 221.0475
1534 78.7382
1612 154.2257
1654 235.8856
1680 79.2832
1704 53.8775
1767 295.7214
1795 88.6788
1847 121.1942
1879 184.3135
1921 95.8289
1944 76.0366
1966 122.9284
1975 66.3269
2067 8.9826
2118 69.2208
2167 131.4874
2220 240.5783
2243 206.1460
2272 119.6004
2294 338.3137
2609 134.1580
2728 330.9853
2931 113.4923
3031 71.8894
3044 315.1882
3058 290.9783
3085 121.1018
3166 319.2947
3188 284.0500
3496 156.2324
3614 310.0081
3656 118.7894
3697 58.4769
3722 162.4216
3847 107.9007
3888 27.2222
4051 235.5053
4174 62.1333
4734 253.3826
4804 348.2317
4952 148.1103
5093 245.6594
5103 165.8528
5144 337.3220
5332 264.5412
5363 98.3838
5457 281.5312
5683 120.2697
5900 58.5496
6049 231.4809
6089 62.8364
6125 182.9930
6181 247.2460
6190 187.2216
6214 80.9415
6331 229.1327
6344 56.0233
6432 262.2050
7006 317.8245
7253 194.0234
7344 175.5449
7385 6.9853
7394 221.6666
7408 68.4207
7540 217.4485
7948 234.2495
8021 265.0002
8226 127.2003
8265 217.3052
8391 268.5244
8443 32.1923
8487 273.0385
8515 239.7030
8527 227.8808
8693 225.7529
8705 34.3078
8731 63.4696
8771 265.6348
8793 268.2798
8887 82.3414
8910 270.3385
8921 249.7762
8973 212.3208
8998 302.6961
PLANTSmolcadARTstart hb
PLANTSmolcadARTstart HB
LINES
PLANTSmolcadARTstart HBCH
LINES
PLANTSmolcadARTstart HB-CHO
LINES
PLANTSmolcadARTend
PLANTSmolcadARTstart HB_WATER
LINES
PLANTSmolcadARTend

PLANTSmolcadARTend

