@<TRIPOS>MOLECULE
aspirin_entry_00001_conf_09
20 20 1
SMALL
NO_CHARGES


@<TRIPOS>ATOM
      1 C           0.2165  -42.0985   -0.3557 C.3       1 UNL1        0.0000
      2 C          -0.0906  -41.4718    0.9549 C.2       1 UNL1        0.0000
      3 C          -0.7518  -39.3057    0.0533 C.ar      1 UNL1        0.0000
      4 C          -1.3410  -39.6573   -1.1426 C.ar      1 UNL1        0.0000
      5 C          -1.6096  -38.7554   -2.1531 C.ar      1 UNL1        0.0000
      6 C          -1.2720  -37.4387   -1.9541 C.ar      1 UNL1        0.0000
      7 C          -0.6804  -37.0331   -0.7777 C.ar      1 UNL1        0.0000
      8 C          -0.4249  -37.9741    0.2209 C.ar      1 UNL1        0.0000
      9 C           0.2022  -37.5032    1.4501 C.2       1 UNL1        0.0000
     10 O          -0.0224  -42.1097    2.0491 O.2       1 UNL1        0.0000
     11 O          -0.4678  -40.1646    1.0803 O.3       1 UNL1        0.0000
     12 O           0.6862  -36.3450    1.5269 O.co2     1 UNL1       -0.5000
     13 O           0.2905  -38.3085    2.5731 O.co2     1 UNL1       -0.5000
     14 H           0.4879  -43.1226   -0.2058 H         1 UNL1        0.0000
     15 H           1.0293  -41.5783   -0.8177 H         1 UNL1        0.0000
     16 H          -0.6456  -42.0455   -0.9868 H         1 UNL1        0.0000
     17 H          -1.5947  -40.6464   -1.2902 H         1 UNL1        0.0000
     18 H          -2.0530  -39.0622   -3.0337 H         1 UNL1        0.0000
     19 H          -1.4627  -36.7451   -2.6941 H         1 UNL1        0.0000
     20 H          -0.4296  -36.0419   -0.6352 H         1 UNL1        0.0000
@<TRIPOS>BOND
     1    1    2 1
     2    1   14 1
     3    1   15 1
     4    1   16 1
     5    2   10 2
     6    2   11 1
     7    3    4 ar
     8    3    8 ar
     9    3   11 1
    10    4    5 ar
    11    4   17 1
    12    5    6 ar
    13    5   18 1
    14    6    7 ar
    15    6   19 1
    16    7    8 ar
    17    7   20 1
    18    8    9 1
    19    9   12 ar
    20    9   13 ar
@<TRIPOS>SUBSTRUCTURE
1 UNL1 1
@<TRIPOS>COMMENT
aspirin
PLANTSproteinTorsions
102
1 51.2636
42 19.7698
151 90.0809
173 182.5417
432 222.3387
491 145.6480
531 93.9534
563 130.7123
572 321.7349
629 14.1901
730 320.9210
826 88.6056
895 96.8970
921 55.0392
954 171.3885
1044 41.5908
1258 164.3543
1480 17.3376
1534 304.5919
1612 238.7048
1654 154.7632
1680 201.9754
1704 141.6444
1767 27.0462
1795 174.8832
1847 153.1550
1879 85.5093
1921 166.5001
1944 356.9103
1966 182.3746
1975 133.4001
2067 230.1945
2118 55.8675
2167 10.3756
2220 324.5859
2243 72.0327
2272 86.2934
2294 279.6511
2609 255.8930
2728 123.5583
2931 184.3806
3031 34.0967
3044 116.9037
3058 312.0327
3085 18.5151
3166 39.6127
3188 348.3478
3496 322.9366
3614 27.7783
3656 295.9137
3697 174.4518
3722 164.7574
3847 304.8380
3888 199.2620
4051 299.3838
4174 33.8054
4734 163.3574
4804 270.7809
4952 158.4397
5093 224.2859
5103 43.6952
5144 318.8020
5332 254.8945
5363 79.0810
5457 126.5468
5683 18.7181
5900 95.8881
6049 266.6597
6089 226.3896
6125 266.9639
6181 257.4406
6190 186.2736
6214 204.1965
6331 263.0419
6344 140.2968
6432 292.9138
7006 98.3724
7253 265.8477
7344 101.7617
7385 178.4269
7394 154.6029
7408 219.8153
7540 229.2774
7948 141.5002
8021 138.9417
8226 171.3733
8265 235.5840
8391 190.9131
8443 233.4931
8487 45.8764
8515 54.2265
8527 194.0974
8693 147.2935
8705 82.8898
8731 230.6111
8771 75.0986
8793 217.7430
8887 63.4999
8910 220.4868
8921 143.3543
8973 218.7708
8998 134.5439
PLANTSmolcadARTstart hb
PLANTSmolcadARTstart HB
LINES
PLANTSmolcadARTstart HBCH
LINES
PLANTSmolcadARTstart HB-CHO
LINES
PLANTSmolcadARTend
PLANTSmolcadARTstart HB_WATER
LINES
PLANTSmolcadARTend

PLANTSmolcadARTend

