@<TRIPOS>MOLECULE
aspirin_entry_00001_conf_11
20 20 1
SMALL
NO_CHARGES


@<TRIPOS>ATOM
      1 C         -30.7453  -41.2787    5.3180 C.3       1 UNL1        0.0000
      2 C         -31.7425  -41.3880    4.2234 C.2       1 UNL1        0.0000
      3 C         -33.2218  -42.9360    5.3886 C.ar      1 UNL1        0.0000
      4 C         -33.0763  -42.5621    6.7077 C.ar      1 UNL1        0.0000
      5 C         -33.4685  -43.3517    7.7705 C.ar      1 UNL1        0.0000
      6 C         -34.0339  -44.5735    7.4968 C.ar      1 UNL1        0.0000
      7 C         -34.2024  -44.9965    6.1964 C.ar      1 UNL1        0.0000
      8 C         -33.7938  -44.1702    5.1485 C.ar      1 UNL1        0.0000
      9 C         -33.9900  -44.6557    3.7878 C.2       1 UNL1        0.0000
     10 O         -31.6341  -40.7463    3.1347 O.2       1 UNL1        0.0000
     11 O         -32.8481  -42.1866    4.3061 O.3       1 UNL1        0.0000
     12 O         -33.3896  -44.1250    2.8186 O.co2     1 UNL1       -0.5000
     13 O         -34.8415  -45.7121    3.5111 O.co2     1 UNL1       -0.5000
     14 H         -29.9712  -40.5993    5.0278 H         1 UNL1        0.0000
     15 H         -30.3207  -42.2416    5.5108 H         1 UNL1        0.0000
     16 H         -31.2255  -40.9169    6.2028 H         1 UNL1        0.0000
     17 H         -32.6521  -41.6440    6.9116 H         1 UNL1        0.0000
     18 H         -33.3411  -43.0322    8.7440 H         1 UNL1        0.0000
     19 H         -34.3356  -45.1821    8.2738 H         1 UNL1        0.0000
     20 H         -34.6282  -45.9159    5.9985 H         1 UNL1        0.0000
@<TRIPOS>BOND
     1    1    2 1
     2    1   14 1
     3    1   15 1
     4    1   16 1
     5    2   10 2
     6    2   11 1
     7    3    4 ar
     8    3    8 ar
     9    3   11 1
    10    4    5 ar
    11    4   17 1
    12    5    6 ar
    13    5   18 1
    14    6    7 ar
    15    6   19 1
    16    7    8 ar
    17    7   20 1
    18    8    9 1
    19    9   12 ar
    20    9   13 ar
@<TRIPOS>SUBSTRUCTURE
1 UNL1 1
@<TRIPOS>COMMENT
aspirin
PLANTSproteinTorsions
102
1 202.7503
42 219.2943
151 176.2111
173 49.8095
432 1.0655
491 278.8274
531 105.0852
563 39.9571
572 17.8091
629 183.1483
730 85.9900
826 106.7789
895 186.1863
921 191.5487
954 191.5080
1044 233.2499
1258 98.1146
1480 5.9349
1534 263.6218
1612 39.2060
1654 157.1064
1680 228.9555
1704 228.9168
1767 25.0161
1795 209.3045
1847 147.8542
1879 264.9000
1921 241.6603
1944 155.0227
1966 5.0169
1975 149.0448
2067 216.0932
2118 227.0538
2167 156.1799
2220 204.4137
2243 138.8396
2272 103.6201
2294 168.3207
2609 37.9195
2728 119.0564
2931 218.9512
3031 154.9050
3044 41.8514
3058 25.9112
3085 5.1593
3166 339.9005
3188 266.8970
3496 122.2713
3614 122.0035
3656 210.6431
3697 281.8047
3722 146.2500
3847 75.3872
3888 86.9293
4051 247.9067
4174 81.9941
4734 202.4350
4804 305.8026
4952 162.2953
5093 256.5277
5103 29.7242
5144 226.9326
5332 278.1543
5363 179.8331
5457 202.0872
5683 122.1660
5900 184.2831
6049 161.1503
6089 263.8138
6125 143.3392
6181 225.2906
6190 97.2923
6214 174.6064
6331 69.3371
6344 258.0475
6432 84.0344
7006 25.6211
7253 164.4725
7344 37.9307
7385 135.9198
7394 102.2588
7408 182.6230
7540 92.3982
7948 287.9257
8021 176.0760
8226 112.2965
8265 255.9398
8391 101.6902
8443 191.5988
8487 46.6432
8515 12.6755
8527 141.8804
8693 236.5189
8705 94.1279
8731 223.4578
8771 182.0360
8793 312.8268
8887 212.1267
8910 67.8899
8921 219.7411
8973 218.6760
8998 308.2491
PLANTSmolcadARTstart hb
PLANTSmolcadARTstart HB
LINES
-34.8415 -45.7121 3.51111 -34.7491 -46.9551 1.79183 0 255 0 5
PLANTSmolcadARTstart HBCH
LINES
PLANTSmolcadARTstart HB-CHO
LINES
PLANTSmolcadARTend
PLANTSmolcadARTstart HB_WATER
LINES
PLANTSmolcadARTend

PLANTSmolcadARTend

