@<TRIPOS>MOLECULE
aspirin_entry_00001_conf_47
20 20 1
SMALL
NO_CHARGES


@<TRIPOS>ATOM
      1 C         -47.3407  -65.0350   12.5979 C.3       1 UNL1        0.0000
      2 C         -47.7230  -64.6775   11.2083 C.2       1 UNL1        0.0000
      3 C         -48.5194  -63.0258    9.6020 C.ar      1 UNL1        0.0000
      4 C         -49.2159  -63.8107    8.7078 C.ar      1 UNL1        0.0000
      5 C         -49.6124  -63.3738    7.4593 C.ar      1 UNL1        0.0000
      6 C         -49.2958  -62.0886    7.0912 C.ar      1 UNL1        0.0000
      7 C         -48.6005  -61.2617    7.9463 C.ar      1 UNL1        0.0000
      8 C         -48.2171  -61.7392    9.2005 C.ar      1 UNL1        0.0000
      9 C         -47.4832  -60.8320   10.0746 C.2       1 UNL1        0.0000
     10 O         -47.7193  -65.5209   10.2610 O.2       1 UNL1        0.0000
     11 O         -48.1073  -63.4170   10.8472 O.3       1 UNL1        0.0000
     12 O         -47.0266  -59.7435    9.6407 O.co2     1 UNL1       -0.5000
     13 O         -47.2598  -61.1327   11.4077 O.co2     1 UNL1       -0.5000
     14 H         -47.0798  -66.0718   12.6397 H         1 UNL1        0.0000
     15 H         -48.1652  -64.8482   13.2535 H         1 UNL1        0.0000
     16 H         -46.5029  -64.4428   12.9005 H         1 UNL1        0.0000
     17 H         -49.4536  -64.7754    8.9860 H         1 UNL1        0.0000
     18 H         -50.1333  -63.9956    6.8206 H         1 UNL1        0.0000
     19 H         -49.5812  -61.7382    6.1633 H         1 UNL1        0.0000
     20 H         -48.3663  -60.2972    7.6628 H         1 UNL1        0.0000
@<TRIPOS>BOND
     1    1    2 1
     2    1   14 1
     3    1   15 1
     4    1   16 1
     5    2   10 2
     6    2   11 1
     7    3    4 ar
     8    3    8 ar
     9    3   11 1
    10    4    5 ar
    11    4   17 1
    12    5    6 ar
    13    5   18 1
    14    6    7 ar
    15    6   19 1
    16    7    8 ar
    17    7   20 1
    18    8    9 1
    19    9   12 ar
    20    9   13 ar
@<TRIPOS>SUBSTRUCTURE
1 UNL1 1
@<TRIPOS>COMMENT
aspirin
PLANTSproteinTorsions
102
1 85.8419
42 6.6760
151 22.5634
173 66.0765
432 230.3681
491 203.4080
531 194.2905
563 21.6967
572 57.3253
629 204.3444
730 257.7863
826 142.0997
895 73.5614
921 218.2675
954 103.2501
1044 125.5683
1258 214.0236
1480 232.7459
1534 182.9209
1612 163.1609
1654 111.7322
1680 55.7918
1704 270.0320
1767 26.3127
1795 106.2467
1847 114.6836
1879 347.2511
1921 97.2527
1944 13.4653
1966 27.1347
1975 47.4512
2067 200.5771
2118 27.3957
2167 114.5633
2220 147.7782
2243 23.9921
2272 184.1003
2294 152.1000
2609 95.2831
2728 69.6301
2931 147.2773
3031 348.4118
3044 303.7458
3058 351.8605
3085 345.5493
3166 127.2803
3188 161.6665
3496 201.3911
3614 74.6497
3656 109.1432
3697 187.2194
3722 65.4798
3847 54.9268
3888 43.5186
4051 195.9446
4174 13.3778
4734 104.7564
4804 211.8742
4952 26.1179
5093 95.6799
5103 18.8927
5144 197.4473
5332 50.2927
5363 206.1447
5457 46.0012
5683 308.2859
5900 135.1248
6049 25.0590
6089 182.1216
6125 187.6865
6181 216.6676
6190 184.9417
6214 264.6476
6331 73.9833
6344 84.1527
6432 37.7582
7006 337.3884
7253 17.7248
7344 58.5932
7385 202.2282
7394 38.9916
7408 206.7167
7540 149.8409
7948 189.2486
8021 213.6632
8226 307.6495
8265 40.9176
8391 156.1716
8443 66.0973
8487 271.3674
8515 307.6974
8527 218.6380
8693 153.2934
8705 230.4769
8731 332.5253
8771 131.6129
8793 89.9294
8887 310.0842
8910 188.9369
8921 173.7372
8973 56.5964
8998 175.0116
PLANTSmolcadARTstart hb
PLANTSmolcadARTstart HB
LINES
-47.0266 -59.7435 9.64071 -46.803 -58.802 8.296 0 255 0 5
PLANTSmolcadARTstart HBCH
LINES
PLANTSmolcadARTstart HB-CHO
LINES
PLANTSmolcadARTend
PLANTSmolcadARTstart HB_WATER
LINES
PLANTSmolcadARTend

PLANTSmolcadARTend

