@<TRIPOS>MOLECULE
aspirin_entry_00001_conf_16
20 20 1
SMALL
NO_CHARGES


@<TRIPOS>ATOM
      1 C           0.0179  -33.5237   -0.7437 C.3       1 UNL1        0.0000
      2 C          -0.1714  -34.9582   -1.0772 C.2       1 UNL1        0.0000
      3 C          -0.6836  -37.2331   -0.3666 C.ar      1 UNL1        0.0000
      4 C          -1.3493  -37.7242   -1.4696 C.ar      1 UNL1        0.0000
      5 C          -1.6068  -39.0662   -1.6683 C.ar      1 UNL1        0.0000
      6 C          -1.1754  -39.9573   -0.7159 C.ar      1 UNL1        0.0000
      7 C          -0.5057  -39.5202    0.4061 C.ar      1 UNL1        0.0000
      8 C          -0.2636  -38.1557    0.5717 C.ar      1 UNL1        0.0000
      9 C           0.4481  -37.7355    1.7728 C.2       1 UNL1        0.0000
     10 O          -0.1260  -35.3940   -2.2675 O.2       1 UNL1        0.0000
     11 O          -0.4072  -35.9138   -0.1294 O.3       1 UNL1        0.0000
     12 O           0.6484  -38.5379    2.7202 O.co2     1 UNL1       -0.5000
     13 O           0.9265  -36.4440    1.9170 O.co2     1 UNL1       -0.5000
     14 H           0.1884  -32.9688   -1.6426 H         1 UNL1        0.0000
     15 H           0.8610  -33.4173   -0.0938 H         1 UNL1        0.0000
     16 H          -0.8583  -33.1527   -0.2551 H         1 UNL1        0.0000
     17 H          -1.6720  -37.0537   -2.1843 H         1 UNL1        0.0000
     18 H          -2.1089  -39.3909   -2.5100 H         1 UNL1        0.0000
     19 H          -1.3553  -40.9658   -0.8414 H         1 UNL1        0.0000
     20 H          -0.1844  -40.1959    1.1175 H         1 UNL1        0.0000
@<TRIPOS>BOND
     1    1    2 1
     2    1   14 1
     3    1   15 1
     4    1   16 1
     5    2   10 2
     6    2   11 1
     7    3    4 ar
     8    3    8 ar
     9    3   11 1
    10    4    5 ar
    11    4   17 1
    12    5    6 ar
    13    5   18 1
    14    6    7 ar
    15    6   19 1
    16    7    8 ar
    17    7   20 1
    18    8    9 1
    19    9   12 ar
    20    9   13 ar
@<TRIPOS>SUBSTRUCTURE
1 UNL1 1
@<TRIPOS>COMMENT
aspirin
PLANTSproteinTorsions
102
1 222.5020
42 351.7980
151 156.1810
173 283.4639
432 317.3627
491 264.4303
531 318.9274
563 181.5879
572 21.1890
629 14.6157
730 140.4615
826 224.2062
895 137.1590
921 23.1239
954 85.8580
1044 246.9479
1258 25.6197
1480 120.1783
1534 122.8373
1612 281.2276
1654 48.5061
1680 120.3427
1704 243.6309
1767 215.3618
1795 207.6868
1847 320.7655
1879 130.9332
1921 8.2722
1944 234.0450
1966 108.1448
1975 353.2753
2067 110.4814
2118 141.4730
2167 297.5952
2220 9.1148
2243 164.2357
2272 298.0815
2294 322.6183
2609 62.6187
2728 243.4825
2931 7.0899
3031 302.0078
3044 193.0331
3058 210.7617
3085 332.6727
3166 260.5695
3188 25.2570
3496 114.9837
3614 29.1446
3656 205.6887
3697 31.6320
3722 171.3613
3847 133.3805
3888 17.2395
4051 346.3629
4174 142.4383
4734 132.8677
4804 310.8846
4952 162.6803
5093 251.7779
5103 213.8976
5144 193.3477
5332 270.7905
5363 32.0245
5457 10.1908
5683 37.6455
5900 52.3805
6049 207.5482
6089 289.9139
6125 317.3181
6181 149.8444
6190 29.5263
6214 173.6009
6331 162.6159
6344 90.5732
6432 207.6374
7006 253.6373
7253 267.0656
7344 299.4312
7385 116.8609
7394 67.8854
7408 68.1534
7540 191.4070
7948 248.0806
8021 91.8121
8226 78.4718
8265 80.7585
8391 61.8801
8443 48.0301
8487 129.1024
8515 7.1505
8527 346.6205
8693 125.3464
8705 45.6308
8731 157.2936
8771 170.2426
8793 80.4224
8887 51.7910
8910 168.2840
8921 175.2889
8973 129.0934
8998 92.2757
PLANTSmolcadARTstart hb
PLANTSmolcadARTstart HB
LINES
PLANTSmolcadARTstart HBCH
LINES
PLANTSmolcadARTstart HB-CHO
LINES
PLANTSmolcadARTend
PLANTSmolcadARTstart HB_WATER
LINES
PLANTSmolcadARTend

PLANTSmolcadARTend

