@<TRIPOS>MOLECULE
aspirin_entry_00001_conf_79
20 20 1
SMALL
NO_CHARGES


@<TRIPOS>ATOM
      1 C         -25.3894  -27.4628   11.6312 C.3       1 UNL1        0.0000
      2 C         -25.9830  -27.6095   12.9843 C.2       1 UNL1        0.0000
      3 C         -26.7045  -26.6115   15.0880 C.ar      1 UNL1        0.0000
      4 C         -26.5384  -27.6529   15.9761 C.ar      1 UNL1        0.0000
      5 C         -27.0930  -27.6709   17.2406 C.ar      1 UNL1        0.0000
      6 C         -27.8491  -26.5929   17.6327 C.ar      1 UNL1        0.0000
      7 C         -28.0475  -25.5256   16.7842 C.ar      1 UNL1        0.0000
      8 C         -27.4703  -25.5435   15.5136 C.ar      1 UNL1        0.0000
      9 C         -27.7050  -24.3945   14.6475 C.2       1 UNL1        0.0000
     10 O         -26.3526  -28.7301   13.4495 O.2       1 UNL1        0.0000
     11 O         -26.1743  -26.5517   13.8277 O.3       1 UNL1        0.0000
     12 O         -28.2256  -23.3414   15.0964 O.co2     1 UNL1       -0.5000
     13 O         -27.3676  -24.4184   13.3046 O.co2     1 UNL1       -0.5000
     14 H         -25.3383  -28.4216   11.1590 H         1 UNL1        0.0000
     15 H         -24.4041  -27.0546   11.7168 H         1 UNL1        0.0000
     16 H         -25.9975  -26.8070   11.0445 H         1 UNL1        0.0000
     17 H         -25.9697  -28.4613   15.6805 H         1 UNL1        0.0000
     18 H         -26.9426  -28.4721   17.8743 H         1 UNL1        0.0000
     19 H         -28.2741  -26.5823   18.5731 H         1 UNL1        0.0000
     20 H         -28.6168  -24.7190   17.0859 H         1 UNL1        0.0000
@<TRIPOS>BOND
     1    1    2 1
     2    1   14 1
     3    1   15 1
     4    1   16 1
     5    2   10 2
     6    2   11 1
     7    3    4 ar
     8    3    8 ar
     9    3   11 1
    10    4    5 ar
    11    4   17 1
    12    5    6 ar
    13    5   18 1
    14    6    7 ar
    15    6   19 1
    16    7    8 ar
    17    7   20 1
    18    8    9 1
    19    9   12 ar
    20    9   13 ar
@<TRIPOS>SUBSTRUCTURE
1 UNL1 1
@<TRIPOS>COMMENT
aspirin
PLANTSproteinTorsions
102
1 75.3120
42 312.5633
151 182.1368
173 54.9696
432 180.1413
491 29.5755
531 122.2528
563 209.5601
572 195.4530
629 37.2241
730 88.7530
826 60.1369
895 16.1497
921 285.1816
954 76.0622
1044 209.7060
1258 182.9465
1480 313.6353
1534 299.4958
1612 151.6502
1654 330.8151
1680 79.7626
1704 229.3895
1767 182.1570
1795 206.7654
1847 190.4376
1879 193.0186
1921 222.8707
1944 308.6281
1966 171.5304
1975 350.4572
2067 98.4614
2118 243.0988
2167 114.6623
2220 132.0844
2243 329.3077
2272 91.4460
2294 292.1243
2609 292.4845
2728 335.5222
2931 69.6402
3031 27.5435
3044 124.2711
3058 264.6375
3085 71.6386
3166 192.4202
3188 312.9931
3496 194.8047
3614 38.8746
3656 51.9724
3697 96.5118
3722 248.8121
3847 112.5303
3888 338.1135
4051 42.8175
4174 119.2883
4734 67.8330
4804 148.8660
4952 148.6074
5093 52.5387
5103 148.4712
5144 351.8585
5332 145.1037
5363 5.2757
5457 219.3831
5683 80.8064
5900 310.2430
6049 146.3667
6089 309.3322
6125 183.2329
6181 259.2969
6190 106.2897
6214 174.0362
6331 215.5620
6344 89.0966
6432 77.3835
7006 331.4368
7253 320.6162
7344 260.1026
7385 87.1138
7394 266.1690
7408 323.5440
7540 215.2790
7948 73.4424
8021 239.4010
8226 43.6867
8265 83.8508
8391 232.8970
8443 139.9296
8487 270.3860
8515 99.8951
8527 203.1987
8693 210.9681
8705 38.1474
8731 111.1858
8771 220.4436
8793 174.2329
8887 36.6364
8910 13.2892
8921 144.8407
8973 34.1908
8998 334.6008
PLANTSmolcadARTstart hb
PLANTSmolcadARTstart HB
LINES
PLANTSmolcadARTstart HBCH
LINES
PLANTSmolcadARTstart HB-CHO
LINES
PLANTSmolcadARTend
PLANTSmolcadARTstart HB_WATER
LINES
PLANTSmolcadARTend

PLANTSmolcadARTend

