@<TRIPOS>MOLECULE
aspirin_entry_00001_conf_31
20 20 1
SMALL
NO_CHARGES


@<TRIPOS>ATOM
      1 C         -13.0694  -65.3034   -0.7365 C.3       1 UNL1        0.0000
      2 C         -13.2452  -64.1251   -1.6228 C.2       1 UNL1        0.0000
      3 C         -13.6508  -61.7369   -1.8951 C.ar      1 UNL1        0.0000
      4 C         -14.0268  -61.7259   -3.2215 C.ar      1 UNL1        0.0000
      5 C         -14.2424  -60.5678   -3.9421 C.ar      1 UNL1        0.0000
      6 C         -14.0734  -59.3643   -3.3015 C.ar      1 UNL1        0.0000
      7 C         -13.6979  -59.3180   -1.9766 C.ar      1 UNL1        0.0000
      8 C         -13.4896  -60.5100   -1.2812 C.ar      1 UNL1        0.0000
      9 C         -13.0932  -60.4164    0.1187 C.2       1 UNL1        0.0000
     10 O         -13.2392  -64.2159   -2.8879 O.2       1 UNL1        0.0000
     11 O         -13.4269  -62.8586   -1.1435 O.3       1 UNL1        0.0000
     12 O         -12.7475  -59.3166    0.6211 O.co2     1 UNL1       -0.5000
     13 O         -13.0800  -61.5284    0.9439 O.co2     1 UNL1       -0.5000
     14 H         -12.9456  -66.1827   -1.3336 H         1 UNL1        0.0000
     15 H         -13.9331  -65.4135   -0.1147 H         1 UNL1        0.0000
     16 H         -12.2042  -65.1624   -0.1236 H         1 UNL1        0.0000
     17 H         -14.1540  -62.6305   -3.7010 H         1 UNL1        0.0000
     18 H         -14.5237  -60.6056   -4.9348 H         1 UNL1        0.0000
     19 H         -14.2288  -58.4845   -3.8182 H         1 UNL1        0.0000
     20 H         -13.5730  -58.4099   -1.5019 H         1 UNL1        0.0000
@<TRIPOS>BOND
     1    1    2 1
     2    1   14 1
     3    1   15 1
     4    1   16 1
     5    2   10 2
     6    2   11 1
     7    3    4 ar
     8    3    8 ar
     9    3   11 1
    10    4    5 ar
    11    4   17 1
    12    5    6 ar
    13    5   18 1
    14    6    7 ar
    15    6   19 1
    16    7    8 ar
    17    7   20 1
    18    8    9 1
    19    9   12 ar
    20    9   13 ar
@<TRIPOS>SUBSTRUCTURE
1 UNL1 1
@<TRIPOS>COMMENT
aspirin
PLANTSproteinTorsions
102
1 16.5372
42 322.0953
151 338.8754
173 8.1569
432 191.2150
491 26.2153
531 132.5651
563 261.7550
572 297.3315
629 194.1161
730 24.7267
826 120.4515
895 253.2179
921 238.3821
954 69.8432
1044 59.0280
1258 145.4225
1480 54.9350
1534 96.0901
1612 149.7746
1654 270.3480
1680 329.6231
1704 135.8718
1767 319.7662
1795 178.6316
1847 120.5348
1879 185.3316
1921 225.9218
1944 250.9225
1966 39.1608
1975 61.1909
2067 81.9453
2118 56.9619
2167 133.7270
2220 96.4647
2243 129.5348
2272 122.0375
2294 18.6625
2609 257.3226
2728 191.7852
2931 56.6666
3031 71.5617
3044 83.8439
3058 211.8441
3085 161.8012
3166 300.7386
3188 277.8065
3496 154.8996
3614 20.7798
3656 132.6757
3697 151.7027
3722 193.5173
3847 70.2646
3888 42.3102
4051 170.2601
4174 2.7355
4734 92.1314
4804 223.5220
4952 264.7554
5093 59.1499
5103 228.1534
5144 305.2881
5332 233.6909
5363 95.5481
5457 20.5694
5683 112.1785
5900 59.7610
6049 230.5656
6089 65.7260
6125 182.4833
6181 202.8174
6190 52.5729
6214 280.5038
6331 151.4685
6344 174.5991
6432 170.6175
7006 280.3210
7253 195.7459
7344 73.0257
7385 22.0252
7394 282.8526
7408 18.2004
7540 232.0033
7948 162.2904
8021 82.4234
8226 147.8571
8265 212.8617
8391 253.9237
8443 11.8483
8487 278.1612
8515 273.2358
8527 206.5043
8693 272.7556
8705 30.1191
8731 52.4649
8771 177.0041
8793 288.1956
8887 233.4855
8910 44.9751
8921 268.6826
8973 201.2913
8998 118.5838
PLANTSmolcadARTstart hb
PLANTSmolcadARTstart HB
LINES
PLANTSmolcadARTstart HBCH
LINES
PLANTSmolcadARTstart HB-CHO
LINES
PLANTSmolcadARTend
PLANTSmolcadARTstart HB_WATER
LINES
PLANTSmolcadARTend

PLANTSmolcadARTend

