@<TRIPOS>MOLECULE
aspirin_entry_00001_conf_62
20 20 1
SMALL
NO_CHARGES


@<TRIPOS>ATOM
      1 C         -15.2403  -48.1807    0.8010 C.3       1 UNL1        0.0000
      2 C         -14.6676  -46.8804    0.3696 C.2       1 UNL1        0.0000
      3 C         -13.4875  -45.5472   -1.2954 C.ar      1 UNL1        0.0000
      4 C         -12.9289  -44.5487   -0.5261 C.ar      1 UNL1        0.0000
      5 C         -12.4122  -43.3812   -1.0522 C.ar      1 UNL1        0.0000
      6 C         -12.4574  -43.2078   -2.4142 C.ar      1 UNL1        0.0000
      7 C         -13.0052  -44.1739   -3.2297 C.ar      1 UNL1        0.0000
      8 C         -13.5173  -45.3411   -2.6610 C.ar      1 UNL1        0.0000
      9 C         -14.0879  -46.3377   -3.5592 C.2       1 UNL1        0.0000
     10 O         -14.7495  -45.8305    1.0764 O.2       1 UNL1        0.0000
     11 O         -14.0104  -46.7181   -0.8174 O.3       1 UNL1        0.0000
     12 O         -14.0895  -46.1611   -4.8043 O.co2     1 UNL1       -0.5000
     13 O         -14.6486  -47.5093   -3.0792 O.co2     1 UNL1       -0.5000
     14 H         -15.7033  -48.0654    1.7587 H         1 UNL1        0.0000
     15 H         -14.4598  -48.9093    0.8677 H         1 UNL1        0.0000
     16 H         -15.9694  -48.5032    0.0877 H         1 UNL1        0.0000
     17 H         -12.8950  -44.6808    0.4966 H         1 UNL1        0.0000
     18 H         -12.0022  -42.6590   -0.4387 H         1 UNL1        0.0000
     19 H         -12.0774  -42.3439   -2.8320 H         1 UNL1        0.0000
     20 H         -13.0355  -44.0366   -4.2524 H         1 UNL1        0.0000
@<TRIPOS>BOND
     1    1    2 1
     2    1   14 1
     3    1   15 1
     4    1   16 1
     5    2   10 2
     6    2   11 1
     7    3    4 ar
     8    3    8 ar
     9    3   11 1
    10    4    5 ar
    11    4   17 1
    12    5    6 ar
    13    5   18 1
    14    6    7 ar
    15    6   19 1
    16    7    8 ar
    17    7   20 1
    18    8    9 1
    19    9   12 ar
    20    9   13 ar
@<TRIPOS>SUBSTRUCTURE
1 UNL1 1
@<TRIPOS>COMMENT
aspirin
PLANTSproteinTorsions
102
1 19.1303
42 117.9982
151 232.1321
173 10.5388
432 238.5537
491 1.7962
531 131.8946
563 257.0948
572 18.3635
629 192.0011
730 63.1331
826 1.0305
895 251.1022
921 277.4316
954 64.9458
1044 60.4369
1258 180.4835
1480 214.5715
1534 186.6390
1612 250.7282
1654 221.7980
1680 0.6470
1704 53.8728
1767 263.9425
1795 356.9802
1847 111.0741
1879 244.1207
1921 218.1830
1944 148.2367
1966 57.2935
1975 221.3319
2067 335.8484
2118 50.7972
2167 136.7759
2220 286.7048
2243 206.7826
2272 263.7658
2294 29.7694
2609 59.7759
2728 310.6195
2931 119.7940
3031 51.7985
3044 300.5528
3058 211.8370
3085 194.8651
3166 42.8886
3188 150.9291
3496 143.9549
3614 15.9918
3656 305.3509
3697 98.3367
3722 188.4968
3847 71.9746
3888 80.4165
4051 234.4406
4174 40.4661
4734 257.5055
4804 209.5380
4952 266.5676
5093 198.6109
5103 237.6467
5144 277.8608
5332 266.7759
5363 96.1059
5457 203.0853
5683 77.1294
5900 105.1677
6049 154.2433
6089 128.3174
6125 106.0719
6181 276.2612
6190 114.0011
6214 238.1406
6331 225.2290
6344 119.3086
6432 195.3781
7006 295.8272
7253 200.7746
7344 187.8288
7385 18.8799
7394 245.9326
7408 218.0363
7540 234.0503
7948 199.0900
8021 263.3657
8226 145.3703
8265 211.3846
8391 122.4128
8443 39.4709
8487 268.6525
8515 228.7569
8527 198.8420
8693 169.8754
8705 47.0368
8731 209.6824
8771 265.6286
8793 273.2492
8887 229.0831
8910 207.1098
8921 243.1272
8973 201.9823
8998 135.9971
PLANTSmolcadARTstart hb
PLANTSmolcadARTstart HB
LINES
PLANTSmolcadARTstart HBCH
LINES
PLANTSmolcadARTstart HB-CHO
LINES
PLANTSmolcadARTend
PLANTSmolcadARTstart HB_WATER
LINES
PLANTSmolcadARTend

PLANTSmolcadARTend

