@<TRIPOS>MOLECULE
aspirin_entry_00001_conf_65
20 20 1
SMALL
NO_CHARGES


@<TRIPOS>ATOM
      1 C         -18.0612  -45.3656    1.1481 C.3       1 UNL1        0.0000
      2 C         -16.9188  -45.9849    0.4297 C.2       1 UNL1        0.0000
      3 C         -14.7822  -45.7563   -0.7214 C.ar      1 UNL1        0.0000
      4 C         -14.8482  -46.7790   -1.6437 C.ar      1 UNL1        0.0000
      5 C         -13.7539  -47.2408   -2.3480 C.ar      1 UNL1        0.0000
      6 C         -12.5363  -46.6482   -2.1164 C.ar      1 UNL1        0.0000
      7 C         -12.4140  -45.6223   -1.2048 C.ar      1 UNL1        0.0000
      8 C         -13.5432  -45.1825   -0.5124 C.ar      1 UNL1        0.0000
      9 C         -13.3702  -44.0948    0.4430 C.2       1 UNL1        0.0000
     10 O         -16.8690  -47.2249    0.1673 O.2       1 UNL1        0.0000
     11 O         -15.8390  -45.2676   -0.0021 O.3       1 UNL1        0.0000
     12 O         -12.2985  -43.4384    0.4890 O.co2     1 UNL1       -0.5000
     13 O         -14.3722  -43.7457    1.3328 O.co2     1 UNL1       -0.5000
     14 H         -18.7837  -46.1187    1.3842 H         1 UNL1        0.0000
     15 H         -18.5123  -44.6215    0.5257 H         1 UNL1        0.0000
     16 H         -17.7103  -44.9110    2.0506 H         1 UNL1        0.0000
     17 H         -15.7635  -47.2225   -1.8171 H         1 UNL1        0.0000
     18 H         -13.8485  -48.0097   -3.0305 H         1 UNL1        0.0000
     19 H         -11.7032  -46.9752   -2.6304 H         1 UNL1        0.0000
     20 H         -11.4957  -45.1817   -1.0362 H         1 UNL1        0.0000
@<TRIPOS>BOND
     1    1    2 1
     2    1   14 1
     3    1   15 1
     4    1   16 1
     5    2   10 2
     6    2   11 1
     7    3    4 ar
     8    3    8 ar
     9    3   11 1
    10    4    5 ar
    11    4   17 1
    12    5    6 ar
    13    5   18 1
    14    6    7 ar
    15    6   19 1
    16    7    8 ar
    17    7   20 1
    18    8    9 1
    19    9   12 ar
    20    9   13 ar
@<TRIPOS>SUBSTRUCTURE
1 UNL1 1
@<TRIPOS>COMMENT
aspirin
PLANTSproteinTorsions
102
1 275.6274
42 125.9490
151 238.3040
173 149.5709
432 196.6990
491 17.8591
531 173.2406
563 116.3416
572 89.7871
629 217.8845
730 263.5645
826 108.1562
895 118.9890
921 292.6702
954 79.4866
1044 314.8012
1258 75.7390
1480 43.1820
1534 91.6723
1612 73.9143
1654 244.5739
1680 124.6724
1704 182.8558
1767 271.3669
1795 53.0038
1847 48.7686
1879 192.2107
1921 216.6584
1944 306.3633
1966 67.3151
1975 321.8131
2067 43.0146
2118 256.3283
2167 263.0334
2220 159.3779
2243 355.9800
2272 296.2502
2294 58.6678
2609 67.3327
2728 339.9058
2931 112.6138
3031 44.5845
3044 355.3483
3058 323.4905
3085 184.0239
3166 317.7031
3188 153.5409
3496 124.1247
3614 285.4490
3656 301.8303
3697 88.4896
3722 222.4338
3847 94.9330
3888 344.8303
4051 194.5551
4174 35.0647
4734 218.5232
4804 291.1483
4952 198.7942
5093 328.4084
5103 258.8923
5144 315.1389
5332 162.2231
5363 124.7372
5457 188.5152
5683 9.0200
5900 263.9708
6049 163.0758
6089 23.5920
6125 95.7256
6181 216.5560
6190 55.3873
6214 275.1057
6331 258.2541
6344 94.1712
6432 268.2247
7006 161.0943
7253 267.0952
7344 100.6963
7385 10.4648
7394 135.8550
7408 62.9099
7540 227.8063
7948 14.5322
8021 292.9241
8226 145.0428
8265 164.7321
8391 117.5458
8443 142.9890
8487 168.1658
8515 59.4279
8527 187.9040
8693 283.2166
8705 215.8982
8731 39.5104
8771 249.8356
8793 258.3549
8887 276.9026
8910 260.3259
8921 219.7229
8973 204.0466
8998 249.8490
PLANTSmolcadARTstart hb
PLANTSmolcadARTstart HB
LINES
-16.869 -47.2249 0.16732 -17.186 -48.736 -1.273 0 255 0 5
-12.2985 -43.4384 0.488983 -10.4262 -43.7837 1.01323 0 255 0 5
PLANTSmolcadARTstart HBCH
LINES
PLANTSmolcadARTstart HB-CHO
LINES
PLANTSmolcadARTend
PLANTSmolcadARTstart HB_WATER
LINES
PLANTSmolcadARTend

PLANTSmolcadARTend

