@<TRIPOS>MOLECULE
aspirin_entry_00001_conf_10
20 20 1
SMALL
NO_CHARGES


@<TRIPOS>ATOM
      1 C           1.3536  -36.9230    3.5453 C.3       1 UNL1        0.0000
      2 C           0.5439  -37.6617    2.5435 C.2       1 UNL1        0.0000
      3 C          -0.2219  -37.9368    0.2457 C.ar      1 UNL1        0.0000
      4 C          -0.3638  -39.3055    0.1605 C.ar      1 UNL1        0.0000
      5 C          -1.0429  -39.9383   -0.8618 C.ar      1 UNL1        0.0000
      6 C          -1.6068  -39.1612   -1.8444 C.ar      1 UNL1        0.0000
      7 C          -1.4946  -37.7884   -1.8081 C.ar      1 UNL1        0.0000
      8 C          -0.8007  -37.1850   -0.7583 C.ar      1 UNL1        0.0000
      9 C          -0.7055  -35.7301   -0.7577 C.2       1 UNL1        0.0000
     10 O          -0.1092  -38.7098    2.8328 O.2       1 UNL1        0.0000
     11 O           0.4413  -37.2685    1.2390 O.3       1 UNL1        0.0000
     12 O          -1.3908  -35.0366   -1.5520 O.co2     1 UNL1       -0.5000
     13 O           0.1396  -35.0596    0.1105 O.co2     1 UNL1       -0.5000
     14 H           1.2824  -37.4146    4.4930 H         1 UNL1        0.0000
     15 H           0.9847  -35.9227    3.6340 H         1 UNL1        0.0000
     16 H           2.3756  -36.8997    3.2303 H         1 UNL1        0.0000
     17 H           0.0596  -39.8878    0.8996 H         1 UNL1        0.0000
     18 H          -1.1254  -40.9672   -0.8865 H         1 UNL1        0.0000
     19 H          -2.1198  -39.6102   -2.6192 H         1 UNL1        0.0000
     20 H          -1.9211  -37.2109   -2.5500 H         1 UNL1        0.0000
@<TRIPOS>BOND
     1    1    2 1
     2    1   14 1
     3    1   15 1
     4    1   16 1
     5    2   10 2
     6    2   11 1
     7    3    4 ar
     8    3    8 ar
     9    3   11 1
    10    4    5 ar
    11    4   17 1
    12    5    6 ar
    13    5   18 1
    14    6    7 ar
    15    6   19 1
    16    7    8 ar
    17    7   20 1
    18    8    9 1
    19    9   12 ar
    20    9   13 ar
@<TRIPOS>SUBSTRUCTURE
1 UNL1 1
@<TRIPOS>COMMENT
aspirin
PLANTSproteinTorsions
102
1 233.0245
42 9.0740
151 2.7798
173 292.7138
432 332.6623
491 160.5271
531 314.4516
563 113.5241
572 62.9121
629 231.7094
730 27.7623
826 182.6186
895 137.7164
921 83.8288
954 101.8564
1044 276.4948
1258 39.7856
1480 123.2054
1534 214.9121
1612 102.6582
1654 29.5522
1680 121.2787
1704 208.9433
1767 200.8859
1795 65.0767
1847 187.3223
1879 113.6900
1921 0.2494
1944 6.4875
1966 105.4196
1975 333.2542
2067 8.5307
2118 143.2301
2167 105.2183
2220 253.0396
2243 81.5895
2272 351.1406
2294 83.1651
2609 28.6496
2728 256.8288
2931 50.7470
3031 306.0046
3044 155.6275
3058 217.0078
3085 188.4303
3166 198.6836
3188 139.8326
3496 57.9669
3614 155.7194
3656 206.5597
3697 336.6096
3722 73.2390
3847 144.8425
3888 27.4157
4051 63.7795
4174 114.3046
4734 145.5738
4804 273.9220
4952 136.4460
5093 101.8404
5103 220.8574
5144 207.9210
5332 263.8229
5363 70.6799
5457 14.0105
5683 91.1387
5900 52.2234
6049 70.2258
6089 165.1158
6125 112.3255
6181 98.1324
6190 85.2893
6214 199.9360
6331 92.2789
6344 103.1168
6432 200.6698
7006 122.5248
7253 300.7385
7344 132.3793
7385 107.1976
7394 176.6158
7408 78.8034
7540 200.6725
7948 254.7329
8021 96.3135
8226 79.8193
8265 129.0338
8391 74.7974
8443 66.5042
8487 152.2264
8515 268.7351
8527 18.6310
8693 135.7077
8705 110.2077
8731 225.9563
8771 180.4752
8793 96.9371
8887 52.0639
8910 170.1080
8921 137.1676
8973 147.9292
8998 178.4446
PLANTSmolcadARTstart hb
PLANTSmolcadARTstart HB
LINES
PLANTSmolcadARTstart HBCH
LINES
PLANTSmolcadARTstart HB-CHO
LINES
PLANTSmolcadARTend
PLANTSmolcadARTstart HB_WATER
LINES
PLANTSmolcadARTend

PLANTSmolcadARTend

