@<TRIPOS>MOLECULE
aspirin_entry_00001_conf_84
20 20 1
SMALL
NO_CHARGES


@<TRIPOS>ATOM
      1 C         -14.9416  -39.7036   -0.6205 C.3       1 UNL1        0.0000
      2 C         -14.2452  -40.9742   -0.2960 C.2       1 UNL1        0.0000
      3 C         -13.7910  -43.2649   -0.9949 C.ar      1 UNL1        0.0000
      4 C         -14.0758  -43.9106    0.1896 C.ar      1 UNL1        0.0000
      5 C         -13.8761  -45.2626    0.3868 C.ar      1 UNL1        0.0000
      6 C         -13.3674  -46.0017   -0.6536 C.ar      1 UNL1        0.0000
      7 C         -13.0648  -45.4065   -1.8588 C.ar      1 UNL1        0.0000
      8 C         -13.2808  -44.0371   -2.0203 C.ar      1 UNL1        0.0000
      9 C         -12.9473  -43.4470   -3.3111 C.2       1 UNL1        0.0000
     10 O         -13.8562  -41.2589    0.8772 O.2       1 UNL1        0.0000
     11 O         -13.9728  -41.9297   -1.2339 O.3       1 UNL1        0.0000
     12 O         -12.2903  -44.0926   -4.1673 O.co2     1 UNL1       -0.5000
     13 O         -13.3369  -42.1600   -3.6418 O.co2     1 UNL1       -0.5000
     14 H         -15.0436  -39.1165    0.2683 H         1 UNL1        0.0000
     15 H         -15.9110  -39.9200   -1.0179 H         1 UNL1        0.0000
     16 H         -14.3722  -39.1601   -1.3448 H         1 UNL1        0.0000
     17 H         -14.4585  -43.3543    0.9697 H         1 UNL1        0.0000
     18 H         -14.1038  -45.7060    1.2910 H         1 UNL1        0.0000
     19 H         -13.2093  -47.0142   -0.5313 H         1 UNL1        0.0000
     20 H         -12.6830  -45.9684   -2.6361 H         1 UNL1        0.0000
@<TRIPOS>BOND
     1    1    2 1
     2    1   14 1
     3    1   15 1
     4    1   16 1
     5    2   10 2
     6    2   11 1
     7    3    4 ar
     8    3    8 ar
     9    3   11 1
    10    4    5 ar
    11    4   17 1
    12    5    6 ar
    13    5   18 1
    14    6    7 ar
    15    6   19 1
    16    7    8 ar
    17    7   20 1
    18    8    9 1
    19    9   12 ar
    20    9   13 ar
@<TRIPOS>SUBSTRUCTURE
1 UNL1 1
@<TRIPOS>COMMENT
aspirin
PLANTSproteinTorsions
102
1 38.3704
42 349.4095
151 288.0710
173 49.4872
432 87.8269
491 33.8437
531 141.5302
563 73.7379
572 83.0289
629 190.2568
730 85.4818
826 21.3308
895 275.4022
921 309.9004
954 45.2138
1044 105.2078
1258 220.0123
1480 225.6159
1534 61.6920
1612 179.3076
1654 244.6104
1680 256.2781
1704 148.5759
1767 285.4199
1795 255.4689
1847 115.0542
1879 177.6048
1921 85.0711
1944 222.7709
1966 51.5568
1975 220.0729
2067 21.9013
2118 186.7242
2167 135.7180
2220 231.1028
2243 194.9246
2272 302.0615
2294 85.6466
2609 159.0799
2728 294.3333
2931 110.0297
3031 42.8932
3044 87.6641
3058 299.6583
3085 187.0053
3166 249.8785
3188 57.3983
3496 298.6187
3614 293.2261
3656 136.8420
3697 128.6425
3722 263.7015
3847 73.0837
3888 67.8138
4051 171.8368
4174 65.5167
4734 252.0224
4804 231.4361
4952 272.3169
5093 83.3775
5103 175.7128
5144 207.0474
5332 165.3634
5363 95.6925
5457 277.8008
5683 123.6913
5900 57.9317
6049 239.1507
6089 262.1804
6125 100.1703
6181 206.3784
6190 52.8150
6214 59.9952
6331 231.8439
6344 71.2645
6432 80.5017
7006 291.8175
7253 35.4800
7344 72.9233
7385 65.1025
7394 242.2164
7408 55.9144
7540 184.1092
7948 160.0317
8021 161.0242
8226 235.9697
8265 259.3472
8391 134.7902
8443 297.1131
8487 55.3699
8515 286.7128
8527 221.8582
8693 308.0227
8705 104.6820
8731 232.9474
8771 287.9447
8793 170.3976
8887 231.0787
8910 49.2276
8921 260.0585
8973 203.7562
8998 284.0223
PLANTSmolcadARTstart hb
PLANTSmolcadARTstart HB
LINES
PLANTSmolcadARTstart HBCH
LINES
-13.3369 -42.16 -3.64179 -12.228 -40.893 -4.598 255 0 0 5
PLANTSmolcadARTstart HB-CHO
LINES
PLANTSmolcadARTend
PLANTSmolcadARTstart HB_WATER
LINES
PLANTSmolcadARTend

PLANTSmolcadARTend

