@<TRIPOS>MOLECULE
aspirin_entry_00001_conf_80
20 20 1
SMALL
NO_CHARGES


@<TRIPOS>ATOM
      1 C         -32.4161  -42.4275    3.5903 C.3       1 UNL1        0.0000
      2 C         -32.2579  -42.5861    5.0581 C.2       1 UNL1        0.0000
      3 C         -33.7226  -44.5236    5.2648 C.ar      1 UNL1        0.0000
      4 C         -34.6374  -44.2860    4.2609 C.ar      1 UNL1        0.0000
      5 C         -35.5194  -45.2400    3.7933 C.ar      1 UNL1        0.0000
      6 C         -35.4813  -46.4913    4.3589 C.ar      1 UNL1        0.0000
      7 C         -34.5871  -46.7825    5.3659 C.ar      1 UNL1        0.0000
      8 C         -33.7108  -45.7920    5.8119 C.ar      1 UNL1        0.0000
      9 C         -32.7808  -46.1415    6.8789 C.2       1 UNL1        0.0000
     10 O         -31.5785  -41.7792    5.7625 O.2       1 UNL1        0.0000
     11 O         -32.8314  -43.6097    5.7583 O.3       1 UNL1        0.0000
     12 O         -32.2040  -45.2498    7.5524 O.co2     1 UNL1       -0.5000
     13 O         -32.4965  -47.4609    7.1890 O.co2     1 UNL1       -0.5000
     14 H         -31.8815  -41.5590    3.2664 H         1 UNL1        0.0000
     15 H         -33.4535  -42.3163    3.3536 H         1 UNL1        0.0000
     16 H         -32.0277  -43.2921    3.0945 H         1 UNL1        0.0000
     17 H         -34.6642  -43.3459    3.8366 H         1 UNL1        0.0000
     18 H         -36.1884  -45.0190    3.0386 H         1 UNL1        0.0000
     19 H         -36.1302  -47.2219    4.0267 H         1 UNL1        0.0000
     20 H         -34.5642  -47.7252    5.7861 H         1 UNL1        0.0000
@<TRIPOS>BOND
     1    1    2 1
     2    1   14 1
     3    1   15 1
     4    1   16 1
     5    2   10 2
     6    2   11 1
     7    3    4 ar
     8    3    8 ar
     9    3   11 1
    10    4    5 ar
    11    4   17 1
    12    5    6 ar
    13    5   18 1
    14    6    7 ar
    15    6   19 1
    16    7    8 ar
    17    7   20 1
    18    8    9 1
    19    9   12 ar
    20    9   13 ar
@<TRIPOS>SUBSTRUCTURE
1 UNL1 1
@<TRIPOS>COMMENT
aspirin
PLANTSproteinTorsions
102
1 331.0451
42 198.9078
151 184.8529
173 146.7660
432 24.1994
491 157.6457
531 81.9974
563 265.9312
572 221.6790
629 170.5572
730 13.0989
826 234.8672
895 155.3169
921 160.6538
954 161.3170
1044 179.8427
1258 316.9281
1480 37.4714
1534 104.6736
1612 3.4270
1654 62.5064
1680 98.9020
1704 125.6720
1767 1.0998
1795 217.6900
1847 66.4808
1879 141.3594
1921 211.6061
1944 113.8427
1966 204.9559
1975 94.2994
2067 172.7198
2118 219.2810
2167 180.4185
2220 232.2118
2243 206.4654
2272 80.4049
2294 327.4709
2609 160.6792
2728 71.6964
2931 152.4715
3031 149.7555
3044 28.9707
3058 39.0820
3085 266.6578
3166 18.7341
3188 283.0196
3496 143.3681
3614 277.7885
3656 213.8012
3697 167.9684
3722 214.9844
3847 284.1826
3888 97.0198
4051 266.9088
4174 273.0556
4734 289.7892
4804 307.8896
4952 312.6198
5093 243.4415
5103 254.0387
5144 134.0132
5332 246.5681
5363 234.9152
5457 59.3264
5683 40.8344
5900 144.3801
6049 172.8641
6089 216.3287
6125 159.0378
6181 166.1211
6190 92.5509
6214 272.3102
6331 107.6807
6344 293.0874
6432 269.2441
7006 9.8307
7253 170.0406
7344 108.2106
7385 57.0396
7394 157.7509
7408 258.9540
7540 79.6767
7948 84.0926
8021 142.0587
8226 122.1386
8265 280.6470
8391 277.0128
8443 241.2742
8487 123.0550
8515 269.8892
8527 93.2293
8693 236.2890
8705 42.0298
8731 219.6353
8771 172.1746
8793 182.8826
8887 80.1991
8910 130.7175
8921 249.7022
8973 225.5972
8998 289.8969
PLANTSmolcadARTstart hb
PLANTSmolcadARTstart HB
LINES
PLANTSmolcadARTstart HBCH
LINES
PLANTSmolcadARTstart HB-CHO
LINES
PLANTSmolcadARTend
PLANTSmolcadARTstart HB_WATER
LINES
PLANTSmolcadARTend

PLANTSmolcadARTend

