@<TRIPOS>MOLECULE
aspirin_entry_00001_conf_60
20 20 1
SMALL
NO_CHARGES


@<TRIPOS>ATOM
      1 C         -25.3909  -32.7231    4.8494 C.3       1 UNL1        0.0000
      2 C         -24.8386  -33.6821    3.8595 C.2       1 UNL1        0.0000
      3 C         -25.2043  -35.4426    2.2135 C.ar      1 UNL1        0.0000
      4 C         -24.2461  -35.1311    1.2723 C.ar      1 UNL1        0.0000
      5 C         -23.8731  -35.9858    0.2539 C.ar      1 UNL1        0.0000
      6 C         -24.4899  -37.2109    0.1767 C.ar      1 UNL1        0.0000
      7 C         -25.4548  -37.5729    1.0914 C.ar      1 UNL1        0.0000
      8 C         -25.8048  -36.6820    2.1071 C.ar      1 UNL1        0.0000
      9 C         -26.8300  -37.1040    3.0539 C.2       1 UNL1        0.0000
     10 O         -23.6153  -33.6884    3.5244 O.2       1 UNL1        0.0000
     11 O         -25.6042  -34.6277    3.2377 O.3       1 UNL1        0.0000
     12 O         -27.6325  -38.0294    2.7688 O.co2     1 UNL1       -0.5000
     13 O         -26.9606  -36.5048    4.2954 O.co2     1 UNL1       -0.5000
     14 H         -24.6083  -32.0831    5.2000 H         1 UNL1        0.0000
     15 H         -25.8068  -33.2625    5.6744 H         1 UNL1        0.0000
     16 H         -26.1546  -32.1339    4.3870 H         1 UNL1        0.0000
     17 H         -23.7832  -34.2110    1.3320 H         1 UNL1        0.0000
     18 H         -23.1498  -35.7120   -0.4301 H         1 UNL1        0.0000
     19 H         -24.2286  -37.8679   -0.5751 H         1 UNL1        0.0000
     20 H         -25.9138  -38.4953    1.0271 H         1 UNL1        0.0000
@<TRIPOS>BOND
     1    1    2 1
     2    1   14 1
     3    1   15 1
     4    1   16 1
     5    2   10 2
     6    2   11 1
     7    3    4 ar
     8    3    8 ar
     9    3   11 1
    10    4    5 ar
    11    4   17 1
    12    5    6 ar
    13    5   18 1
    14    6    7 ar
    15    6   19 1
    16    7    8 ar
    17    7   20 1
    18    8    9 1
    19    9   12 ar
    20    9   13 ar
@<TRIPOS>SUBSTRUCTURE
1 UNL1 1
@<TRIPOS>COMMENT
aspirin
PLANTSproteinTorsions
102
1 213.9807
42 228.9406
151 149.2899
173 18.4052
432 246.6799
491 228.0695
531 150.8250
563 186.6877
572 61.9608
629 322.6203
730 48.4571
826 269.0123
895 200.7813
921 142.8333
954 87.0018
1044 204.3989
1258 28.1493
1480 127.8965
1534 177.9093
1612 216.0536
1654 51.7078
1680 103.9517
1704 167.1844
1767 122.6812
1795 142.4557
1847 183.0376
1879 122.4893
1921 227.1987
1944 232.2990
1966 101.9064
1975 8.7806
2067 132.4247
2118 133.4798
2167 298.5668
2220 38.1329
2243 147.0476
2272 330.8317
2294 20.5562
2609 54.6605
2728 172.8526
2931 357.9550
3031 27.2751
3044 183.0701
3058 206.0926
3085 328.6676
3166 253.8691
3188 18.8569
3496 109.9143
3614 146.8336
3656 71.8574
3697 47.6117
3722 154.7457
3847 131.8245
3888 30.1497
4051 303.3581
4174 122.3908
4734 170.6515
4804 285.3195
4952 109.2560
5093 91.2182
5103 78.7366
5144 166.1161
5332 284.7771
5363 62.1999
5457 352.7699
5683 85.9533
5900 105.5915
6049 123.2485
6089 294.7932
6125 334.1074
6181 300.6977
6190 79.8868
6214 190.3250
6331 83.9073
6344 90.7335
6432 200.4012
7006 252.7641
7253 19.7136
7344 116.5117
7385 275.6749
7394 61.3978
7408 102.9799
7540 98.5882
7948 266.3617
8021 177.2335
8226 349.0046
8265 91.8648
8391 72.7362
8443 62.2758
8487 173.5085
8515 255.5445
8527 254.1568
8693 69.1867
8705 291.6972
8731 216.4535
8771 175.4911
8793 86.9121
8887 72.3413
8910 151.1229
8921 65.4190
8973 230.3620
8998 84.0439
PLANTSmolcadARTstart hb
PLANTSmolcadARTstart HB
LINES
PLANTSmolcadARTstart HBCH
LINES
PLANTSmolcadARTstart HB-CHO
LINES
PLANTSmolcadARTend
PLANTSmolcadARTstart HB_WATER
LINES
PLANTSmolcadARTend

PLANTSmolcadARTend

