@<TRIPOS>MOLECULE
aspirin_entry_00001_conf_26
20 20 1
SMALL
NO_CHARGES


@<TRIPOS>ATOM
      1 C         -33.4886  -42.6520    6.5881 C.3       1 UNL1        0.0000
      2 C         -32.2685  -41.8762    6.2504 C.2       1 UNL1        0.0000
      3 C         -32.2733  -42.4265    3.8756 C.ar      1 UNL1        0.0000
      4 C         -32.7934  -43.7032    3.8567 C.ar      1 UNL1        0.0000
      5 C         -33.2873  -44.3072    2.7173 C.ar      1 UNL1        0.0000
      6 C         -33.2586  -43.5965    1.5420 C.ar      1 UNL1        0.0000
      7 C         -32.7491  -42.3169    1.5046 C.ar      1 UNL1        0.0000
      8 C         -32.2592  -41.7397    2.6772 C.ar      1 UNL1        0.0000
      9 C         -31.7290  -40.3841    2.5940 C.2       1 UNL1        0.0000
     10 O         -31.6009  -41.2405    7.1217 O.2       1 UNL1        0.0000
     11 O         -31.7741  -41.7898    4.9795 O.3       1 UNL1        0.0000
     12 O         -31.0608  -39.8916    3.5386 O.co2     1 UNL1       -0.5000
     13 O         -31.9411  -39.5903    1.4793 O.co2     1 UNL1       -0.5000
     14 H         -33.6804  -42.5747    7.6379 H         1 UNL1        0.0000
     15 H         -33.3413  -43.6791    6.3273 H         1 UNL1        0.0000
     16 H         -34.3217  -42.2613    6.0426 H         1 UNL1        0.0000
     17 H         -32.8150  -44.2354    4.7403 H         1 UNL1        0.0000
     18 H         -33.6685  -45.2662    2.7483 H         1 UNL1        0.0000
     19 H         -33.6221  -44.0257    0.6767 H         1 UNL1        0.0000
     20 H         -32.7309  -41.7889    0.6177 H         1 UNL1        0.0000
@<TRIPOS>BOND
     1    1    2 1
     2    1   14 1
     3    1   15 1
     4    1   16 1
     5    2   10 2
     6    2   11 1
     7    3    4 ar
     8    3    8 ar
     9    3   11 1
    10    4    5 ar
    11    4   17 1
    12    5    6 ar
    13    5   18 1
    14    6    7 ar
    15    6   19 1
    16    7    8 ar
    17    7   20 1
    18    8    9 1
    19    9   12 ar
    20    9   13 ar
@<TRIPOS>SUBSTRUCTURE
1 UNL1 1
@<TRIPOS>COMMENT
aspirin
PLANTSproteinTorsions
102
1 38.1202
42 126.0667
151 61.6794
173 22.0959
432 202.4279
491 181.5971
531 112.2300
563 118.3676
572 122.3948
629 244.4819
730 231.5028
826 128.8624
895 125.5580
921 149.6423
954 198.9229
1044 79.8295
1258 177.9991
1480 140.0226
1534 111.1679
1612 37.6592
1654 158.7494
1680 25.3352
1704 157.0074
1767 55.6687
1795 80.3463
1847 195.9898
1879 99.9059
1921 344.8857
1944 327.9754
1966 16.8669
1975 140.1552
2067 30.9814
2118 53.1445
2167 174.8150
2220 82.3687
2243 85.9131
2272 301.8103
2294 105.9499
2609 198.8287
2728 171.4191
2931 272.6970
3031 190.4382
3044 140.5788
3058 357.1247
3085 63.2149
3166 329.5204
3188 114.0093
3496 180.0186
3614 7.4650
3656 131.1662
3697 172.0234
3722 119.4178
3847 222.5343
3888 50.7148
4051 149.9434
4174 81.8566
4734 127.9061
4804 96.0407
4952 210.2133
5093 247.3707
5103 224.4156
5144 219.3656
5332 26.9538
5363 108.3442
5457 144.0027
5683 34.4261
5900 146.5843
6049 47.9940
6089 37.3317
6125 171.3475
6181 218.3750
6190 141.2548
6214 26.0434
6331 194.8858
6344 109.5746
6432 208.8759
7006 9.3805
7253 173.3603
7344 63.9500
7385 150.6426
7394 49.4297
7408 309.4038
7540 241.3458
7948 229.8389
8021 156.4006
8226 159.5851
8265 231.7328
8391 166.2626
8443 264.6514
8487 33.2192
8515 293.6221
8527 118.9557
8693 276.2666
8705 143.0893
8731 258.1067
8771 182.3895
8793 286.5185
8887 251.5764
8910 244.7645
8921 165.3675
8973 124.5589
8998 174.2767
PLANTSmolcadARTstart hb
PLANTSmolcadARTstart HB
LINES
PLANTSmolcadARTstart HBCH
LINES
-31.0608 -39.8916 3.53865 -29.156 -40.484 3.458 255 0 0 5
PLANTSmolcadARTstart HB-CHO
LINES
PLANTSmolcadARTend
PLANTSmolcadARTstart HB_WATER
LINES
PLANTSmolcadARTend

PLANTSmolcadARTend

