@<TRIPOS>MOLECULE
aspirin_entry_00001_conf_07
20 20 1
SMALL
NO_CHARGES


@<TRIPOS>ATOM
      1 C         -29.4078  -47.0729  -18.4943 C.3       1 UNL1        0.0000
      2 C         -30.5777  -47.8403  -17.9972 C.2       1 UNL1        0.0000
      3 C         -32.2553  -46.5341  -19.1897 C.ar      1 UNL1        0.0000
      4 C         -31.7162  -45.2656  -19.2254 C.ar      1 UNL1        0.0000
      5 C         -32.1431  -44.2812  -20.0946 C.ar      1 UNL1        0.0000
      6 C         -33.1581  -44.5841  -20.9695 C.ar      1 UNL1        0.0000
      7 C         -33.7327  -45.8363  -20.9758 C.ar      1 UNL1        0.0000
      8 C         -33.2739  -46.8054  -20.0823 C.ar      1 UNL1        0.0000
      9 C         -33.9090  -48.1172  -20.1219 C.2       1 UNL1        0.0000
     10 O         -30.4614  -48.8295  -17.2119 O.2       1 UNL1        0.0000
     11 O         -31.8638  -47.5387  -18.3467 O.3       1 UNL1        0.0000
     12 O         -34.8755  -48.3451  -20.8934 O.co2     1 UNL1       -0.5000
     13 O         -33.4766  -49.1562  -19.3149 O.co2     1 UNL1       -0.5000
     14 H         -28.5100  -47.4897  -18.0878 H         1 UNL1        0.0000
     15 H         -29.4963  -46.0512  -18.1897 H         1 UNL1        0.0000
     16 H         -29.3749  -47.1253  -19.5622 H         1 UNL1        0.0000
     17 H         -30.9535  -45.0399  -18.5683 H         1 UNL1        0.0000
     18 H         -31.7107  -43.3437  -20.0877 H         1 UNL1        0.0000
     19 H         -33.4949  -43.8656  -21.6294 H         1 UNL1        0.0000
     20 H         -34.4949  -46.0566  -21.6363 H         1 UNL1        0.0000
@<TRIPOS>BOND
     1    1    2 1
     2    1   14 1
     3    1   15 1
     4    1   16 1
     5    2   10 2
     6    2   11 1
     7    3    4 ar
     8    3    8 ar
     9    3   11 1
    10    4    5 ar
    11    4   17 1
    12    5    6 ar
    13    5   18 1
    14    6    7 ar
    15    6   19 1
    16    7    8 ar
    17    7   20 1
    18    8    9 1
    19    9   12 ar
    20    9   13 ar
@<TRIPOS>SUBSTRUCTURE
1 UNL1 1
@<TRIPOS>COMMENT
aspirin
PLANTSproteinTorsions
102
1 220.4083
42 222.3675
151 207.2719
173 65.3645
432 35.4553
491 348.8972
531 132.7372
563 228.5144
572 166.3491
629 126.0363
730 250.0165
826 253.8086
895 15.3942
921 153.5036
954 139.7261
1044 222.3212
1258 82.7367
1480 1.3962
1534 17.2563
1612 35.8788
1654 154.8112
1680 172.8321
1704 120.2462
1767 356.3140
1795 205.3959
1847 8.9637
1879 57.4403
1921 178.4771
1944 154.0499
1966 235.6705
1975 149.6505
2067 184.5564
2118 141.0604
2167 127.5620
2220 212.0505
2243 199.0693
2272 175.2908
2294 90.5552
2609 60.7003
2728 12.8712
2931 137.1258
3031 165.2444
3044 131.5980
3058 49.3399
3085 21.6503
3166 193.2165
3188 36.6995
3496 73.0723
3614 219.0411
3656 160.7913
3697 27.5033
3722 177.7184
3847 82.3023
3888 98.5450
4051 245.5658
4174 275.5656
4734 287.0254
4804 278.3704
4952 327.1495
5093 14.4954
5103 5.3803
5144 131.5424
5332 253.8881
5363 194.7100
5457 223.0119
5683 117.3582
5900 192.7408
6049 323.5587
6089 255.7149
6125 52.2695
6181 89.2828
6190 90.2495
6214 326.2649
6331 73.0985
6344 159.6161
6432 63.0112
7006 67.2414
7253 140.8328
7344 139.7171
7385 135.8271
7394 132.3835
7408 251.0732
7540 127.1272
7948 195.1572
8021 261.1086
8226 116.7065
8265 254.3465
8391 127.5999
8443 181.6584
8487 42.8224
8515 13.9223
8527 228.5710
8693 254.8820
8705 90.9368
8731 195.3367
8771 296.6204
8793 206.1564
8887 51.8744
8910 55.9000
8921 124.0685
8973 255.7038
8998 248.7839
PLANTSmolcadARTstart hb
PLANTSmolcadARTstart HB
LINES
PLANTSmolcadARTstart HBCH
LINES
-33.4766 -49.1562 -19.3149 -33.227 -50.606 -17.911 255 0 0 5
-33.4766 -49.1562 -19.3149 -33.219 -51.117 -20.111 255 0 0 5
PLANTSmolcadARTstart HB-CHO
LINES
PLANTSmolcadARTend
PLANTSmolcadARTstart HB_WATER
LINES
PLANTSmolcadARTend

PLANTSmolcadARTend

