@<TRIPOS>MOLECULE
aspirin_entry_00001_conf_28
20 20 1
SMALL
NO_CHARGES


@<TRIPOS>ATOM
      1 C         -13.1902  -65.7777   -1.2044 C.3       1 UNL1        0.0000
      2 C         -13.6118  -64.3541   -1.2191 C.2       1 UNL1        0.0000
      3 C         -13.6319  -62.1821   -2.3257 C.ar      1 UNL1        0.0000
      4 C         -13.5491  -61.3281   -1.2465 C.ar      1 UNL1        0.0000
      5 C         -13.7899  -59.9709   -1.3294 C.ar      1 UNL1        0.0000
      6 C         -14.1289  -59.4459   -2.5528 C.ar      1 UNL1        0.0000
      7 C         -14.2263  -60.2546   -3.6641 C.ar      1 UNL1        0.0000
      8 C         -13.9751  -61.6219   -3.5408 C.ar      1 UNL1        0.0000
      9 C         -14.0890  -62.4418   -4.7410 C.2       1 UNL1        0.0000
     10 O         -14.1958  -63.8050   -0.2361 O.2       1 UNL1        0.0000
     11 O         -13.4020  -63.5308   -2.2893 O.3       1 UNL1        0.0000
     12 O         -14.3148  -61.9194   -5.8624 O.co2     1 UNL1       -0.5000
     13 O         -13.9559  -63.8193   -4.6928 O.co2     1 UNL1       -0.5000
     14 H         -13.4574  -66.2184   -0.2667 H         1 UNL1        0.0000
     15 H         -12.1303  -65.8369   -1.3370 H         1 UNL1        0.0000
     16 H         -13.6789  -66.3023   -1.9983 H         1 UNL1        0.0000
     17 H         -13.2937  -61.7238   -0.3285 H         1 UNL1        0.0000
     18 H         -13.7162  -59.3673   -0.4950 H         1 UNL1        0.0000
     19 H         -14.3135  -58.4343   -2.6410 H         1 UNL1        0.0000
     20 H         -14.4814  -59.8528   -4.5802 H         1 UNL1        0.0000
@<TRIPOS>BOND
     1    1    2 1
     2    1   14 1
     3    1   15 1
     4    1   16 1
     5    2   10 2
     6    2   11 1
     7    3    4 ar
     8    3    8 ar
     9    3   11 1
    10    4    5 ar
    11    4   17 1
    12    5    6 ar
    13    5   18 1
    14    6    7 ar
    15    6   19 1
    16    7    8 ar
    17    7   20 1
    18    8    9 1
    19    9   12 ar
    20    9   13 ar
@<TRIPOS>SUBSTRUCTURE
1 UNL1 1
@<TRIPOS>COMMENT
aspirin
PLANTSproteinTorsions
102
1 249.2231
42 21.1522
151 69.5017
173 40.0215
432 241.4846
491 20.3239
531 140.2059
563 261.1408
572 232.9090
629 183.8665
730 31.6887
826 44.6243
895 264.4116
921 239.7984
954 75.6748
1044 49.2786
1258 128.7431
1480 222.7860
1534 61.4159
1612 257.5937
1654 223.5935
1680 348.7274
1704 54.8342
1767 293.6388
1795 266.4999
1847 105.2076
1879 206.7179
1921 249.1652
1944 317.0066
1966 56.8580
1975 72.0147
2067 8.1369
2118 60.5777
2167 138.6302
2220 177.1895
2243 12.8958
2272 52.5920
2294 8.9402
2609 59.6903
2728 225.1788
2931 106.6822
3031 43.8820
3044 320.8094
3058 202.8739
3085 193.2513
3166 327.3455
3188 271.6785
3496 167.2115
3614 288.5016
3656 292.9220
3697 50.3332
3722 216.2237
3847 137.9014
3888 90.1791
4051 216.1667
4174 129.4498
4734 265.3587
4804 217.6782
4952 207.9229
5093 204.0782
5103 238.8475
5144 181.4106
5332 128.3041
5363 94.0247
5457 266.1777
5683 127.6718
5900 103.5930
6049 163.2365
6089 74.8373
6125 109.1603
6181 235.8034
6190 176.0428
6214 265.8091
6331 21.9857
6344 65.8119
6432 193.9883
7006 250.5722
7253 182.4328
7344 69.4021
7385 42.6431
7394 235.6472
7408 228.9252
7540 228.1536
7948 101.0039
8021 269.4324
8226 145.8487
8265 176.0081
8391 243.4352
8443 144.7106
8487 279.0950
8515 205.7487
8527 229.9313
8693 279.1083
8705 51.0553
8731 54.4755
8771 303.6349
8793 281.9408
8887 331.9299
8910 224.5373
8921 349.2216
8973 192.1541
8998 51.6355
PLANTSmolcadARTstart hb
PLANTSmolcadARTstart HB
LINES
PLANTSmolcadARTstart HBCH
LINES
PLANTSmolcadARTstart HB-CHO
LINES
PLANTSmolcadARTend
PLANTSmolcadARTstart HB_WATER
LINES
PLANTSmolcadARTend

PLANTSmolcadARTend

