@<TRIPOS>MOLECULE
aspirin_entry_00001_conf_12
20 20 1
SMALL
NO_CHARGES


@<TRIPOS>ATOM
      1 C         -36.9468  -45.1078    4.4565 C.3       1 UNL1        0.0000
      2 C         -36.0553  -46.1679    3.9214 C.2       1 UNL1        0.0000
      3 C         -34.1207  -45.5979    5.2905 C.ar      1 UNL1        0.0000
      4 C         -34.1065  -44.2193    5.2727 C.ar      1 UNL1        0.0000
      5 C         -33.4059  -43.4534    6.1833 C.ar      1 UNL1        0.0000
      6 C         -32.6864  -44.1010    7.1581 C.ar      1 UNL1        0.0000
      7 C         -32.6656  -45.4773    7.2213 C.ar      1 UNL1        0.0000
      8 C         -33.3868  -46.2174    6.2833 C.ar      1 UNL1        0.0000
      9 C         -33.3380  -47.6710    6.3858 C.2       1 UNL1        0.0000
     10 O         -36.4004  -46.9347    2.9719 O.2       1 UNL1        0.0000
     11 O         -34.7996  -46.3955    4.4096 O.3       1 UNL1        0.0000
     12 O         -32.8914  -48.2321    7.4188 O.co2     1 UNL1       -0.5000
     13 O         -33.7770  -48.4852    5.3553 O.co2     1 UNL1       -0.5000
     14 H         -37.8729  -45.1176    3.9207 H         1 UNL1        0.0000
     15 H         -36.4768  -44.1540    4.3386 H         1 UNL1        0.0000
     16 H         -37.1320  -45.2884    5.4944 H         1 UNL1        0.0000
     17 H         -34.6480  -43.7344    4.5405 H         1 UNL1        0.0000
     18 H         -33.4233  -42.4222    6.1335 H         1 UNL1        0.0000
     19 H         -32.1545  -43.5510    7.8507 H         1 UNL1        0.0000
     20 H         -32.1227  -45.9569    7.9568 H         1 UNL1        0.0000
@<TRIPOS>BOND
     1    1    2 1
     2    1   14 1
     3    1   15 1
     4    1   16 1
     5    2   10 2
     6    2   11 1
     7    3    4 ar
     8    3    8 ar
     9    3   11 1
    10    4    5 ar
    11    4   17 1
    12    5    6 ar
    13    5   18 1
    14    6    7 ar
    15    6   19 1
    16    7    8 ar
    17    7   20 1
    18    8    9 1
    19    9   12 ar
    20    9   13 ar
@<TRIPOS>SUBSTRUCTURE
1 UNL1 1
@<TRIPOS>COMMENT
aspirin
PLANTSproteinTorsions
102
1 40.5027
42 162.7432
151 196.1759
173 150.4971
432 355.1378
491 196.7550
531 102.4861
563 57.0719
572 75.7415
629 146.7051
730 134.6793
826 125.9223
895 141.1029
921 194.5835
954 17.0760
1044 209.4229
1258 254.4032
1480 13.1422
1534 120.5600
1612 49.8119
1654 92.2103
1680 218.6743
1704 30.0294
1767 48.3577
1795 222.0814
1847 345.2414
1879 62.3109
1921 47.5626
1944 160.8748
1966 327.4702
1975 160.1046
2067 179.9584
2118 180.6950
2167 123.8266
2220 207.0788
2243 133.1901
2272 62.2561
2294 29.1469
2609 184.2465
2728 32.6569
2931 142.6167
3031 138.3158
3044 41.9768
3058 35.6550
3085 21.3677
3166 24.0688
3188 339.3577
3496 151.3248
3614 303.3274
3656 201.2216
3697 206.6964
3722 8.2248
3847 260.5377
3888 125.7306
4051 251.8341
4174 281.9400
4734 201.6047
4804 43.0983
4952 253.4860
5093 241.6683
5103 231.9495
5144 146.3835
5332 43.3408
5363 226.0888
5457 78.2501
5683 105.5025
5900 182.9812
6049 139.0438
6089 267.3007
6125 140.5844
6181 164.8152
6190 95.3406
6214 291.0589
6331 66.4341
6344 159.8290
6432 293.3225
7006 234.5323
7253 253.7234
7344 72.4944
7385 148.3530
7394 148.3631
7408 210.4478
7540 97.3402
7948 281.4723
8021 180.8518
8226 107.2328
8265 271.2684
8391 259.8533
8443 224.9080
8487 140.3929
8515 8.9656
8527 246.2813
8693 221.1449
8705 112.2225
8731 214.9553
8771 192.6854
8793 155.2964
8887 129.7145
8910 96.5047
8921 260.7527
8973 35.8078
8998 207.7133
PLANTSmolcadARTstart hb
PLANTSmolcadARTstart HB
LINES
-36.4004 -46.9347 2.97187 -34.6768 -46.9415 1.83077 0 255 0 5
PLANTSmolcadARTstart HBCH
LINES
PLANTSmolcadARTstart HB-CHO
LINES
PLANTSmolcadARTend
PLANTSmolcadARTstart HB_WATER
LINES
PLANTSmolcadARTend

PLANTSmolcadARTend

