@<TRIPOS>MOLECULE
aspirin_entry_00001_conf_72
20 20 1
SMALL
NO_CHARGES


@<TRIPOS>ATOM
      1 C         -24.7011  -42.2988   -9.2143 C.3       1 UNL1        0.0000
      2 C         -23.2622  -42.5781   -8.9769 C.2       1 UNL1        0.0000
      3 C         -23.3504  -44.9604   -9.4860 C.ar      1 UNL1        0.0000
      4 C         -24.6591  -45.2207   -9.1390 C.ar      1 UNL1        0.0000
      5 C         -25.2895  -46.4226   -9.3935 C.ar      1 UNL1        0.0000
      6 C         -24.5735  -47.4093  -10.0267 C.ar      1 UNL1        0.0000
      7 C         -23.2620  -47.2022  -10.3950 C.ar      1 UNL1        0.0000
      8 C         -22.6590  -45.9737  -10.1211 C.ar      1 UNL1        0.0000
      9 C         -21.2702  -45.7959  -10.5274 C.2       1 UNL1        0.0000
     10 O         -22.4686  -41.7116   -8.4991 O.2       1 UNL1        0.0000
     11 O         -22.6868  -43.7861   -9.2538 O.3       1 UNL1        0.0000
     12 O         -20.5657  -46.7793  -10.8714 O.co2     1 UNL1       -0.5000
     13 O         -20.6757  -44.5454  -10.5484 O.co2     1 UNL1       -0.5000
     14 H         -24.9213  -41.2930   -8.9231 H         1 UNL1        0.0000
     15 H         -25.2953  -42.9754   -8.6367 H         1 UNL1        0.0000
     16 H         -24.9223  -42.4271  -10.2530 H         1 UNL1        0.0000
     17 H         -25.1958  -44.4784   -8.6642 H         1 UNL1        0.0000
     18 H         -26.2724  -46.5750   -9.1164 H         1 UNL1        0.0000
     19 H         -25.0222  -48.3165  -10.2285 H         1 UNL1        0.0000
     20 H         -22.7303  -47.9484  -10.8707 H         1 UNL1        0.0000
@<TRIPOS>BOND
     1    1    2 1
     2    1   14 1
     3    1   15 1
     4    1   16 1
     5    2   10 2
     6    2   11 1
     7    3    4 ar
     8    3    8 ar
     9    3   11 1
    10    4    5 ar
    11    4   17 1
    12    5    6 ar
    13    5   18 1
    14    6    7 ar
    15    6   19 1
    16    7    8 ar
    17    7   20 1
    18    8    9 1
    19    9   12 ar
    20    9   13 ar
@<TRIPOS>SUBSTRUCTURE
1 UNL1 1
@<TRIPOS>COMMENT
aspirin
PLANTSproteinTorsions
102
1 202.0425
42 74.5429
151 171.4556
173 132.1672
432 41.8134
491 152.6868
531 101.4036
563 233.7326
572 132.0194
629 132.8885
730 120.6204
826 103.5044
895 187.9254
921 199.2749
954 145.3773
1044 272.5597
1258 206.0366
1480 289.7906
1534 46.0075
1612 333.9576
1654 175.2731
1680 140.3065
1704 115.3095
1767 105.5364
1795 219.6377
1847 149.2249
1879 157.2390
1921 228.7453
1944 165.1304
1966 232.3677
1975 189.9483
2067 199.2556
2118 132.2915
2167 160.3772
2220 252.7234
2243 58.7663
2272 244.6289
2294 179.1855
2609 128.4251
2728 170.4034
2931 190.4087
3031 183.9310
3044 5.4856
3058 96.3402
3085 3.8581
3166 212.1141
3188 34.6288
3496 11.8409
3614 36.6197
3656 60.8483
3697 182.1987
3722 300.9249
3847 85.8026
3888 18.6582
4051 214.0911
4174 103.9486
4734 183.0419
4804 60.2439
4952 248.2520
5093 54.4202
5103 141.1550
5144 185.6299
5332 74.4171
5363 155.4536
5457 216.2493
5683 119.1683
5900 214.6367
6049 182.5027
6089 250.5572
6125 130.7659
6181 175.7779
6190 102.0012
6214 74.9370
6331 286.4773
6344 275.8747
6432 308.7719
7006 85.3215
7253 260.1451
7344 146.4215
7385 77.9799
7394 154.8973
7408 214.0249
7540 107.5333
7948 89.1059
8021 273.0626
8226 138.1927
8265 236.1973
8391 223.7952
8443 144.1122
8487 123.4592
8515 113.8595
8527 128.9909
8693 288.9515
8705 147.9626
8731 168.5398
8771 174.3894
8793 233.6884
8887 65.6215
8910 92.7489
8921 277.6369
8973 287.4178
8998 210.6540
PLANTSmolcadARTstart hb
PLANTSmolcadARTstart HB
LINES
PLANTSmolcadARTstart HBCH
LINES
PLANTSmolcadARTstart HB-CHO
LINES
PLANTSmolcadARTend
PLANTSmolcadARTstart HB_WATER
LINES
PLANTSmolcadARTend

PLANTSmolcadARTend

