@<TRIPOS>MOLECULE
aspirin_entry_00001_conf_23
20 20 1
SMALL
NO_CHARGES


@<TRIPOS>ATOM
      1 C         -32.8283  -49.2425    5.7785 C.3       1 UNL1        0.0000
      2 C         -33.0879  -47.8562    6.2427 C.2       1 UNL1        0.0000
      3 C         -33.3411  -45.4833    5.7451 C.ar      1 UNL1        0.0000
      4 C         -32.6350  -44.6964    6.6299 C.ar      1 UNL1        0.0000
      5 C         -32.9836  -43.3964    6.9383 C.ar      1 UNL1        0.0000
      6 C         -34.0925  -42.8605    6.3296 C.ar      1 UNL1        0.0000
      7 C         -34.8347  -43.6033    5.4374 C.ar      1 UNL1        0.0000
      8 C         -34.4506  -44.9140    5.1508 C.ar      1 UNL1        0.0000
      9 C         -35.2631  -45.6651    4.2014 C.2       1 UNL1        0.0000
     10 O         -33.3788  -47.5829    7.4467 O.2       1 UNL1        0.0000
     11 O         -33.0322  -46.7739    5.4105 O.3       1 UNL1        0.0000
     12 O         -36.3863  -45.2376    3.8309 O.co2     1 UNL1       -0.5000
     13 O         -34.8334  -46.8719    3.6756 O.co2     1 UNL1       -0.5000
     14 H         -32.9280  -49.9182    6.6021 H         1 UNL1        0.0000
     15 H         -31.8362  -49.3060    5.3832 H         1 UNL1        0.0000
     16 H         -33.5331  -49.5009    5.0164 H         1 UNL1        0.0000
     17 H         -31.8020  -45.1000    7.0857 H         1 UNL1        0.0000
     18 H         -32.4256  -42.8421    7.6072 H         1 UNL1        0.0000
     19 H         -34.3738  -41.8907    6.5431 H         1 UNL1        0.0000
     20 H         -35.6667  -43.1937    4.9838 H         1 UNL1        0.0000
@<TRIPOS>BOND
     1    1    2 1
     2    1   14 1
     3    1   15 1
     4    1   16 1
     5    2   10 2
     6    2   11 1
     7    3    4 ar
     8    3    8 ar
     9    3   11 1
    10    4    5 ar
    11    4   17 1
    12    5    6 ar
    13    5   18 1
    14    6    7 ar
    15    6   19 1
    16    7    8 ar
    17    7   20 1
    18    8    9 1
    19    9   12 ar
    20    9   13 ar
@<TRIPOS>SUBSTRUCTURE
1 UNL1 1
@<TRIPOS>COMMENT
aspirin
PLANTSproteinTorsions
102
1 172.5680
42 216.7700
151 184.9533
173 174.0565
432 344.5013
491 323.8227
531 37.4640
563 243.5995
572 0.6683
629 196.7924
730 116.9306
826 260.0499
895 187.0753
921 73.1139
954 6.2029
1044 357.2846
1258 277.1916
1480 232.3002
1534 131.0558
1612 253.4721
1654 43.4294
1680 179.5432
1704 183.3887
1767 318.3607
1795 229.5675
1847 128.5909
1879 60.6105
1921 264.7000
1944 172.7139
1966 9.7288
1975 156.7440
2067 187.7608
2118 49.7787
2167 118.7966
2220 95.8143
2243 199.8364
2272 95.8557
2294 310.3692
2609 166.9007
2728 25.9456
2931 49.9653
3031 295.4428
3044 189.6617
3058 34.6950
3085 6.7298
3166 0.7649
3188 4.8003
3496 141.8353
3614 300.3731
3656 151.9124
3697 142.9473
3722 357.0414
3847 262.0387
3888 14.9885
4051 242.0348
4174 174.0773
4734 228.1207
4804 36.1993
4952 256.2441
5093 29.2834
5103 29.3259
5144 121.3886
5332 244.4188
5363 115.4639
5457 227.4803
5683 23.5214
5900 263.5297
6049 87.5792
6089 249.6322
6125 184.6856
6181 225.7028
6190 324.9131
6214 338.7474
6331 324.6791
6344 331.5089
6432 270.3350
7006 11.9674
7253 268.9383
7344 95.7714
7385 147.2366
7394 207.2182
7408 252.1676
7540 139.1041
7948 267.0567
8021 217.9717
8226 191.9305
8265 262.8973
8391 231.8730
8443 214.8452
8487 95.8229
8515 45.8062
8527 248.7935
8693 217.7819
8705 117.6191
8731 306.3773
8771 203.3504
8793 177.3712
8887 42.2671
8910 71.1796
8921 195.1665
8973 220.1417
8998 275.5494
PLANTSmolcadARTstart hb
PLANTSmolcadARTstart HB
LINES
PLANTSmolcadARTstart HBCH
LINES
PLANTSmolcadARTstart HB-CHO
LINES
PLANTSmolcadARTend
PLANTSmolcadARTstart HB_WATER
LINES
PLANTSmolcadARTend

PLANTSmolcadARTend

