@<TRIPOS>MOLECULE
aspirin_entry_00001_conf_19
20 20 1
SMALL
NO_CHARGES


@<TRIPOS>ATOM
      1 C         -14.8527  -54.9096    0.1549 C.3       1 UNL1        0.0000
      2 C         -14.2186  -56.2516    0.1127 C.2       1 UNL1        0.0000
      3 C         -14.2051  -58.5487   -0.7031 C.ar      1 UNL1        0.0000
      4 C         -13.6486  -59.2240    0.3624 C.ar      1 UNL1        0.0000
      5 C         -13.1685  -60.5159    0.2779 C.ar      1 UNL1        0.0000
      6 C         -13.2514  -61.1609   -0.9322 C.ar      1 UNL1        0.0000
      7 C         -13.7980  -60.5322   -2.0297 C.ar      1 UNL1        0.0000
      8 C         -14.2732  -59.2259   -1.9051 C.ar      1 UNL1        0.0000
      9 C         -14.8439  -58.5974   -3.0904 C.2       1 UNL1        0.0000
     10 O         -13.1919  -56.5432    0.7981 O.2       1 UNL1        0.0000
     11 O         -14.6927  -57.2705   -0.6646 O.3       1 UNL1        0.0000
     12 O         -14.8151  -59.1758   -4.2068 O.co2     1 UNL1       -0.5000
     13 O         -15.4344  -57.3461   -3.0340 O.co2     1 UNL1       -0.5000
     14 H         -14.3108  -54.2810    0.8303 H         1 UNL1        0.0000
     15 H         -15.8644  -55.0040    0.4897 H         1 UNL1        0.0000
     16 H         -14.8395  -54.4784   -0.8239 H         1 UNL1        0.0000
     17 H         -13.5878  -58.7385    1.2708 H         1 UNL1        0.0000
     18 H         -12.7594  -60.9846    1.1020 H         1 UNL1        0.0000
     19 H         -12.8997  -62.1271   -1.0211 H         1 UNL1        0.0000
     20 H         -13.8571  -61.0233   -2.9358 H         1 UNL1        0.0000
@<TRIPOS>BOND
     1    1    2 1
     2    1   14 1
     3    1   15 1
     4    1   16 1
     5    2   10 2
     6    2   11 1
     7    3    4 ar
     8    3    8 ar
     9    3   11 1
    10    4    5 ar
    11    4   17 1
    12    5    6 ar
    13    5   18 1
    14    6    7 ar
    15    6   19 1
    16    7    8 ar
    17    7   20 1
    18    8    9 1
    19    9   12 ar
    20    9   13 ar
@<TRIPOS>SUBSTRUCTURE
1 UNL1 1
@<TRIPOS>COMMENT
aspirin
PLANTSproteinTorsions
102
1 17.3010
42 21.1793
151 333.9785
173 167.8266
432 225.0453
491 318.4239
531 129.7742
563 254.5274
572 123.6127
629 165.7925
730 48.1290
826 85.0831
895 254.1845
921 222.7482
954 65.8776
1044 133.9076
1258 218.7927
1480 276.5950
1534 62.3146
1612 255.2091
1654 226.0021
1680 335.6143
1704 52.1883
1767 157.3773
1795 173.8090
1847 109.9523
1879 210.7164
1921 249.2117
1944 66.0100
1966 56.1889
1975 68.6737
2067 29.4542
2118 63.4610
2167 135.0956
2220 115.8365
2243 174.5880
2272 46.6475
2294 30.1802
2609 136.2399
2728 337.0768
2931 113.7134
3031 51.0326
3044 302.7187
3058 46.9479
3085 188.9552
3166 330.4651
3188 45.3242
3496 149.6176
3614 257.9057
3656 291.8760
3697 58.6608
3722 219.6846
3847 156.3188
3888 24.0927
4051 140.7023
4174 132.2114
4734 255.8695
4804 214.1367
4952 267.0768
5093 208.2664
5103 246.8337
5144 202.0483
5332 129.7399
5363 88.4601
5457 260.7740
5683 119.9717
5900 101.2070
6049 156.5065
6089 263.5980
6125 113.4740
6181 276.7554
6190 115.8351
6214 79.8477
6331 231.1456
6344 60.5963
6432 266.3540
7006 245.7361
7253 181.9505
7344 187.1358
7385 104.7019
7394 252.8018
7408 228.2899
7540 234.1816
7948 196.4604
8021 154.6820
8226 147.6243
8265 178.5211
8391 132.9576
8443 76.5285
8487 260.3900
8515 239.1945
8527 225.0772
8693 284.2929
8705 32.9851
8731 61.1610
8771 270.9436
8793 273.0385
8887 230.2170
8910 217.6060
8921 284.1882
8973 208.1898
8998 63.6444
PLANTSmolcadARTstart hb
PLANTSmolcadARTstart HB
LINES
-14.8151 -59.1758 -4.20677 -16.068 -59.1095 -5.46745 0 255 0 5
PLANTSmolcadARTstart HBCH
LINES
PLANTSmolcadARTstart HB-CHO
LINES
PLANTSmolcadARTend
PLANTSmolcadARTstart HB_WATER
LINES
PLANTSmolcadARTend

PLANTSmolcadARTend

