@<TRIPOS>MOLECULE
aspirin_entry_00001_conf_64
20 20 1
SMALL
NO_CHARGES


@<TRIPOS>ATOM
      1 C         -12.3745  -35.4051   -9.8632 C.3       1 UNL1        0.0000
      2 C         -12.1389  -35.1824   -8.4142 C.2       1 UNL1        0.0000
      3 C         -11.1746  -33.8240   -6.6345 C.ar      1 UNL1        0.0000
      4 C         -10.7195  -34.8013   -5.7751 C.ar      1 UNL1        0.0000
      5 C         -10.3070  -34.5462   -4.4822 C.ar      1 UNL1        0.0000
      6 C         -10.3526  -33.2495   -4.0307 C.ar      1 UNL1        0.0000
      7 C         -10.7994  -32.2342   -4.8480 C.ar      1 UNL1        0.0000
      8 C         -11.2077  -32.5311   -6.1491 C.ar      1 UNL1        0.0000
      9 C         -11.6735  -31.4279   -6.9807 C.2       1 UNL1        0.0000
     10 O         -12.4293  -36.0487   -7.5344 O.2       1 UNL1        0.0000
     11 O         -11.5923  -34.0312   -7.9213 O.3       1 UNL1        0.0000
     12 O         -11.8694  -30.2863   -6.4908 O.co2     1 UNL1       -0.5000
     13 O         -11.9187  -31.5934   -8.3335 O.co2     1 UNL1       -0.5000
     14 H         -12.8072  -36.3729  -10.0088 H         1 UNL1        0.0000
     15 H         -11.4442  -35.3479  -10.3884 H         1 UNL1        0.0000
     16 H         -13.0409  -34.6557  -10.2352 H         1 UNL1        0.0000
     17 H         -10.6851  -35.7745   -6.1159 H         1 UNL1        0.0000
     18 H          -9.9726  -35.3090   -3.8720 H         1 UNL1        0.0000
     19 H         -10.0494  -33.0329   -3.0683 H         1 UNL1        0.0000
     20 H         -10.8307  -31.2622   -4.5018 H         1 UNL1        0.0000
@<TRIPOS>BOND
     1    1    2 1
     2    1   14 1
     3    1   15 1
     4    1   16 1
     5    2   10 2
     6    2   11 1
     7    3    4 ar
     8    3    8 ar
     9    3   11 1
    10    4    5 ar
    11    4   17 1
    12    5    6 ar
    13    5   18 1
    14    6    7 ar
    15    6   19 1
    16    7    8 ar
    17    7   20 1
    18    8    9 1
    19    9   12 ar
    20    9   13 ar
@<TRIPOS>SUBSTRUCTURE
1 UNL1 1
@<TRIPOS>COMMENT
aspirin
PLANTSproteinTorsions
102
1 165.3188
42 276.4557
151 114.8331
173 38.3819
432 346.4455
491 344.0681
531 15.0274
563 93.8201
572 85.4280
629 237.9754
730 248.0993
826 51.6886
895 160.9568
921 28.9829
954 202.6080
1044 27.9878
1258 348.1837
1480 96.6993
1534 122.0844
1612 343.9535
1654 41.7632
1680 142.6665
1704 215.6295
1767 105.4800
1795 29.6985
1847 94.0933
1879 287.6862
1921 206.5691
1944 32.5662
1966 121.6026
1975 71.2666
2067 186.8633
2118 155.2997
2167 89.1396
2220 252.9051
2243 101.8381
2272 262.2160
2294 115.6224
2609 195.9663
2728 182.9555
2931 241.0995
3031 324.9668
3044 151.5559
3058 138.1235
3085 341.2295
3166 191.5363
3188 137.7269
3496 126.0357
3614 215.9985
3656 317.5535
3697 16.2889
3722 223.4841
3847 142.8540
3888 26.7974
4051 309.7541
4174 141.8340
4734 179.3775
4804 313.2977
4952 157.5867
5093 86.1484
5103 120.6860
5144 169.2619
5332 265.6511
5363 124.7099
5457 191.4373
5683 113.2496
5900 81.9910
6049 204.0151
6089 227.9760
6125 166.2623
6181 227.1052
6190 149.9191
6214 158.9577
6331 180.3906
6344 149.7708
6432 121.8898
7006 181.6447
7253 291.5302
7344 88.6432
7385 41.8222
7394 88.4439
7408 174.4244
7540 169.6285
7948 291.8898
8021 88.2982
8226 314.0419
8265 194.3864
8391 66.8237
8443 260.5429
8487 140.9226
8515 261.5793
8527 57.0982
8693 292.5028
8705 341.5271
8731 206.8286
8771 165.1550
8793 190.4528
8887 139.3876
8910 160.3658
8921 92.5551
8973 153.4770
8998 258.6462
PLANTSmolcadARTstart hb
PLANTSmolcadARTstart HB
LINES
PLANTSmolcadARTstart HBCH
LINES
PLANTSmolcadARTstart HB-CHO
LINES
PLANTSmolcadARTend
PLANTSmolcadARTstart HB_WATER
LINES
PLANTSmolcadARTend

PLANTSmolcadARTend

