@<TRIPOS>MOLECULE
aspirin_entry_00001_conf_81
20 20 1
SMALL
NO_CHARGES


@<TRIPOS>ATOM
      1 C          -0.4068  -59.4340   -1.1944 C.3       1 UNL1        0.0000
      2 C           0.0415  -59.8343   -2.5522 C.2       1 UNL1        0.0000
      3 C           0.6781  -62.1070   -1.9427 C.ar      1 UNL1        0.0000
      4 C          -0.2219  -62.4361   -0.9514 C.ar      1 UNL1        0.0000
      5 C          -0.0379  -63.4866   -0.0743 C.ar      1 UNL1        0.0000
      6 C           1.1023  -64.2429   -0.1981 C.ar      1 UNL1        0.0000
      7 C           2.0351  -63.9573   -1.1712 C.ar      1 UNL1        0.0000
      8 C           1.8138  -62.8874   -2.0397 C.ar      1 UNL1        0.0000
      9 C           2.8254  -62.6194   -3.0548 C.2       1 UNL1        0.0000
     10 O          -0.0044  -59.0471   -3.5457 O.2       1 UNL1        0.0000
     11 O           0.5365  -61.0766   -2.8323 O.3       1 UNL1        0.0000
     12 O           2.8485  -61.5238   -3.6717 O.co2     1 UNL1       -0.5000
     13 O           3.7929  -63.5557   -3.3786 O.co2     1 UNL1       -0.5000
     14 H          -0.7520  -58.4215   -1.2175 H         1 UNL1        0.0000
     15 H           0.4116  -59.5161   -0.5103 H         1 UNL1        0.0000
     16 H          -1.2019  -60.0759   -0.8780 H         1 UNL1        0.0000
     17 H          -1.0780  -61.8677   -0.8602 H         1 UNL1        0.0000
     18 H          -0.7385  -63.6984    0.6539 H         1 UNL1        0.0000
     19 H           1.2629  -65.0338    0.4453 H         1 UNL1        0.0000
     20 H           2.8894  -64.5301   -1.2582 H         1 UNL1        0.0000
@<TRIPOS>BOND
     1    1    2 1
     2    1   14 1
     3    1   15 1
     4    1   16 1
     5    2   10 2
     6    2   11 1
     7    3    4 ar
     8    3    8 ar
     9    3   11 1
    10    4    5 ar
    11    4   17 1
    12    5    6 ar
    13    5   18 1
    14    6    7 ar
    15    6   19 1
    16    7    8 ar
    17    7   20 1
    18    8    9 1
    19    9   12 ar
    20    9   13 ar
@<TRIPOS>SUBSTRUCTURE
1 UNL1 1
@<TRIPOS>COMMENT
aspirin
PLANTSproteinTorsions
102
1 129.9581
42 15.0238
151 121.8724
173 174.0403
432 239.3613
491 207.9297
531 67.3636
563 125.6078
572 307.4664
629 152.9057
730 90.8891
826 63.9258
895 20.5787
921 306.0658
954 303.4090
1044 271.1692
1258 164.1439
1480 36.0563
1534 173.0385
1612 8.5703
1654 5.3996
1680 205.2782
1704 2.3535
1767 84.3929
1795 342.2626
1847 1.2960
1879 196.7864
1921 27.8846
1944 26.9907
1966 101.0921
1975 26.7408
2067 42.4200
2118 74.7640
2167 95.6716
2220 196.3314
2243 347.3121
2272 216.9219
2294 353.1860
2609 274.6456
2728 85.0019
2931 237.2372
3031 243.1985
3044 157.0522
3058 10.0196
3085 25.5026
3166 190.1832
3188 15.4089
3496 205.4700
3614 280.3331
3656 202.5621
3697 171.2961
3722 344.9214
3847 129.5550
3888 166.5318
4051 328.7707
4174 189.0646
4734 223.2273
4804 264.3162
4952 153.3120
5093 238.8510
5103 201.4520
5144 268.8062
5332 70.3236
5363 40.9091
5457 252.3905
5683 311.8372
5900 43.6063
6049 266.7084
6089 244.1709
6125 174.8764
6181 61.1209
6190 130.1046
6214 189.6459
6331 244.3963
6344 162.4944
6432 256.3626
7006 43.7087
7253 174.7736
7344 100.6235
7385 178.2969
7394 180.1779
7408 248.8238
7540 213.3824
7948 136.7838
8021 208.7945
8226 266.2322
8265 244.1302
8391 162.7436
8443 61.6482
8487 83.4079
8515 54.2315
8527 3.6827
8693 262.5692
8705 73.8881
8731 113.4076
8771 76.0497
8793 122.4057
8887 97.9251
8910 197.5111
8921 30.6176
8973 255.4394
8998 60.5791
PLANTSmolcadARTstart hb
PLANTSmolcadARTstart HB
LINES
PLANTSmolcadARTstart HBCH
LINES
PLANTSmolcadARTstart HB-CHO
LINES
PLANTSmolcadARTend
PLANTSmolcadARTstart HB_WATER
LINES
PLANTSmolcadARTend

PLANTSmolcadARTend

