@<TRIPOS>MOLECULE
aspirin_entry_00001_conf_24
20 20 1
SMALL
NO_CHARGES


@<TRIPOS>ATOM
      1 C         -14.9254  -65.3595   -2.0330 C.3       1 UNL1        0.0000
      2 C         -14.4222  -64.7662   -3.2977 C.2       1 UNL1        0.0000
      3 C         -13.6221  -62.6922   -2.2974 C.ar      1 UNL1        0.0000
      4 C         -13.2340  -63.0886   -1.0351 C.ar      1 UNL1        0.0000
      5 C         -13.0184  -62.2083    0.0066 C.ar      1 UNL1        0.0000
      6 C         -13.2000  -60.8671   -0.2294 C.ar      1 UNL1        0.0000
      7 C         -13.5879  -60.4167   -1.4725 C.ar      1 UNL1        0.0000
      8 C         -13.7959  -61.3371   -2.5008 C.ar      1 UNL1        0.0000
      9 C         -14.2055  -60.8186   -3.8005 C.2       1 UNL1        0.0000
     10 O         -14.4940  -65.3701   -4.4108 O.2       1 UNL1        0.0000
     11 O         -13.8465  -63.5285   -3.3573 O.3       1 UNL1        0.0000
     12 O         -14.1093  -61.5232   -4.8377 O.co2     1 UNL1       -0.5000
     13 O         -14.7114  -59.5375   -3.9428 O.co2     1 UNL1       -0.5000
     14 H         -15.3322  -66.3291   -2.2318 H         1 UNL1        0.0000
     15 H         -15.6874  -64.7305   -1.6227 H         1 UNL1        0.0000
     16 H         -14.1198  -65.4460   -1.3346 H         1 UNL1        0.0000
     17 H         -13.0973  -64.0961   -0.8597 H         1 UNL1        0.0000
     18 H         -12.7278  -62.5486    0.9370 H         1 UNL1        0.0000
     19 H         -13.0449  -60.1888    0.5328 H         1 UNL1        0.0000
     20 H         -13.7223  -59.4073   -1.6424 H         1 UNL1        0.0000
@<TRIPOS>BOND
     1    1    2 1
     2    1   14 1
     3    1   15 1
     4    1   16 1
     5    2   10 2
     6    2   11 1
     7    3    4 ar
     8    3    8 ar
     9    3   11 1
    10    4    5 ar
    11    4   17 1
    12    5    6 ar
    13    5   18 1
    14    6    7 ar
    15    6   19 1
    16    7    8 ar
    17    7   20 1
    18    8    9 1
    19    9   12 ar
    20    9   13 ar
@<TRIPOS>SUBSTRUCTURE
1 UNL1 1
@<TRIPOS>COMMENT
aspirin
PLANTSproteinTorsions
102
1 202.2691
42 149.6661
151 252.3526
173 267.9531
432 237.9218
491 168.7708
531 14.6370
563 193.5249
572 49.8989
629 136.5750
730 137.9866
826 76.6708
895 221.5960
921 91.2040
954 216.7717
1044 45.9014
1258 67.7421
1480 39.5807
1534 236.8833
1612 24.5467
1654 180.1001
1680 172.0765
1704 172.5079
1767 124.0814
1795 105.1812
1847 207.7306
1879 227.3176
1921 117.7766
1944 294.1721
1966 45.5433
1975 53.9195
2067 200.4637
2118 25.0364
2167 9.1570
2220 71.5920
2243 357.0365
2272 179.9942
2294 335.7141
2609 338.1331
2728 215.9284
2931 240.1775
3031 188.7075
3044 160.3812
3058 11.7483
3085 33.3485
3166 31.5992
3188 0.7721
3496 195.7802
3614 36.2598
3656 268.9617
3697 7.2917
3722 133.4799
3847 176.0520
3888 166.7676
4051 322.0105
4174 60.2631
4734 311.7780
4804 265.7203
4952 206.7477
5093 69.3438
5103 43.1595
5144 323.9042
5332 217.2826
5363 153.0760
5457 197.4127
5683 59.2961
5900 56.2559
6049 241.1924
6089 30.3292
6125 203.2126
6181 54.4100
6190 16.2938
6214 196.8852
6331 266.1721
6344 31.8935
6432 281.4746
7006 64.8967
7253 257.9634
7344 104.7846
7385 200.0586
7394 179.9777
7408 241.7193
7540 278.8583
7948 215.8735
8021 139.8461
8226 205.7438
8265 228.9710
8391 138.3594
8443 143.6168
8487 100.0441
8515 112.8661
8527 6.5472
8693 281.5139
8705 115.4141
8731 229.8838
8771 94.6340
8793 46.6442
8887 135.8883
8910 211.8277
8921 113.9914
8973 212.5600
8998 140.8470
PLANTSmolcadARTstart hb
PLANTSmolcadARTstart HB
LINES
PLANTSmolcadARTstart HBCH
LINES
PLANTSmolcadARTstart HB-CHO
LINES
PLANTSmolcadARTend
PLANTSmolcadARTstart HB_WATER
LINES
PLANTSmolcadARTend

PLANTSmolcadARTend

