@<TRIPOS>MOLECULE
aspirin_entry_00001_conf_86
20 20 1
SMALL
NO_CHARGES


@<TRIPOS>ATOM
      1 C         -24.9438  -36.3329    0.2524 C.3       1 UNL1        0.0000
      2 C         -24.7894  -37.5212    1.1294 C.2       1 UNL1        0.0000
      3 C         -22.3912  -37.2625    1.4813 C.ar      1 UNL1        0.0000
      4 C         -21.9323  -36.6961    0.3111 C.ar      1 UNL1        0.0000
      5 C         -20.7213  -36.0410    0.2061 C.ar      1 UNL1        0.0000
      6 C         -19.9341  -35.9492    1.3282 C.ar      1 UNL1        0.0000
      7 C         -20.3443  -36.4982    2.5235 C.ar      1 UNL1        0.0000
      8 C         -21.5753  -37.1525    2.5905 C.ar      1 UNL1        0.0000
      9 C         -21.9716  -37.7191    3.8741 C.2       1 UNL1        0.0000
     10 O         -25.7704  -38.2484    1.4722 O.2       1 UNL1        0.0000
     11 O         -23.5824  -37.9197    1.6306 O.3       1 UNL1        0.0000
     12 O         -21.1656  -37.7628    4.8385 O.co2     1 UNL1       -0.5000
     13 O         -23.2422  -38.2298    4.0795 O.co2     1 UNL1       -0.5000
     14 H         -25.9737  -36.2190   -0.0147 H         1 UNL1        0.0000
     15 H         -24.3583  -36.4652   -0.6332 H         1 UNL1        0.0000
     16 H         -24.6107  -35.4600    0.7732 H         1 UNL1        0.0000
     17 H         -22.5251  -36.7651   -0.5306 H         1 UNL1        0.0000
     18 H         -20.4164  -35.6305   -0.6909 H         1 UNL1        0.0000
     19 H         -19.0245  -35.4643    1.2757 H         1 UNL1        0.0000
     20 H         -19.7474  -36.4252    3.3626 H         1 UNL1        0.0000
@<TRIPOS>BOND
     1    1    2 1
     2    1   14 1
     3    1   15 1
     4    1   16 1
     5    2   10 2
     6    2   11 1
     7    3    4 ar
     8    3    8 ar
     9    3   11 1
    10    4    5 ar
    11    4   17 1
    12    5    6 ar
    13    5   18 1
    14    6    7 ar
    15    6   19 1
    16    7    8 ar
    17    7   20 1
    18    8    9 1
    19    9   12 ar
    20    9   13 ar
@<TRIPOS>SUBSTRUCTURE
1 UNL1 1
@<TRIPOS>COMMENT
aspirin
PLANTSproteinTorsions
102
1 137.7932
42 58.0623
151 24.2470
173 7.2332
432 200.6032
491 18.5497
531 106.8573
563 183.1419
572 34.6229
629 176.5291
730 41.6816
826 68.5463
895 28.5287
921 32.2478
954 144.0617
1044 69.2730
1258 187.4983
1480 93.7424
1534 62.0157
1612 184.0413
1654 320.1107
1680 202.4581
1704 8.3655
1767 9.2114
1795 72.1640
1847 247.2873
1879 100.5367
1921 34.2928
1944 321.9808
1966 49.0669
1975 46.6718
2067 83.1243
2118 242.2774
2167 50.6602
2220 82.5605
2243 355.6777
2272 53.9092
2294 118.0990
2609 226.9425
2728 263.5830
2931 164.7039
3031 232.6223
3044 245.6148
3058 131.1452
3085 0.7907
3166 260.8291
3188 8.2845
3496 100.2700
3614 20.8878
3656 323.3062
3697 171.0678
3722 252.4548
3847 196.9679
3888 261.3140
4051 289.3075
4174 59.1621
4734 123.9433
4804 266.5622
4952 209.3619
5093 230.2029
5103 32.1356
5144 5.3467
5332 322.0550
5363 121.6780
5457 263.6827
5683 40.8615
5900 75.6373
6049 140.1715
6089 80.7855
6125 45.4055
6181 39.4480
6190 173.8767
6214 96.3354
6331 278.3754
6344 106.9712
6432 258.3683
7006 258.3978
7253 42.6387
7344 328.0036
7385 180.4961
7394 182.3727
7408 254.8146
7540 216.4860
7948 204.4391
8021 134.2828
8226 173.5358
8265 147.2719
8391 112.8765
8443 154.5764
8487 39.9672
8515 58.6734
8527 5.3911
8693 68.0484
8705 133.1463
8731 265.1534
8771 133.9596
8793 310.0015
8887 98.5341
8910 216.0018
8921 110.6346
8973 192.0492
8998 259.0371
PLANTSmolcadARTstart hb
PLANTSmolcadARTstart HB
LINES
-21.1656 -37.7628 4.83851 -21.8217 -36.6078 6.39262 0 255 0 5
PLANTSmolcadARTstart HBCH
LINES
PLANTSmolcadARTstart HB-CHO
LINES
PLANTSmolcadARTend
PLANTSmolcadARTstart HB_WATER
LINES
PLANTSmolcadARTend

PLANTSmolcadARTend

