@<TRIPOS>MOLECULE
aspirin_entry_00001_conf_70
20 20 1
SMALL
NO_CHARGES


@<TRIPOS>ATOM
      1 C           1.9283  -66.4887    0.7738 C.3       1 UNL1        0.0000
      2 C           0.8147  -66.5351    1.7548 C.2       1 UNL1        0.0000
      3 C          -1.0082  -65.4187    2.9265 C.ar      1 UNL1        0.0000
      4 C          -1.8458  -66.4688    3.2374 C.ar      1 UNL1        0.0000
      5 C          -2.8639  -66.3814    4.1661 C.ar      1 UNL1        0.0000
      6 C          -3.0499  -65.1843    4.8139 C.ar      1 UNL1        0.0000
      7 C          -2.2416  -64.1024    4.5409 C.ar      1 UNL1        0.0000
      8 C          -1.2225  -64.2295    3.5958 C.ar      1 UNL1        0.0000
      9 C          -0.3902  -63.0608    3.3367 C.2       1 UNL1        0.0000
     10 O           0.5341  -67.5781    2.4199 O.2       1 UNL1        0.0000
     11 O           0.0116  -65.4607    2.0147 O.3       1 UNL1        0.0000
     12 O          -0.6100  -61.9680    3.9190 O.co2     1 UNL1       -0.5000
     13 O           0.6669  -63.1076    2.4434 O.co2     1 UNL1       -0.5000
     14 H           2.4135  -67.4418    0.7407 H         1 UNL1        0.0000
     15 H           2.6329  -65.7400    1.0697 H         1 UNL1        0.0000
     16 H           1.5406  -66.2509   -0.1944 H         1 UNL1        0.0000
     17 H          -1.7043  -67.3674    2.7506 H         1 UNL1        0.0000
     18 H          -3.4680  -67.1938    4.3687 H         1 UNL1        0.0000
     19 H          -3.8040  -65.0936    5.5127 H         1 UNL1        0.0000
     20 H          -2.3873  -63.2060    5.0318 H         1 UNL1        0.0000
@<TRIPOS>BOND
     1    1    2 1
     2    1   14 1
     3    1   15 1
     4    1   16 1
     5    2   10 2
     6    2   11 1
     7    3    4 ar
     8    3    8 ar
     9    3   11 1
    10    4    5 ar
    11    4   17 1
    12    5    6 ar
    13    5   18 1
    14    6    7 ar
    15    6   19 1
    16    7    8 ar
    17    7   20 1
    18    8    9 1
    19    9   12 ar
    20    9   13 ar
@<TRIPOS>SUBSTRUCTURE
1 UNL1 1
@<TRIPOS>COMMENT
aspirin
PLANTSproteinTorsions
102
1 197.6924
42 290.9410
151 98.1721
173 346.6391
432 157.1328
491 170.6395
531 311.6549
563 120.1793
572 178.1314
629 358.3324
730 4.7379
826 68.7138
895 302.0736
921 56.3809
954 355.9688
1044 46.3120
1258 296.3695
1480 117.4682
1534 105.6972
1612 115.1992
1654 44.9751
1680 8.3592
1704 158.5227
1767 300.7304
1795 302.3821
1847 169.1116
1879 141.9933
1921 189.3061
1944 244.3407
1966 12.9466
1975 127.6469
2067 101.4637
2118 109.9882
2167 21.1406
2220 48.8316
2243 149.2848
2272 330.6066
2294 81.8455
2609 11.7003
2728 88.4096
2931 14.6279
3031 87.9845
3044 327.2936
3058 171.0658
3085 100.1087
3166 255.2601
3188 295.9450
3496 104.3254
3614 25.6209
3656 233.8436
3697 176.2425
3722 186.3828
3847 79.4176
3888 323.1658
4051 356.3382
4174 264.8229
4734 121.1181
4804 68.6624
4952 135.2911
5093 148.8097
5103 264.7743
5144 180.0614
5332 333.9212
5363 119.5648
5457 8.4307
5683 109.3373
5900 235.4389
6049 59.1251
6089 327.1242
6125 22.3360
6181 194.2836
6190 194.3713
6214 197.1629
6331 149.8807
6344 81.7486
6432 53.4877
7006 131.1238
7253 342.3161
7344 145.0906
7385 265.5709
7394 65.4002
7408 101.1883
7540 47.0608
7948 270.2334
8021 345.0078
8226 357.9932
8265 78.0911
8391 2.0688
8443 70.2313
8487 132.2817
8515 30.3016
8527 31.9742
8693 294.7004
8705 205.4645
8731 207.7469
8771 218.8422
8793 213.6781
8887 39.5594
8910 268.3599
8921 216.4216
8973 240.0404
8998 172.0065
PLANTSmolcadARTstart hb
PLANTSmolcadARTstart HB
LINES
PLANTSmolcadARTstart HBCH
LINES
PLANTSmolcadARTstart HB-CHO
LINES
PLANTSmolcadARTend
PLANTSmolcadARTstart HB_WATER
LINES
PLANTSmolcadARTend

PLANTSmolcadARTend

