@<TRIPOS>MOLECULE
aspirin_entry_00001_conf_20
20 20 1
SMALL
NO_CHARGES


@<TRIPOS>ATOM
      1 C         -13.7276  -62.2253   11.0918 C.3       1 UNL1        0.0000
      2 C         -12.3668  -61.9116   10.5872 C.2       1 UNL1        0.0000
      3 C         -10.4328  -60.4285   10.5404 C.ar      1 UNL1        0.0000
      4 C          -9.3971  -61.3317   10.4284 C.ar      1 UNL1        0.0000
      5 C          -8.1068  -60.9727   10.0925 C.ar      1 UNL1        0.0000
      6 C          -7.8433  -59.6451    9.8572 C.ar      1 UNL1        0.0000
      7 C          -8.8415  -58.7004    9.9559 C.ar      1 UNL1        0.0000
      8 C         -10.1338  -59.1019   10.2974 C.ar      1 UNL1        0.0000
      9 C         -11.1603  -58.0709   10.3910 C.2       1 UNL1        0.0000
     10 O         -11.7082  -62.7127    9.8570 O.2       1 UNL1        0.0000
     11 O         -11.7242  -60.7394   10.8701 O.3       1 UNL1        0.0000
     12 O         -10.8534  -56.8514   10.4023 O.co2     1 UNL1       -0.5000
     13 O         -12.5048  -58.3922   10.4726 O.co2     1 UNL1       -0.5000
     14 H         -14.0225  -63.1927   10.7424 H         1 UNL1        0.0000
     15 H         -14.4184  -61.4910   10.7338 H         1 UNL1        0.0000
     16 H         -13.7215  -62.2179   12.1615 H         1 UNL1        0.0000
     17 H          -9.5968  -62.3285   10.6046 H         1 UNL1        0.0000
     18 H          -7.3608  -61.6827   10.0192 H         1 UNL1        0.0000
     19 H          -6.8869  -59.3512    9.6042 H         1 UNL1        0.0000
     20 H          -8.6360  -57.7046    9.7775 H         1 UNL1        0.0000
@<TRIPOS>BOND
     1    1    2 1
     2    1   14 1
     3    1   15 1
     4    1   16 1
     5    2   10 2
     6    2   11 1
     7    3    4 ar
     8    3    8 ar
     9    3   11 1
    10    4    5 ar
    11    4   17 1
    12    5    6 ar
    13    5   18 1
    14    6    7 ar
    15    6   19 1
    16    7    8 ar
    17    7   20 1
    18    8    9 1
    19    9   12 ar
    20    9   13 ar
@<TRIPOS>SUBSTRUCTURE
1 UNL1 1
@<TRIPOS>COMMENT
aspirin
PLANTSproteinTorsions
102
1 353.5341
42 35.0272
151 159.1742
173 107.4831
432 221.1714
491 347.6364
531 147.2256
563 231.4894
572 56.5524
629 174.1538
730 37.2589
826 215.0313
895 243.0526
921 246.1758
954 237.7209
1044 39.6964
1258 140.3928
1480 39.7431
1534 41.8411
1612 161.8927
1654 205.9986
1680 27.5876
1704 139.0758
1767 326.0918
1795 13.5778
1847 109.8885
1879 233.1818
1921 211.4922
1944 243.8558
1966 31.8772
1975 70.0097
2067 332.6642
2118 146.0456
2167 125.1199
2220 159.9900
2243 204.0475
2272 122.0436
2294 42.8275
2609 263.5931
2728 33.2263
2931 113.9542
3031 181.7545
3044 91.7465
3058 218.8514
3085 196.1908
3166 40.7227
3188 253.4486
3496 161.9763
3614 26.3177
3656 137.5825
3697 106.0173
3722 195.2656
3847 127.2856
3888 43.4063
4051 203.6714
4174 94.7816
4734 278.1339
4804 218.6169
4952 215.2927
5093 90.1929
5103 242.2051
5144 263.6234
5332 241.0519
5363 105.2367
5457 190.2634
5683 141.5103
5900 109.4485
6049 241.9790
6089 73.5053
6125 106.1388
6181 226.1280
6190 105.5307
6214 272.1765
6331 20.5644
6344 104.2384
6432 275.1824
7006 261.6206
7253 205.0885
7344 213.6727
7385 46.9752
7394 237.9303
7408 12.2074
7540 277.9147
7948 109.6464
8021 257.9661
8226 133.2019
8265 271.6875
8391 273.7362
8443 158.1838
8487 274.5164
8515 212.9747
8527 208.7843
8693 268.1004
8705 316.9283
8731 66.4415
8771 229.7266
8793 257.4224
8887 90.4051
8910 62.3653
8921 221.5444
8973 270.0946
8998 277.5088
PLANTSmolcadARTstart hb
PLANTSmolcadARTstart HB
LINES
-11.7082 -62.7127 9.85697 -12.112 -64.488 10.122 0 255 0 5
PLANTSmolcadARTstart HBCH
LINES
PLANTSmolcadARTstart HB-CHO
LINES
PLANTSmolcadARTend
PLANTSmolcadARTstart HB_WATER
LINES
PLANTSmolcadARTend

PLANTSmolcadARTend

