@<TRIPOS>MOLECULE
aspirin_entry_00001_conf_49
20 20 1
SMALL
NO_CHARGES


@<TRIPOS>ATOM
      1 C          -1.8052  -38.6038   -1.6310 C.3       1 UNL1        0.0000
      2 C          -0.6775  -39.2760   -0.9371 C.2       1 UNL1        0.0000
      3 C           0.1566  -37.2801    0.1868 C.ar      1 UNL1        0.0000
      4 C          -0.0702  -36.2922   -0.7478 C.ar      1 UNL1        0.0000
      5 C          -0.0514  -34.9439   -0.4502 C.ar      1 UNL1        0.0000
      6 C           0.2064  -34.5694    0.8462 C.ar      1 UNL1        0.0000
      7 C           0.4405  -35.5159    1.8198 C.ar      1 UNL1        0.0000
      8 C           0.4127  -36.8694    1.4806 C.ar      1 UNL1        0.0000
      9 C           0.6655  -37.8380    2.5405 C.2       1 UNL1        0.0000
     10 O          -0.4033  -40.5022   -1.1102 O.2       1 UNL1        0.0000
     11 O           0.1474  -38.6257   -0.0633 O.3       1 UNL1        0.0000
     12 O           1.0928  -37.4703    3.6646 O.co2     1 UNL1       -0.5000
     13 O           0.4484  -39.1925    2.3511 O.co2     1 UNL1       -0.5000
     14 H          -2.3057  -39.3084   -2.2618 H         1 UNL1        0.0000
     15 H          -1.4283  -37.7980   -2.2254 H         1 UNL1        0.0000
     16 H          -2.4925  -38.2212   -0.9061 H         1 UNL1        0.0000
     17 H          -0.2644  -36.5751   -1.7208 H         1 UNL1        0.0000
     18 H          -0.2272  -34.2369   -1.1817 H         1 UNL1        0.0000
     19 H           0.2257  -33.5677    1.0942 H         1 UNL1        0.0000
     20 H           0.6334  -35.2268    2.7919 H         1 UNL1        0.0000
@<TRIPOS>BOND
     1    1    2 1
     2    1   14 1
     3    1   15 1
     4    1   16 1
     5    2   10 2
     6    2   11 1
     7    3    4 ar
     8    3    8 ar
     9    3   11 1
    10    4    5 ar
    11    4   17 1
    12    5    6 ar
    13    5   18 1
    14    6    7 ar
    15    6   19 1
    16    7    8 ar
    17    7   20 1
    18    8    9 1
    19    9   12 ar
    20    9   13 ar
@<TRIPOS>SUBSTRUCTURE
1 UNL1 1
@<TRIPOS>COMMENT
aspirin
PLANTSproteinTorsions
102
1 70.9943
42 237.2899
151 6.4933
173 204.8402
432 256.2292
491 245.8122
531 320.8525
563 180.6212
572 18.3653
629 227.1180
730 44.7397
826 192.7707
895 200.3066
921 29.1049
954 161.9289
1044 236.0117
1258 39.0899
1480 74.3635
1534 68.6905
1612 120.7402
1654 164.0519
1680 15.7409
1704 171.6095
1767 215.6449
1795 290.6609
1847 175.1244
1879 121.6064
1921 231.8125
1944 19.4441
1966 106.7928
1975 339.1947
2067 95.2707
2118 137.4061
2167 84.3617
2220 51.4918
2243 83.5745
2272 274.1969
2294 78.8166
2609 11.8334
2728 206.3324
2931 220.2962
3031 298.1978
3044 185.2158
3058 206.5074
3085 322.4639
3166 194.4336
3188 247.5033
3496 105.4708
3614 224.3153
3656 248.4277
3697 16.7694
3722 176.6256
3847 125.7381
3888 11.7954
4051 41.0278
4174 163.0380
4734 168.2519
4804 308.1478
4952 145.3724
5093 273.6793
5103 122.6711
5144 191.9948
5332 273.5207
5363 128.5295
5457 81.1304
5683 15.5434
5900 45.4721
6049 65.2980
6089 140.3914
6125 75.8655
6181 146.7449
6190 28.5761
6214 175.7934
6331 163.9637
6344 134.4870
6432 203.0224
7006 130.8217
7253 255.1295
7344 120.8177
7385 299.9052
7394 132.5937
7408 111.2142
7540 194.5345
7948 265.1044
8021 186.4573
8226 11.5054
8265 127.1320
8391 231.9135
8443 77.7767
8487 127.3732
8515 252.8226
8527 276.0184
8693 296.8270
8705 48.5311
8731 220.5717
8771 94.0907
8793 271.0995
8887 54.1109
8910 338.2808
8921 156.9831
8973 157.4325
8998 175.7447
PLANTSmolcadARTstart hb
PLANTSmolcadARTstart HB
LINES
PLANTSmolcadARTstart HBCH
LINES
PLANTSmolcadARTstart HB-CHO
LINES
PLANTSmolcadARTend
PLANTSmolcadARTstart HB_WATER
LINES
PLANTSmolcadARTend

PLANTSmolcadARTend

