@<TRIPOS>MOLECULE
aspirin_entry_00001_conf_76
20 20 1
SMALL
NO_CHARGES


@<TRIPOS>ATOM
      1 C         -14.0796  -64.5020   -0.1206 C.3       1 UNL1        0.0000
      2 C         -13.9707  -63.7087   -1.3711 C.2       1 UNL1        0.0000
      3 C         -14.1713  -63.5639   -3.7962 C.ar      1 UNL1        0.0000
      4 C         -14.4060  -62.2229   -4.0144 C.ar      1 UNL1        0.0000
      5 C         -14.2530  -61.6135   -5.2440 C.ar      1 UNL1        0.0000
      6 C         -13.8446  -62.3857   -6.3043 C.ar      1 UNL1        0.0000
      7 C         -13.5966  -63.7313   -6.1418 C.ar      1 UNL1        0.0000
      8 C         -13.7620  -64.3115   -4.8833 C.ar      1 UNL1        0.0000
      9 C         -13.4891  -65.7379   -4.7545 C.2       1 UNL1        0.0000
     10 O         -13.5535  -62.5110   -1.3854 O.2       1 UNL1        0.0000
     11 O         -14.3097  -64.2084   -2.5968 O.3       1 UNL1        0.0000
     12 O         -13.3026  -66.4552   -5.7705 O.co2     1 UNL1       -0.5000
     13 O         -13.4271  -66.3549   -3.5164 O.co2     1 UNL1       -0.5000
     14 H         -13.7592  -63.9058    0.7082 H         1 UNL1        0.0000
     15 H         -13.4604  -65.3712   -0.1949 H         1 UNL1        0.0000
     16 H         -15.0967  -64.7998    0.0250 H         1 UNL1        0.0000
     17 H         -14.7119  -61.6442   -3.2169 H         1 UNL1        0.0000
     18 H         -14.4395  -60.6050   -5.3629 H         1 UNL1        0.0000
     19 H         -13.7226  -61.9537   -7.2336 H         1 UNL1        0.0000
     20 H         -13.2899  -64.3051   -6.9432 H         1 UNL1        0.0000
@<TRIPOS>BOND
     1    1    2 1
     2    1   14 1
     3    1   15 1
     4    1   16 1
     5    2   10 2
     6    2   11 1
     7    3    4 ar
     8    3    8 ar
     9    3   11 1
    10    4    5 ar
    11    4   17 1
    12    5    6 ar
    13    5   18 1
    14    6    7 ar
    15    6   19 1
    16    7    8 ar
    17    7   20 1
    18    8    9 1
    19    9   12 ar
    20    9   13 ar
@<TRIPOS>SUBSTRUCTURE
1 UNL1 1
@<TRIPOS>COMMENT
aspirin
PLANTSproteinTorsions
102
1 5.1519
42 113.0154
151 333.0283
173 1.7463
432 188.4412
491 351.0830
531 116.9149
563 324.6436
572 326.6272
629 161.1488
730 52.4441
826 25.6904
895 79.1293
921 291.8202
954 46.6167
1044 39.9991
1258 122.9546
1480 49.3473
1534 59.4959
1612 47.8377
1654 180.6840
1680 324.3532
1704 101.2962
1767 346.4868
1795 241.1471
1847 92.4573
1879 225.6073
1921 208.1926
1944 42.4196
1966 34.2944
1975 209.9423
2067 349.9529
2118 45.2290
2167 130.2650
2220 303.4314
2243 175.5352
2272 264.1598
2294 35.8485
2609 56.5397
2728 340.6646
2931 108.8843
3031 144.5134
3044 85.7353
3058 46.6311
3085 124.7287
3166 42.6986
3188 318.1736
3496 154.4729
3614 338.5995
3656 302.0161
3697 118.6571
3722 264.4217
3847 74.6065
3888 57.4885
4051 189.6408
4174 137.2592
4734 264.2241
4804 226.3131
4952 159.1226
5093 206.7972
5103 224.7744
5144 205.6155
5332 276.3112
5363 103.9051
5457 249.8140
5683 147.0504
5900 268.3065
6049 250.3250
6089 78.8240
6125 144.0364
6181 235.3129
6190 112.8411
6214 91.6211
6331 249.1584
6344 107.3807
6432 280.8460
7006 285.4235
7253 273.9002
7344 222.9326
7385 223.2184
7394 270.4070
7408 55.5988
7540 242.6062
7948 232.7246
8021 242.9011
8226 187.6830
8265 282.2207
8391 60.1698
8443 31.1648
8487 269.5677
8515 238.9557
8527 200.4236
8693 286.6309
8705 242.1557
8731 53.9987
8771 235.0834
8793 304.2066
8887 139.1044
8910 252.2346
8921 286.8231
8973 269.7462
8998 141.0813
PLANTSmolcadARTstart hb
PLANTSmolcadARTstart HB
LINES
PLANTSmolcadARTstart HBCH
LINES
PLANTSmolcadARTstart HB-CHO
LINES
PLANTSmolcadARTend
PLANTSmolcadARTstart HB_WATER
LINES
PLANTSmolcadARTend

PLANTSmolcadARTend

