@<TRIPOS>MOLECULE
aspirin_entry_00001_conf_34
20 20 1
SMALL
NO_CHARGES


@<TRIPOS>ATOM
      1 C         -15.4603  -63.1395    0.5302 C.3       1 UNL1        0.0000
      2 C         -14.2485  -62.3106    0.7515 C.2       1 UNL1        0.0000
      3 C         -13.1111  -60.1597    0.6021 C.ar      1 UNL1        0.0000
      4 C         -11.7904  -60.5400    0.4925 C.ar      1 UNL1        0.0000
      5 C         -10.7310  -59.6730    0.6736 C.ar      1 UNL1        0.0000
      6 C         -11.0098  -58.3628    0.9784 C.ar      1 UNL1        0.0000
      7 C         -12.3121  -57.9296    1.1004 C.ar      1 UNL1        0.0000
      8 C         -13.3565  -58.8355    0.9096 C.ar      1 UNL1        0.0000
      9 C         -14.7193  -58.3362    1.0478 C.2       1 UNL1        0.0000
     10 O         -13.1826  -62.7803    1.2534 O.2       1 UNL1        0.0000
     11 O         -14.1905  -60.9836    0.4311 O.3       1 UNL1        0.0000
     12 O         -14.9430  -57.1793    1.4873 O.co2     1 UNL1       -0.5000
     13 O         -15.8136  -59.1122    0.7046 O.co2     1 UNL1       -0.5000
     14 H         -15.2705  -64.1413    0.8548 H         1 UNL1        0.0000
     15 H         -15.7046  -63.1426   -0.5114 H         1 UNL1        0.0000
     16 H         -16.2776  -62.7318    1.0871 H         1 UNL1        0.0000
     17 H         -11.5826  -61.5241    0.2628 H         1 UNL1        0.0000
     18 H          -9.7561  -60.0004    0.5816 H         1 UNL1        0.0000
     19 H         -10.2354  -57.6951    1.1183 H         1 UNL1        0.0000
     20 H         -12.5139  -56.9434    1.3295 H         1 UNL1        0.0000
@<TRIPOS>BOND
     1    1    2 1
     2    1   14 1
     3    1   15 1
     4    1   16 1
     5    2   10 2
     6    2   11 1
     7    3    4 ar
     8    3    8 ar
     9    3   11 1
    10    4    5 ar
    11    4   17 1
    12    5    6 ar
    13    5   18 1
    14    6    7 ar
    15    6   19 1
    16    7    8 ar
    17    7   20 1
    18    8    9 1
    19    9   12 ar
    20    9   13 ar
@<TRIPOS>SUBSTRUCTURE
1 UNL1 1
@<TRIPOS>COMMENT
aspirin
PLANTSproteinTorsions
102
1 39.2780
42 316.8820
151 251.2519
173 19.0344
432 128.7786
491 55.4884
531 186.0741
563 190.3591
572 15.7127
629 11.1493
730 340.5186
826 107.8817
895 243.8949
921 308.8699
954 102.4846
1044 168.9001
1258 148.4359
1480 222.0251
1534 87.0486
1612 71.6609
1654 246.7020
1680 58.0350
1704 185.2257
1767 349.9886
1795 2.1409
1847 100.0392
1879 175.1155
1921 63.0170
1944 40.5986
1966 236.4641
1975 54.8901
2067 22.1528
2118 243.4964
2167 103.5104
2220 102.7995
2243 4.9269
2272 144.4660
2294 20.2918
2609 71.2742
2728 335.0793
2931 142.5011
3031 13.1702
3044 162.5584
3058 336.1190
3085 202.2424
3166 16.5244
3188 148.1319
3496 175.1267
3614 277.2070
3656 177.0015
3697 111.4246
3722 163.3344
3847 95.3626
3888 102.2840
4051 275.2859
4174 279.6115
4734 275.0930
4804 232.4166
4952 205.8605
5093 90.6091
5103 259.2519
5144 307.3490
5332 122.0659
5363 81.2365
5457 147.0721
5683 10.2177
5900 43.2030
6049 308.3187
6089 97.3572
6125 94.7398
6181 208.3447
6190 151.9453
6214 1.4279
6331 184.9499
6344 94.6139
6432 284.6070
7006 221.0190
7253 36.1212
7344 93.4214
7385 40.3622
7394 51.5812
7408 134.1175
7540 294.6315
7948 217.7248
8021 143.2929
8226 168.1584
8265 202.9408
8391 177.8349
8443 53.5398
8487 48.3134
8515 191.8913
8527 184.1433
8693 263.7133
8705 34.1437
8731 221.8494
8771 216.9279
8793 252.9883
8887 159.0410
8910 59.0045
8921 238.5466
8973 201.6975
8998 76.6244
PLANTSmolcadARTstart hb
PLANTSmolcadARTstart HB
LINES
-15.8136 -59.1122 0.704626 -16.346 -59.843 1.833 0 255 0 5
PLANTSmolcadARTstart HBCH
LINES
PLANTSmolcadARTstart HB-CHO
LINES
PLANTSmolcadARTend
PLANTSmolcadARTstart HB_WATER
LINES
PLANTSmolcadARTend

PLANTSmolcadARTend

