@<TRIPOS>MOLECULE
aspirin_entry_00001_conf_33
20 20 1
SMALL
NO_CHARGES


@<TRIPOS>ATOM
      1 C         -12.3170  -60.7010    1.4456 C.3       1 UNL1        0.0000
      2 C         -13.0051  -60.9275    0.1495 C.2       1 UNL1        0.0000
      3 C         -13.6478  -62.4298   -1.6594 C.ar      1 UNL1        0.0000
      4 C         -13.6224  -61.6030   -2.7625 C.ar      1 UNL1        0.0000
      5 C         -14.2171  -61.9224   -3.9671 C.ar      1 UNL1        0.0000
      6 C         -14.8671  -63.1283   -4.0700 C.ar      1 UNL1        0.0000
      7 C         -14.9231  -63.9923   -2.9982 C.ar      1 UNL1        0.0000
      8 C         -14.3096  -63.6345   -1.7967 C.ar      1 UNL1        0.0000
      9 C         -14.3923  -64.5772   -0.6876 C.2       1 UNL1        0.0000
     10 O         -13.5768  -59.9945   -0.4919 O.2       1 UNL1        0.0000
     11 O         -13.0730  -62.1543   -0.4483 O.3       1 UNL1        0.0000
     12 O         -15.0023  -65.6699   -0.8113 O.co2     1 UNL1       -0.5000
     13 O         -13.8078  -64.3068    0.5383 O.co2     1 UNL1       -0.5000
     14 H         -12.3931  -59.6678    1.7133 H         1 UNL1        0.0000
     15 H         -11.2857  -60.9704    1.3534 H         1 UNL1        0.0000
     16 H         -12.7762  -61.3013    2.2026 H         1 UNL1        0.0000
     17 H         -13.1332  -60.6981   -2.6838 H         1 UNL1        0.0000
     18 H         -14.1735  -61.2731   -4.7686 H         1 UNL1        0.0000
     19 H         -15.3193  -63.3904   -4.9599 H         1 UNL1        0.0000
     20 H         -15.4132  -64.8969   -3.0831 H         1 UNL1        0.0000
@<TRIPOS>BOND
     1    1    2 1
     2    1   14 1
     3    1   15 1
     4    1   16 1
     5    2   10 2
     6    2   11 1
     7    3    4 ar
     8    3    8 ar
     9    3   11 1
    10    4    5 ar
    11    4   17 1
    12    5    6 ar
    13    5   18 1
    14    6    7 ar
    15    6   19 1
    16    7    8 ar
    17    7   20 1
    18    8    9 1
    19    9   12 ar
    20    9   13 ar
@<TRIPOS>SUBSTRUCTURE
1 UNL1 1
@<TRIPOS>COMMENT
aspirin
PLANTSproteinTorsions
102
1 218.9479
42 122.6088
151 260.1878
173 48.1420
432 223.9866
491 7.4603
531 219.3889
563 144.6818
572 330.4785
629 186.3790
730 80.5529
826 103.5176
895 112.6597
921 317.8859
954 43.4290
1044 29.5030
1258 156.0782
1480 224.0480
1534 72.1920
1612 218.9240
1654 242.5517
1680 126.7610
1704 123.3644
1767 264.0479
1795 268.6991
1847 116.7321
1879 173.8258
1921 86.4387
1944 65.2659
1966 97.3534
1975 222.4688
2067 195.9546
2118 233.8047
2167 105.1775
2220 152.5524
2243 170.9019
2272 200.0518
2294 148.4566
2609 154.9587
2728 238.8887
2931 150.2177
3031 35.4723
3044 82.3041
3058 262.4805
3085 150.0970
3166 341.7352
3188 129.8008
3496 168.1859
3614 336.0186
3656 267.6347
3697 122.5968
3722 186.6584
3847 39.8677
3888 284.0460
4051 214.6131
4174 293.8760
4734 332.8959
4804 222.2469
4952 187.9410
5093 293.6104
5103 284.2443
5144 291.1693
5332 251.2851
5363 90.4379
5457 305.3148
5683 136.0868
5900 57.3402
6049 232.4635
6089 323.7702
6125 90.9054
6181 226.1344
6190 192.0920
6214 73.2619
6331 191.7031
6344 61.0391
6432 264.6364
7006 205.4739
7253 263.1682
7344 131.9839
7385 16.7097
7394 163.4895
7408 212.3946
7540 286.5418
7948 157.7871
8021 258.0120
8226 255.1794
8265 278.1563
8391 131.1389
8443 72.5563
8487 269.7140
8515 262.0386
8527 214.9108
8693 278.0233
8705 26.2881
8731 243.7166
8771 255.1217
8793 251.0136
8887 106.4447
8910 54.9562
8921 263.8928
8973 24.7975
8998 292.3844
PLANTSmolcadARTstart hb
PLANTSmolcadARTstart HB
LINES
PLANTSmolcadARTstart HBCH
LINES
PLANTSmolcadARTstart HB-CHO
LINES
PLANTSmolcadARTend
PLANTSmolcadARTstart HB_WATER
LINES
PLANTSmolcadARTend

PLANTSmolcadARTend

