@<TRIPOS>MOLECULE
aspirin_entry_00001_conf_41
20 20 1
SMALL
NO_CHARGES


@<TRIPOS>ATOM
      1 C         -47.8036  -63.0984   13.6772 C.3       1 UNL1        0.0000
      2 C         -47.6861  -63.3253   12.2145 C.2       1 UNL1        0.0000
      3 C         -47.3374  -60.9850   11.6283 C.ar      1 UNL1        0.0000
      4 C         -48.0897  -60.2993   12.5582 C.ar      1 UNL1        0.0000
      5 C         -47.9200  -58.9571   12.8346 C.ar      1 UNL1        0.0000
      6 C         -46.9494  -58.2708   12.1461 C.ar      1 UNL1        0.0000
      7 C         -46.1693  -58.9073   11.2054 C.ar      1 UNL1        0.0000
      8 C         -46.3703  -60.2653   10.9538 C.ar      1 UNL1        0.0000
      9 C         -45.5237  -60.9003    9.9510 C.2       1 UNL1        0.0000
     10 O         -47.7785  -64.4778   11.6930 O.2       1 UNL1        0.0000
     11 O         -47.4711  -62.3124   11.3230 O.3       1 UNL1        0.0000
     12 O         -44.7885  -60.2138    9.1963 O.co2     1 UNL1       -0.5000
     13 O         -45.4979  -62.2755    9.7901 O.co2     1 UNL1       -0.5000
     14 H         -47.9701  -64.0333   14.1702 H         1 UNL1        0.0000
     15 H         -48.6257  -62.4418   13.8710 H         1 UNL1        0.0000
     16 H         -46.9005  -62.6569   14.0430 H         1 UNL1        0.0000
     17 H         -48.8178  -60.8164   13.0750 H         1 UNL1        0.0000
     18 H         -48.5060  -58.4827   13.5401 H         1 UNL1        0.0000
     19 H         -46.8027  -57.2667   12.3347 H         1 UNL1        0.0000
     20 H         -45.4417  -58.3850   10.6921 H         1 UNL1        0.0000
@<TRIPOS>BOND
     1    1    2 1
     2    1   14 1
     3    1   15 1
     4    1   16 1
     5    2   10 2
     6    2   11 1
     7    3    4 ar
     8    3    8 ar
     9    3   11 1
    10    4    5 ar
    11    4   17 1
    12    5    6 ar
    13    5   18 1
    14    6    7 ar
    15    6   19 1
    16    7    8 ar
    17    7   20 1
    18    8    9 1
    19    9   12 ar
    20    9   13 ar
@<TRIPOS>SUBSTRUCTURE
1 UNL1 1
@<TRIPOS>COMMENT
aspirin
PLANTSproteinTorsions
102
1 103.3699
42 1.3763
151 1.3507
173 162.5104
432 196.9956
491 18.6570
531 160.1313
563 263.5582
572 337.8123
629 243.7515
730 344.8536
826 166.4547
895 357.6630
921 75.5306
954 99.9677
1044 92.2200
1258 151.3659
1480 358.7433
1534 202.8981
1612 74.3402
1654 45.6016
1680 31.5407
1704 350.5627
1767 226.1179
1795 335.1976
1847 112.6406
1879 129.5547
1921 357.8428
1944 149.1836
1966 5.3559
1975 214.3651
2067 351.2250
2118 234.4718
2167 148.5695
2220 337.1899
2243 257.7399
2272 216.6993
2294 70.0090
2609 266.1210
2728 315.5085
2931 53.8084
3031 70.6360
3044 90.1329
3058 187.2550
3085 129.9920
3166 284.6456
3188 340.7924
3496 206.7762
3614 155.3032
3656 285.0641
3697 80.5846
3722 256.2385
3847 45.7251
3888 176.8284
4051 130.3753
4174 136.1215
4734 237.7753
4804 5.6612
4952 157.4134
5093 196.7080
5103 277.5923
5144 233.5389
5332 58.9810
5363 299.9018
5457 272.9968
5683 208.7510
5900 115.9937
6049 122.6926
6089 243.2800
6125 85.8556
6181 3.7303
6190 164.6323
6214 40.1115
6331 185.5873
6344 176.4585
6432 243.6326
7006 114.5243
7253 232.2815
7344 52.5762
7385 88.9924
7394 170.3723
7408 118.9851
7540 214.0828
7948 274.3197
8021 267.4136
8226 126.6591
8265 274.8991
8391 269.7511
8443 34.6048
8487 255.4250
8515 268.5941
8527 188.1066
8693 260.8021
8705 106.1849
8731 182.7624
8771 230.4508
8793 218.0137
8887 56.1831
8910 69.4160
8921 180.7177
8973 246.4302
8998 141.9469
PLANTSmolcadARTstart hb
PLANTSmolcadARTstart HB
LINES
PLANTSmolcadARTstart HBCH
LINES
PLANTSmolcadARTstart HB-CHO
LINES
PLANTSmolcadARTend
PLANTSmolcadARTstart HB_WATER
LINES
PLANTSmolcadARTend

PLANTSmolcadARTend

