MODEL 1
REMARK VINA RESULT:      -8.8      0.000      0.000
REMARK  4 active torsions:
REMARK  status: ('A' for Active; 'I' for Inactive)
REMARK       I    between atoms: N_1  and  C_17 
REMARK       I    between atoms: N_2  and  C_22 
REMARK    1  A    between atoms: C_12  and  C_13 
REMARK    2  A    between atoms: C_13  and  C_14 
REMARK    3  A    between atoms: C_16  and  C_17 
REMARK    4  A    between atoms: C_22  and  C_23 
ROOT
HETATM    1  C   UNL     1      41.015 -16.170  11.898  1.00  0.00    -0.051 A 
HETATM    2  C   UNL     1      39.857 -16.650  11.260  1.00  0.00     0.027 A 
HETATM    3  C   UNL     1      39.274 -15.913  10.257  1.00  0.00     0.071 A 
HETATM    4  C   UNL     1      39.764 -14.703   9.828  1.00  0.00     0.132 A 
HETATM    5  C   UNL     1      40.897 -14.234  10.454  1.00  0.00     0.044 A 
HETATM    6  C   UNL     1      41.496 -14.984  11.476  1.00  0.00     0.010 A 
HETATM    7  F   UNL     1      39.148 -14.008   8.827  1.00  0.00    -0.205 F 
ENDROOT
BRANCH   1   8
HETATM    8  C   UNL     1      41.573 -17.051  12.961  1.00  0.00     0.100 C 
BRANCH   8   9
HETATM    9  C   UNL     1      41.507 -16.391  14.259  1.00  0.00     0.070 A 
HETATM   10  N   UNL     1      40.263 -16.296  14.821  1.00  0.00    -0.175 NA
HETATM   11  N   UNL     1      40.072 -15.674  15.959  1.00  0.00    -0.243 N 
HETATM   12  H   UNL     1      39.157 -15.632  16.321  1.00  0.00     0.192 HD
HETATM   13  C   UNL     1      41.059 -15.091  16.654  1.00  0.00     0.272 A 
HETATM   14  C   UNL     1      42.344 -15.145  16.153  1.00  0.00     0.046 A 
HETATM   15  O   UNL     1      40.895 -14.489  17.746  1.00  0.00    -0.266 OA
HETATM   16  C   UNL     1      43.411 -14.572  16.845  1.00  0.00     0.018 A 
HETATM   17  C   UNL     1      42.532 -15.804  14.952  1.00  0.00     0.006 A 
HETATM   18  C   UNL     1      44.689 -14.656  16.336  1.00  0.00     0.001 A 
HETATM   19  C   UNL     1      44.843 -15.322  15.138  1.00  0.00     0.001 A 
HETATM   20  C   UNL     1      43.793 -15.895  14.441  1.00  0.00     0.014 A 
ENDBRANCH   8   9
ENDBRANCH   1   8
BRANCH   3  21
HETATM   21  C   UNL     1      38.057 -16.393   9.564  1.00  0.00     0.257 C 
HETATM   22  N   UNL     1      38.205 -16.989   8.284  1.00  0.00    -0.345 N 
HETATM   23  C   UNL     1      37.056 -17.468   7.587  1.00  0.00     0.146 C 
HETATM   24  C   UNL     1      39.534 -17.097   7.710  1.00  0.00     0.146 C 
HETATM   25  C   UNL     1      37.244 -17.472   6.085  1.00  0.00     0.145 C 
HETATM   26  N   UNL     1      38.230 -16.482   5.736  1.00  0.00    -0.349 N 
HETATM   27  C   UNL     1      39.585 -16.679   6.263  1.00  0.00     0.145 C 
HETATM   28  C   UNL     1      37.933 -15.376   4.934  1.00  0.00     0.224 C 
HETATM   29  O   UNL     1      38.886 -14.559   4.673  1.00  0.00    -0.273 OA
HETATM   30  O   UNL     1      36.916 -16.290  10.069  1.00  0.00    -0.267 OA
BRANCH  28  31
HETATM   31  C   UNL     1      36.633 -15.036   4.348  1.00  0.00     0.078 A 
HETATM   32  C   UNL     1      36.298 -15.706   3.035  1.00  0.00     0.015 A 
HETATM   33  C   UNL     1      36.543 -14.263   3.082  1.00  0.00     0.015 A 
ENDBRANCH  28  31
ENDBRANCH   3  21
TORSDOF 4
ENDMDL
