MODEL 1
REMARK VINA RESULT:     -12.1      0.000      0.000
REMARK  4 active torsions:
REMARK  status: ('A' for Active; 'I' for Inactive)
REMARK       I    between atoms: N_1  and  C_17 
REMARK       I    between atoms: N_2  and  C_22 
REMARK    1  A    between atoms: C_12  and  C_13 
REMARK    2  A    between atoms: C_13  and  C_14 
REMARK    3  A    between atoms: C_16  and  C_17 
REMARK    4  A    between atoms: C_22  and  C_23 
ROOT
HETATM    1  C   UNL     1      26.517  -8.095   9.554  1.00  0.00    -0.051 A 
HETATM    2  C   UNL     1      25.504  -9.002   9.195  1.00  0.00     0.027 A 
HETATM    3  C   UNL     1      25.570 -10.306   9.625  1.00  0.00     0.071 A 
HETATM    4  C   UNL     1      26.591 -10.791  10.406  1.00  0.00     0.132 A 
HETATM    5  C   UNL     1      27.582  -9.903  10.758  1.00  0.00     0.044 A 
HETATM    6  C   UNL     1      27.518  -8.572  10.321  1.00  0.00     0.010 A 
HETATM    7  F   UNL     1      26.611 -12.095  10.810  1.00  0.00    -0.205 F 
ENDROOT
BRANCH   1   8
HETATM    8  C   UNL     1      26.344  -6.706   9.045  1.00  0.00     0.100 C 
BRANCH   8   9
HETATM    9  C   UNL     1      26.746  -5.737  10.056  1.00  0.00     0.070 A 
HETATM   10  N   UNL     1      26.009  -5.733  11.210  1.00  0.00    -0.175 NA
HETATM   11  N   UNL     1      26.240  -4.868  12.167  1.00  0.00    -0.243 N 
HETATM   12  H   UNL     1      25.682  -4.906  12.977  1.00  0.00     0.192 HD
HETATM   13  C   UNL     1      27.198  -3.932  12.097  1.00  0.00     0.272 A 
HETATM   14  C   UNL     1      27.984  -3.871  10.965  1.00  0.00     0.046 A 
HETATM   15  O   UNL     1      27.433  -3.093  13.003  1.00  0.00    -0.266 OA
HETATM   16  C   UNL     1      29.008  -2.930  10.849  1.00  0.00     0.018 A 
HETATM   17  C   UNL     1      27.731  -4.790   9.963  1.00  0.00     0.006 A 
HETATM   18  C   UNL     1      29.795  -2.902   9.717  1.00  0.00     0.001 A 
HETATM   19  C   UNL     1      29.517  -3.833   8.739  1.00  0.00     0.001 A 
HETATM   20  C   UNL     1      28.505  -4.772   8.841  1.00  0.00     0.014 A 
ENDBRANCH   8   9
ENDBRANCH   1   8
BRANCH   3  21
HETATM   21  C   UNL     1      24.517 -11.283   9.267  1.00  0.00     0.257 C 
HETATM   22  N   UNL     1      23.573 -11.648  10.262  1.00  0.00    -0.345 N 
HETATM   23  C   UNL     1      22.541 -12.583   9.952  1.00  0.00     0.146 C 
HETATM   24  C   UNL     1      23.680 -11.054  11.582  1.00  0.00     0.146 C 
HETATM   25  C   UNL     1      22.047 -13.332  11.171  1.00  0.00     0.145 C 
HETATM   26  N   UNL     1      23.093 -13.355  12.160  1.00  0.00    -0.349 N 
HETATM   27  C   UNL     1      23.534 -12.062  12.693  1.00  0.00     0.145 C 
HETATM   28  C   UNL     1      23.679 -14.544  12.605  1.00  0.00     0.224 C 
HETATM   29  O   UNL     1      24.596 -14.457  13.497  1.00  0.00    -0.273 OA
HETATM   30  O   UNL     1      24.439 -11.791   8.124  1.00  0.00    -0.267 OA
BRANCH  28  31
HETATM   31  C   UNL     1      23.360 -15.904  12.162  1.00  0.00     0.078 A 
HETATM   32  C   UNL     1      24.517 -16.722  11.636  1.00  0.00     0.015 A 
HETATM   33  C   UNL     1      23.455 -16.284  10.728  1.00  0.00     0.015 A 
ENDBRANCH  28  31
ENDBRANCH   3  21
TORSDOF 4
ENDMDL
