@<TRIPOS>MOLECULE
ibuprofen_entry_00001_conf_08_protein
24 14 10
SMALL
NO_CHARGES


@<TRIPOS>ATOM
      1 HG         10.0276   -4.6136   11.0855 H        12 SER12       0.2095
      2 OG          9.4490   -4.0950   11.7260 O.3      12 SER12      -0.3927
      3 HG          8.0078   -1.8632   18.8074 H        13 SER13       0.2095
      4 OG          7.9070   -1.3530   17.9520 O.3      13 SER13      -0.3927
      5 HH         11.6408    9.4553   22.4602 H        19 TYR19       0.2921
      6 OH         11.2460    8.8760   21.7530 O.3      19 TYR19      -0.5068
      7 HG1        17.9542   18.4316   11.0564 H        85 THR85       0.2099
      8 OG1        17.0870   18.7200   11.4720 O.3      85 THR85      -0.3897
      9 HG1        17.9375   13.9216   18.4256 H       103 THR103      0.2099
     10 OG1        17.3390   13.4050   19.0470 O.3     103 THR103     -0.3897
     11 HZ1        21.3804   10.8443   14.7830 H       105 LYS105     -0.0901
     12 NZ         20.9410   10.5630   13.9310 N.4     105 LYS105      0.3781
     13 HZ2        21.0943    9.5878   13.7784 H       105 LYS105     -0.0901
     14 HZ3        21.3174   11.0873   13.1685 H       105 LYS105     -0.0901
     15 HZ1        20.6417    6.0959    6.5077 H       107 LYS107     -0.0901
     16 NZ         20.6650    6.7040    5.7080 N.4     107 LYS107      0.3781
     17 HZ2        21.0487    6.1980    4.9288 H       107 LYS107     -0.0901
     18 HZ3        21.2647    7.4837    5.9138 H       107 LYS107     -0.0901
     19 HG1        19.8264    3.6302   18.9935 H       123 THR123      0.2099
     20 OG1        19.2020    3.5350   19.7810 O.3     123 THR123     -0.3897
     21 HG1        16.3796   -0.1493   14.5031 H       125 THR125      0.2099
     22 OG1        15.6700    0.2970   15.0630 O.3     125 THR125     -0.3897
     23 HH          4.9002    4.5308   13.9525 H       128 TYR128      0.2921
     24 OH          4.1730    4.3840   13.2870 O.3     128 TYR128     -0.5068
@<TRIPOS>BOND
     1   15   16 1
     2   17   16 1
     3   16   18 1
     4    8    7 1
     5    2    1 1
     6   23   24 1
     7   14   12 1
     8   11   12 1
     9   12   13 1
    10   22   21 1
    11    3    4 1
    12   10    9 1
    13   20   19 1
    14    6    5 1
@<TRIPOS>SUBSTRUCTURE
12 SER12 1
13 SER13 3
19 TYR19 5
85 THR85 7
103 THR103 9
105 LYS105 11
107 LYS107 15
123 THR123 19
125 THR125 21
128 TYR128 23
@<TRIPOS>COMMENT
