@<TRIPOS>MOLECULE
ibuprofen_entry_00001_conf_01_protein
24 14 10
SMALL
NO_CHARGES


@<TRIPOS>ATOM
      1 HG          9.0322   -3.2327   11.4150 H        12 SER12       0.2095
      2 OG          9.4490   -4.0950   11.7260 O.3      12 SER12      -0.3927
      3 HG          7.9924   -0.4208   17.5971 H        13 SER13       0.2095
      4 OG          7.9070   -1.3530   17.9520 O.3      13 SER13      -0.3927
      5 HH         10.3243    9.1129   22.0462 H        19 TYR19       0.2921
      6 OH         11.2460    8.8760   21.7530 O.3      19 TYR19      -0.5068
      7 HG1        17.9919   18.4895   11.1033 H        85 THR85       0.2099
      8 OG1        17.0870   18.7200   11.4720 O.3      85 THR85      -0.3897
      9 HG1        18.3250   13.2636   19.1854 H       103 THR103      0.2099
     10 OG1        17.3390   13.4050   19.0470 O.3     103 THR103     -0.3897
     11 HZ1        21.1409    9.6584   14.3052 H       105 LYS105     -0.0901
     12 NZ         20.9410   10.5630   13.9310 N.4     105 LYS105      0.3781
     13 HZ2        21.2196   10.6006   12.9725 H       105 LYS105     -0.0901
     14 HZ3        21.4315   11.2596   14.4527 H       105 LYS105     -0.0901
     15 HZ1        21.2501    7.4781    5.9693 H       107 LYS107     -0.0901
     16 NZ         20.6650    6.7040    5.7080 N.4     107 LYS107      0.3781
     17 HZ2        20.6344    6.0506    6.4712 H       107 LYS107     -0.0901
     18 HZ3        21.0708    6.2490    4.9091 H       107 LYS107     -0.0901
     19 HG1        19.4733    3.4427   20.7490 H       123 THR123      0.2099
     20 OG1        19.2020    3.5350   19.7810 O.3     123 THR123     -0.3897
     21 HG1        16.2397   -0.4598   15.4079 H       125 THR125      0.2099
     22 OG1        15.6700    0.2970   15.0630 O.3     125 THR125     -0.3897
     23 HH          4.0485    5.3727   13.3047 H       128 TYR128      0.2921
     24 OH          4.1730    4.3840   13.2870 O.3     128 TYR128     -0.5068
@<TRIPOS>BOND
     1   15   16 1
     2   17   16 1
     3   16   18 1
     4    8    7 1
     5    2    1 1
     6   23   24 1
     7   14   12 1
     8   11   12 1
     9   12   13 1
    10   22   21 1
    11    3    4 1
    12   10    9 1
    13   20   19 1
    14    6    5 1
@<TRIPOS>SUBSTRUCTURE
12 SER12 1
13 SER13 3
19 TYR19 5
85 THR85 7
103 THR103 9
105 LYS105 11
107 LYS107 15
123 THR123 19
125 THR125 21
128 TYR128 23
@<TRIPOS>COMMENT
