MODEL 1
REMARK VINA RESULT:      -6.4      0.000      0.000
REMARK  3 active torsions:
REMARK  status: ('A' for Active; 'I' for Inactive)
REMARK    1  A    between atoms: C_2  and  O_11 
REMARK    2  A    between atoms: C_3  and  O_11 
REMARK    3  A    between atoms: C_8  and  C_9 
ROOT
HETATM    1  C   UNL     1     -42.244 -55.734   7.956  1.00  0.00     0.096 A 
HETATM    2  C   UNL     1     -43.264 -56.239   8.734  1.00  0.00     0.038 A 
HETATM    3  C   UNL     1     -44.159 -55.446   9.425  1.00  0.00     0.003 A 
HETATM    4  C   UNL     1     -44.023 -54.083   9.332  1.00  0.00     0.001 A 
HETATM    5  C   UNL     1     -43.021 -53.525   8.568  1.00  0.00     0.021 A 
HETATM    6  C   UNL     1     -42.135 -54.359   7.884  1.00  0.00     0.074 A 
ENDROOT
BRANCH   1   7
HETATM    7  O   UNL     1     -41.336 -56.482   7.256  1.00  0.00    -0.278 OA
BRANCH   7   8
HETATM    8  C   UNL     1     -41.615 -57.312   6.208  1.00  0.00     0.260 C 
HETATM    9  C   UNL     1     -41.204 -58.739   6.180  1.00  0.00     0.126 C 
HETATM   10  O   UNL     1     -42.256 -56.768   5.258  1.00  0.00    -0.265 OA
ENDBRANCH   7   8
ENDBRANCH   1   7
BRANCH   6  11
HETATM   11  C   UNL     1     -41.090 -53.728   7.087  1.00  0.00     0.212 C 
HETATM   12  O   UNL     1     -40.173 -53.062   7.633  1.00  0.00    -0.644 OA
HETATM   13  O   UNL     1     -41.067 -53.836   5.707  1.00  0.00    -0.644 OA
ENDBRANCH   6  11
TORSDOF 3
ENDMDL
MODEL 2
REMARK VINA RESULT:      -6.2     27.794     28.617
REMARK  3 active torsions:
REMARK  status: ('A' for Active; 'I' for Inactive)
REMARK    1  A    between atoms: C_2  and  O_11 
REMARK    2  A    between atoms: C_3  and  O_11 
REMARK    3  A    between atoms: C_8  and  C_9 
ROOT
HETATM    1  C   UNL     1     -14.558 -56.741  -0.464  1.00  0.00     0.096 A 
HETATM    2  C   UNL     1     -14.741 -58.107  -0.420  1.00  0.00     0.038 A 
HETATM    3  C   UNL     1     -14.547 -58.865   0.718  1.00  0.00     0.003 A 
HETATM    4  C   UNL     1     -14.151 -58.222   1.865  1.00  0.00     0.001 A 
HETATM    5  C   UNL     1     -13.954 -56.858   1.877  1.00  0.00     0.021 A 
HETATM    6  C   UNL     1     -14.159 -56.126   0.707  1.00  0.00     0.074 A 
ENDROOT
BRANCH   1   7
HETATM    7  O   UNL     1     -14.738 -55.952  -1.568  1.00  0.00    -0.278 OA
BRANCH   7   8
HETATM    8  C   UNL     1     -15.910 -55.773  -2.247  1.00  0.00     0.260 C 
HETATM    9  C   UNL     1     -16.450 -56.777  -3.198  1.00  0.00     0.126 C 
HETATM   10  O   UNL     1     -16.503 -54.680  -1.999  1.00  0.00    -0.265 OA
ENDBRANCH   7   8
ENDBRANCH   1   7
BRANCH   6  11
HETATM   11  C   UNL     1     -13.940 -54.686   0.762  1.00  0.00     0.212 C 
HETATM   12  O   UNL     1     -14.876 -53.899   1.056  1.00  0.00    -0.644 OA
HETATM   13  O   UNL     1     -12.700 -54.131   0.493  1.00  0.00    -0.644 OA
ENDBRANCH   6  11
TORSDOF 3
ENDMDL
MODEL 3
REMARK VINA RESULT:      -6.2     28.094     29.607
REMARK  3 active torsions:
REMARK  status: ('A' for Active; 'I' for Inactive)
REMARK    1  A    between atoms: C_2  and  O_11 
REMARK    2  A    between atoms: C_3  and  O_11 
REMARK    3  A    between atoms: C_8  and  C_9 
ROOT
HETATM    1  C   UNL     1     -14.439 -57.208  -0.421  1.00  0.00     0.096 A 
HETATM    2  C   UNL     1     -15.102 -56.980  -1.608  1.00  0.00     0.038 A 
HETATM    3  C   UNL     1     -15.058 -57.846  -2.683  1.00  0.00     0.003 A 
HETATM    4  C   UNL     1     -14.314 -58.994  -2.561  1.00  0.00     0.001 A 
HETATM    5  C   UNL     1     -13.632 -59.272  -1.396  1.00  0.00     0.021 A 
HETATM    6  C   UNL     1     -13.700 -58.372  -0.331  1.00  0.00     0.074 A 
ENDROOT
BRANCH   1   7
HETATM    7  O   UNL     1     -14.455 -56.379   0.668  1.00  0.00    -0.278 OA
BRANCH   7   8
HETATM    8  C   UNL     1     -14.166 -55.043   0.666  1.00  0.00     0.260 C 
HETATM    9  C   UNL     1     -15.129 -54.011   1.128  1.00  0.00     0.126 C 
HETATM   10  O   UNL     1     -13.007 -54.754   0.239  1.00  0.00    -0.265 OA
ENDBRANCH   7   8
ENDBRANCH   1   7
BRANCH   6  11
HETATM   11  C   UNL     1     -12.965 -58.703   0.883  1.00  0.00     0.212 C 
HETATM   12  O   UNL     1     -13.484 -59.414   1.781  1.00  0.00    -0.644 OA
HETATM   13  O   UNL     1     -11.674 -58.249   1.095  1.00  0.00    -0.644 OA
ENDBRANCH   6  11
TORSDOF 3
ENDMDL
MODEL 4
REMARK VINA RESULT:      -6.0     28.477     29.504
REMARK  3 active torsions:
REMARK  status: ('A' for Active; 'I' for Inactive)
REMARK    1  A    between atoms: C_2  and  O_11 
REMARK    2  A    between atoms: C_3  and  O_11 
REMARK    3  A    between atoms: C_8  and  C_9 
ROOT
HETATM    1  C   UNL     1     -13.829 -59.279  -1.156  1.00  0.00     0.096 A 
HETATM    2  C   UNL     1     -14.016 -59.615  -2.479  1.00  0.00     0.038 A 
HETATM    3  C   UNL     1     -14.711 -58.825  -3.374  1.00  0.00     0.003 A 
HETATM    4  C   UNL     1     -15.242 -57.643  -2.920  1.00  0.00     0.001 A 
HETATM    5  C   UNL     1     -15.084 -57.259  -1.606  1.00  0.00     0.021 A 
HETATM    6  C   UNL     1     -14.376 -58.084  -0.731  1.00  0.00     0.074 A 
ENDROOT
BRANCH   1   7
HETATM    7  O   UNL     1     -13.149 -60.030  -0.235  1.00  0.00    -0.278 OA
BRANCH   7   8
HETATM    8  C   UNL     1     -13.544 -61.237   0.268  1.00  0.00     0.260 C 
HETATM    9  C   UNL     1     -13.216 -62.528  -0.389  1.00  0.00     0.126 C 
HETATM   10  O   UNL     1     -14.214 -61.169   1.343  1.00  0.00    -0.265 OA
ENDBRANCH   7   8
ENDBRANCH   1   7
BRANCH   6  11
HETATM   11  C   UNL     1     -14.232 -57.640   0.650  1.00  0.00     0.212 C 
HETATM   12  O   UNL     1     -13.293 -56.875   0.989  1.00  0.00    -0.644 OA
HETATM   13  O   UNL     1     -15.117 -58.041   1.637  1.00  0.00    -0.644 OA
ENDBRANCH   6  11
TORSDOF 3
ENDMDL
MODEL 5
REMARK VINA RESULT:      -5.7     26.207     27.880
REMARK  3 active torsions:
REMARK  status: ('A' for Active; 'I' for Inactive)
REMARK    1  A    between atoms: C_2  and  O_11 
REMARK    2  A    between atoms: C_3  and  O_11 
REMARK    3  A    between atoms: C_8  and  C_9 
ROOT
HETATM    1  C   UNL     1     -22.649 -45.093 -10.388  1.00  0.00     0.096 A 
HETATM    2  C   UNL     1     -21.901 -43.981 -10.063  1.00  0.00     0.038 A 
HETATM    3  C   UNL     1     -22.389 -42.926  -9.319  1.00  0.00     0.003 A 
HETATM    4  C   UNL     1     -23.689 -42.989  -8.880  1.00  0.00     0.001 A 
HETATM    5  C   UNL     1     -24.481 -44.077  -9.175  1.00  0.00     0.021 A 
HETATM    6  C   UNL     1     -23.952 -45.125  -9.931  1.00  0.00     0.074 A 
ENDROOT
BRANCH   1   7
HETATM    7  O   UNL     1     -22.206 -46.160 -11.122  1.00  0.00    -0.278 OA
BRANCH   7   8
HETATM    8  C   UNL     1     -21.322 -47.114 -10.703  1.00  0.00     0.260 C 
HETATM    9  C   UNL     1     -21.307 -47.642  -9.315  1.00  0.00     0.126 C 
HETATM   10  O   UNL     1     -20.515 -47.515 -11.595  1.00  0.00    -0.265 OA
ENDBRANCH   7   8
ENDBRANCH   1   7
BRANCH   6  11
HETATM   11  C   UNL     1     -24.823 -46.257 -10.221  1.00  0.00     0.212 C 
HETATM   12  O   UNL     1     -24.916 -47.223  -9.421  1.00  0.00    -0.644 OA
HETATM   13  O   UNL     1     -25.575 -46.314 -11.382  1.00  0.00    -0.644 OA
ENDBRANCH   6  11
TORSDOF 3
ENDMDL
MODEL 6
REMARK VINA RESULT:      -5.6     23.252     24.891
REMARK  3 active torsions:
REMARK  status: ('A' for Active; 'I' for Inactive)
REMARK    1  A    between atoms: C_2  and  O_11 
REMARK    2  A    between atoms: C_3  and  O_11 
REMARK    3  A    between atoms: C_8  and  C_9 
ROOT
HETATM    1  C   UNL     1     -30.464 -55.591 -13.724  1.00  0.00     0.096 A 
HETATM    2  C   UNL     1     -30.042 -54.843 -12.646  1.00  0.00     0.038 A 
HETATM    3  C   UNL     1     -28.971 -53.972 -12.696  1.00  0.00     0.003 A 
HETATM    4  C   UNL     1     -28.292 -53.847 -13.884  1.00  0.00     0.001 A 
HETATM    5  C   UNL     1     -28.673 -54.571 -14.993  1.00  0.00     0.021 A 
HETATM    6  C   UNL     1     -29.760 -55.442 -14.903  1.00  0.00     0.074 A 
ENDROOT
BRANCH   1   7
HETATM    7  O   UNL     1     -31.517 -56.465 -13.719  1.00  0.00    -0.278 OA
BRANCH   7   8
HETATM    8  C   UNL     1     -32.815 -56.159 -13.417  1.00  0.00     0.260 C 
HETATM    9  C   UNL     1     -33.507 -54.964 -13.961  1.00  0.00     0.126 C 
HETATM   10  O   UNL     1     -33.383 -56.980 -12.635  1.00  0.00    -0.265 OA
ENDBRANCH   7   8
ENDBRANCH   1   7
BRANCH   6  11
HETATM   11  C   UNL     1     -30.129 -56.189 -16.099  1.00  0.00     0.212 C 
HETATM   12  O   UNL     1     -30.547 -55.599 -17.127  1.00  0.00    -0.644 OA
HETATM   13  O   UNL     1     -30.036 -57.570 -16.148  1.00  0.00    -0.644 OA
ENDBRANCH   6  11
TORSDOF 3
ENDMDL
MODEL 7
REMARK VINA RESULT:      -5.3     16.620     18.439
REMARK  3 active torsions:
REMARK  status: ('A' for Active; 'I' for Inactive)
REMARK    1  A    between atoms: C_2  and  O_11 
REMARK    2  A    between atoms: C_3  and  O_11 
REMARK    3  A    between atoms: C_8  and  C_9 
ROOT
HETATM    1  C   UNL     1     -50.662 -47.696  21.881  1.00  0.00     0.096 A 
HETATM    2  C   UNL     1     -50.473 -46.415  21.407  1.00  0.00     0.038 A 
HETATM    3  C   UNL     1     -51.490 -45.634  20.895  1.00  0.00     0.003 A 
HETATM    4  C   UNL     1     -52.757 -46.164  20.856  1.00  0.00     0.001 A 
HETATM    5  C   UNL     1     -53.002 -47.439  21.316  1.00  0.00     0.021 A 
HETATM    6  C   UNL     1     -51.948 -48.198  21.827  1.00  0.00     0.074 A 
ENDROOT
BRANCH   1   7
HETATM    7  O   UNL     1     -49.684 -48.504  22.396  1.00  0.00    -0.278 OA
BRANCH   7   8
HETATM    8  C   UNL     1     -48.931 -49.402  21.694  1.00  0.00     0.260 C 
HETATM    9  C   UNL     1     -48.431 -50.668  22.287  1.00  0.00     0.126 C 
HETATM   10  O   UNL     1     -48.692 -49.069  20.494  1.00  0.00    -0.265 OA
ENDBRANCH   7   8
ENDBRANCH   1   7
BRANCH   6  11
HETATM   11  C   UNL     1     -52.250 -49.542  22.304  1.00  0.00     0.212 C 
HETATM   12  O   UNL     1     -52.388 -49.777  23.531  1.00  0.00    -0.644 OA
HETATM   13  O   UNL     1     -52.393 -50.606  21.429  1.00  0.00    -0.644 OA
ENDBRANCH   6  11
TORSDOF 3
ENDMDL
MODEL 8
REMARK VINA RESULT:      -5.3     29.694     30.408
REMARK  3 active torsions:
REMARK  status: ('A' for Active; 'I' for Inactive)
REMARK    1  A    between atoms: C_2  and  O_11 
REMARK    2  A    between atoms: C_3  and  O_11 
REMARK    3  A    between atoms: C_8  and  C_9 
ROOT
HETATM    1  C   UNL     1     -13.505 -61.394  -1.722  1.00  0.00     0.096 A 
HETATM    2  C   UNL     1     -13.826 -61.332  -3.062  1.00  0.00     0.038 A 
HETATM    3  C   UNL     1     -14.228 -60.173  -3.695  1.00  0.00     0.003 A 
HETATM    4  C   UNL     1     -14.312 -59.022  -2.950  1.00  0.00     0.001 A 
HETATM    5  C   UNL     1     -14.002 -59.028  -1.607  1.00  0.00     0.021 A 
HETATM    6  C   UNL     1     -13.600 -60.219  -1.002  1.00  0.00     0.074 A 
ENDROOT
BRANCH   1   7
HETATM    7  O   UNL     1     -13.102 -62.519  -1.055  1.00  0.00    -0.278 OA
BRANCH   7   8
HETATM    8  C   UNL     1     -13.855 -63.638  -0.838  1.00  0.00     0.260 C 
HETATM    9  C   UNL     1     -13.640 -64.908  -1.577  1.00  0.00     0.126 C 
HETATM   10  O   UNL     1     -14.754 -63.508   0.047  1.00  0.00    -0.265 OA
ENDBRANCH   7   8
ENDBRANCH   1   7
BRANCH   6  11
HETATM   11  C   UNL     1     -13.281 -60.182   0.420  1.00  0.00     0.212 C 
HETATM   12  O   UNL     1     -14.178 -60.335   1.289  1.00  0.00    -0.644 OA
HETATM   13  O   UNL     1     -11.987 -59.975   0.868  1.00  0.00    -0.644 OA
ENDBRANCH   6  11
TORSDOF 3
ENDMDL
MODEL 9
REMARK VINA RESULT:      -5.2     16.833     18.202
REMARK  3 active torsions:
REMARK  status: ('A' for Active; 'I' for Inactive)
REMARK    1  A    between atoms: C_2  and  O_11 
REMARK    2  A    between atoms: C_3  and  O_11 
REMARK    3  A    between atoms: C_8  and  C_9 
ROOT
HETATM    1  C   UNL     1     -50.418 -50.570  22.680  1.00  0.00     0.096 A 
HETATM    2  C   UNL     1     -50.502 -51.403  23.775  1.00  0.00     0.038 A 
HETATM    3  C   UNL     1     -49.603 -51.376  24.823  1.00  0.00     0.003 A 
HETATM    4  C   UNL     1     -48.571 -50.471  24.769  1.00  0.00     0.001 A 
HETATM    5  C   UNL     1     -48.440 -49.615  23.697  1.00  0.00     0.021 A 
HETATM    6  C   UNL     1     -49.368 -49.673  22.657  1.00  0.00     0.074 A 
ENDROOT
BRANCH   1   7
HETATM    7  O   UNL     1     -51.284 -50.563  21.620  1.00  0.00    -0.278 OA
BRANCH   7   8
HETATM    8  C   UNL     1     -52.593 -50.172  21.654  1.00  0.00     0.260 C 
HETATM    9  C   UNL     1     -53.065 -49.010  22.449  1.00  0.00     0.126 C 
HETATM   10  O   UNL     1     -53.375 -50.881  20.951  1.00  0.00    -0.265 OA
ENDBRANCH   7   8
ENDBRANCH   1   7
BRANCH   6  11
HETATM   11  C   UNL     1     -49.193 -48.749  21.542  1.00  0.00     0.212 C 
HETATM   12  O   UNL     1     -48.556 -49.091  20.513  1.00  0.00    -0.644 OA
HETATM   13  O   UNL     1     -49.717 -47.468  21.574  1.00  0.00    -0.644 OA
ENDBRANCH   6  11
TORSDOF 3
ENDMDL
MODEL 10
REMARK VINA RESULT:      -5.2      6.282      7.579
REMARK  3 active torsions:
REMARK  status: ('A' for Active; 'I' for Inactive)
REMARK    1  A    between atoms: C_2  and  O_11 
REMARK    2  A    between atoms: C_3  and  O_11 
REMARK    3  A    between atoms: C_8  and  C_9 
ROOT
HETATM    1  C   UNL     1     -47.307 -60.121  10.670  1.00  0.00     0.096 A 
HETATM    2  C   UNL     1     -48.559 -60.091  11.247  1.00  0.00     0.038 A 
HETATM    3  C   UNL     1     -48.857 -59.364  12.383  1.00  0.00     0.003 A 
HETATM    4  C   UNL     1     -47.851 -58.634  12.968  1.00  0.00     0.001 A 
HETATM    5  C   UNL     1     -46.581 -58.628  12.432  1.00  0.00     0.021 A 
HETATM    6  C   UNL     1     -46.318 -59.376  11.283  1.00  0.00     0.074 A 
ENDROOT
BRANCH   1   7
HETATM    7  O   UNL     1     -46.967 -60.826   9.547  1.00  0.00    -0.278 OA
BRANCH   7   8
HETATM    8  C   UNL     1     -47.836 -61.435   8.686  1.00  0.00     0.260 C 
HETATM    9  C   UNL     1     -48.337 -62.817   8.892  1.00  0.00     0.126 C 
HETATM   10  O   UNL     1     -48.184 -60.724   7.695  1.00  0.00    -0.265 OA
ENDBRANCH   7   8
ENDBRANCH   1   7
BRANCH   6  11
HETATM   11  C   UNL     1     -44.962 -59.342  10.750  1.00  0.00     0.212 C 
HETATM   12  O   UNL     1     -44.601 -58.436   9.956  1.00  0.00    -0.644 OA
HETATM   13  O   UNL     1     -44.025 -60.302  11.092  1.00  0.00    -0.644 OA
ENDBRANCH   6  11
TORSDOF 3
ENDMDL
MODEL 11
REMARK VINA RESULT:      -5.1     23.767     25.394
REMARK  3 active torsions:
REMARK  status: ('A' for Active; 'I' for Inactive)
REMARK    1  A    between atoms: C_2  and  O_11 
REMARK    2  A    between atoms: C_3  and  O_11 
REMARK    3  A    between atoms: C_8  and  C_9 
ROOT
HETATM    1  C   UNL     1     -30.275 -55.286 -15.233  1.00  0.00     0.096 A 
HETATM    2  C   UNL     1     -29.031 -54.693 -15.268  1.00  0.00     0.038 A 
HETATM    3  C   UNL     1     -28.390 -54.203 -14.148  1.00  0.00     0.003 A 
HETATM    4  C   UNL     1     -29.027 -54.313 -12.936  1.00  0.00     0.001 A 
HETATM    5  C   UNL     1     -30.271 -54.898 -12.844  1.00  0.00     0.021 A 
HETATM    6  C   UNL     1     -30.888 -55.381 -13.999  1.00  0.00     0.074 A 
ENDROOT
BRANCH   1   7
HETATM    7  O   UNL     1     -30.947 -55.785 -16.317  1.00  0.00    -0.278 OA
BRANCH   7   8
HETATM    8  C   UNL     1     -30.603 -56.894 -17.036  1.00  0.00     0.260 C 
HETATM    9  C   UNL     1     -30.663 -56.943 -18.519  1.00  0.00     0.126 C 
HETATM   10  O   UNL     1     -30.227 -57.883 -16.335  1.00  0.00    -0.265 OA
ENDBRANCH   7   8
ENDBRANCH   1   7
BRANCH   6  11
HETATM   11  C   UNL     1     -32.204 -55.993 -13.858  1.00  0.00     0.212 C 
HETATM   12  O   UNL     1     -32.325 -57.230 -13.667  1.00  0.00    -0.644 OA
HETATM   13  O   UNL     1     -33.364 -55.240 -13.931  1.00  0.00    -0.644 OA
ENDBRANCH   6  11
TORSDOF 3
ENDMDL
MODEL 12
REMARK VINA RESULT:      -5.1     17.110     18.686
REMARK  3 active torsions:
REMARK  status: ('A' for Active; 'I' for Inactive)
REMARK    1  A    between atoms: C_2  and  O_11 
REMARK    2  A    between atoms: C_3  and  O_11 
REMARK    3  A    between atoms: C_8  and  C_9 
ROOT
HETATM    1  C   UNL     1     -50.148 -48.807  22.525  1.00  0.00     0.096 A 
HETATM    2  C   UNL     1     -49.736 -47.627  23.107  1.00  0.00     0.038 A 
HETATM    3  C   UNL     1     -48.774 -47.561  24.096  1.00  0.00     0.003 A 
HETATM    4  C   UNL     1     -48.200 -48.734  24.521  1.00  0.00     0.001 A 
HETATM    5  C   UNL     1     -48.575 -49.941  23.974  1.00  0.00     0.021 A 
HETATM    6  C   UNL     1     -49.551 -49.968  22.976  1.00  0.00     0.074 A 
ENDROOT
BRANCH   1   7
HETATM    7  O   UNL     1     -51.096 -48.919  21.545  1.00  0.00    -0.278 OA
BRANCH   7   8
HETATM    8  C   UNL     1     -52.427 -48.637  21.676  1.00  0.00     0.260 C 
HETATM    9  C   UNL     1     -53.030 -47.365  21.203  1.00  0.00     0.126 C 
HETATM   10  O   UNL     1     -53.108 -49.550  22.233  1.00  0.00    -0.265 OA
ENDBRANCH   7   8
ENDBRANCH   1   7
BRANCH   6  11
HETATM   11  C   UNL     1     -49.918 -51.266  22.424  1.00  0.00     0.212 C 
HETATM   12  O   UNL     1     -49.499 -51.631  21.296  1.00  0.00    -0.644 OA
HETATM   13  O   UNL     1     -50.740 -52.141  23.114  1.00  0.00    -0.644 OA
ENDBRANCH   6  11
TORSDOF 3
ENDMDL
MODEL 13
REMARK VINA RESULT:      -5.0     30.385     32.036
REMARK  3 active torsions:
REMARK  status: ('A' for Active; 'I' for Inactive)
REMARK    1  A    between atoms: C_2  and  O_11 
REMARK    2  A    between atoms: C_3  and  O_11 
REMARK    3  A    between atoms: C_8  and  C_9 
ROOT
HETATM    1  C   UNL     1     -12.882 -44.762  -1.365  1.00  0.00     0.096 A 
HETATM    2  C   UNL     1     -12.515 -44.274  -2.602  1.00  0.00     0.038 A 
HETATM    3  C   UNL     1     -12.242 -42.942  -2.845  1.00  0.00     0.003 A 
HETATM    4  C   UNL     1     -12.342 -42.058  -1.798  1.00  0.00     0.001 A 
HETATM    5  C   UNL     1     -12.704 -42.492  -0.541  1.00  0.00     0.021 A 
HETATM    6  C   UNL     1     -12.972 -43.846  -0.335  1.00  0.00     0.074 A 
ENDROOT
BRANCH   1   7
HETATM    7  O   UNL     1     -13.161 -46.071  -1.080  1.00  0.00    -0.278 OA
BRANCH   7   8
HETATM    8  C   UNL     1     -14.144 -46.827  -1.653  1.00  0.00     0.260 C 
HETATM    9  C   UNL     1     -13.952 -47.561  -2.930  1.00  0.00     0.126 C 
HETATM   10  O   UNL     1     -15.235 -46.854  -1.007  1.00  0.00    -0.265 OA
ENDBRANCH   7   8
ENDBRANCH   1   7
BRANCH   6  11
HETATM   11  C   UNL     1     -13.352 -44.263   1.010  1.00  0.00     0.212 C 
HETATM   12  O   UNL     1     -14.560 -44.415   1.324  1.00  0.00    -0.644 OA
HETATM   13  O   UNL     1     -12.402 -44.505   1.988  1.00  0.00    -0.644 OA
ENDBRANCH   6  11
TORSDOF 3
ENDMDL
MODEL 14
REMARK VINA RESULT:      -4.9     20.177     21.878
REMARK  3 active torsions:
REMARK  status: ('A' for Active; 'I' for Inactive)
REMARK    1  A    between atoms: C_2  and  O_11 
REMARK    2  A    between atoms: C_3  and  O_11 
REMARK    3  A    between atoms: C_8  and  C_9 
ROOT
HETATM    1  C   UNL     1     -35.225 -36.505  14.295  1.00  0.00     0.096 A 
HETATM    2  C   UNL     1     -34.715 -37.686  13.798  1.00  0.00     0.038 A 
HETATM    3  C   UNL     1     -33.496 -38.209  14.182  1.00  0.00     0.003 A 
HETATM    4  C   UNL     1     -32.753 -37.514  15.106  1.00  0.00     0.001 A 
HETATM    5  C   UNL     1     -33.216 -36.329  15.634  1.00  0.00     0.021 A 
HETATM    6  C   UNL     1     -34.454 -35.832  15.222  1.00  0.00     0.074 A 
ENDROOT
BRANCH   1   7
HETATM    7  O   UNL     1     -36.426 -35.950  13.944  1.00  0.00    -0.278 OA
BRANCH   7   8
HETATM    8  C   UNL     1     -37.662 -36.456  14.236  1.00  0.00     0.260 C 
HETATM    9  C   UNL     1     -38.246 -36.413  15.600  1.00  0.00     0.126 C 
HETATM   10  O   UNL     1     -38.272 -36.964  13.247  1.00  0.00    -0.265 OA
ENDBRANCH   7   8
ENDBRANCH   1   7
BRANCH   6  11
HETATM   11  C   UNL     1     -34.906 -34.575  15.805  1.00  0.00     0.212 C 
HETATM   12  O   UNL     1     -35.481 -34.551  16.924  1.00  0.00    -0.644 OA
HETATM   13  O   UNL     1     -34.724 -33.366  15.155  1.00  0.00    -0.644 OA
ENDBRANCH   6  11
TORSDOF 3
ENDMDL
MODEL 15
REMARK VINA RESULT:      -4.9     23.254     24.969
REMARK  3 active torsions:
REMARK  status: ('A' for Active; 'I' for Inactive)
REMARK    1  A    between atoms: C_2  and  O_11 
REMARK    2  A    between atoms: C_3  and  O_11 
REMARK    3  A    between atoms: C_8  and  C_9 
ROOT
HETATM    1  C   UNL     1     -22.580 -44.419  19.208  1.00  0.00     0.096 A 
HETATM    2  C   UNL     1     -22.665 -43.331  20.051  1.00  0.00     0.038 A 
HETATM    3  C   UNL     1     -23.820 -42.596  20.231  1.00  0.00     0.003 A 
HETATM    4  C   UNL     1     -24.942 -42.969  19.531  1.00  0.00     0.001 A 
HETATM    5  C   UNL     1     -24.912 -44.048  18.675  1.00  0.00     0.021 A 
HETATM    6  C   UNL     1     -23.726 -44.767  18.520  1.00  0.00     0.074 A 
ENDROOT
BRANCH   1   7
HETATM    7  O   UNL     1     -21.459 -45.175  18.999  1.00  0.00    -0.278 OA
BRANCH   7   8
HETATM    8  C   UNL     1     -20.342 -44.786  18.315  1.00  0.00     0.260 C 
HETATM    9  C   UNL     1     -20.237 -44.861  16.836  1.00  0.00     0.126 C 
HETATM   10  O   UNL     1     -19.399 -44.353  19.045  1.00  0.00    -0.265 OA
ENDBRANCH   7   8
ENDBRANCH   1   7
BRANCH   6  11
HETATM   11  C   UNL     1     -23.738 -45.902  17.605  1.00  0.00     0.212 C 
HETATM   12  O   UNL     1     -23.861 -47.078  18.034  1.00  0.00    -0.644 OA
HETATM   13  O   UNL     1     -23.613 -45.731  16.236  1.00  0.00    -0.644 OA
ENDBRANCH   6  11
TORSDOF 3
ENDMDL
MODEL 16
REMARK VINA RESULT:      -4.8     23.836     25.567
REMARK  3 active torsions:
REMARK  status: ('A' for Active; 'I' for Inactive)
REMARK    1  A    between atoms: C_2  and  O_11 
REMARK    2  A    between atoms: C_3  and  O_11 
REMARK    3  A    between atoms: C_8  and  C_9 
ROOT
HETATM    1  C   UNL     1     -20.842 -45.041  17.530  1.00  0.00     0.096 A 
HETATM    2  C   UNL     1     -20.015 -45.026  18.633  1.00  0.00     0.038 A 
HETATM    3  C   UNL     1     -20.423 -44.610  19.885  1.00  0.00     0.003 A 
HETATM    4  C   UNL     1     -21.722 -44.189  20.037  1.00  0.00     0.001 A 
HETATM    5  C   UNL     1     -22.591 -44.184  18.968  1.00  0.00     0.021 A 
HETATM    6  C   UNL     1     -22.141 -44.611  17.717  1.00  0.00     0.074 A 
ENDROOT
BRANCH   1   7
HETATM    7  O   UNL     1     -20.480 -45.443  16.273  1.00  0.00    -0.278 OA
BRANCH   7   8
HETATM    8  C   UNL     1     -19.444 -44.944  15.535  1.00  0.00     0.260 C 
HETATM    9  C   UNL     1     -19.175 -43.489  15.408  1.00  0.00     0.126 C 
HETATM   10  O   UNL     1     -18.728 -45.822  14.966  1.00  0.00    -0.265 OA
ENDBRANCH   7   8
ENDBRANCH   1   7
BRANCH   6  11
HETATM   11  C   UNL     1     -23.093 -44.590  16.613  1.00  0.00     0.212 C 
HETATM   12  O   UNL     1     -23.769 -45.609  16.322  1.00  0.00    -0.644 OA
HETATM   13  O   UNL     1     -23.285 -43.455  15.844  1.00  0.00    -0.644 OA
ENDBRANCH   6  11
TORSDOF 3
ENDMDL
MODEL 17
REMARK VINA RESULT:      -4.8     20.135     21.472
REMARK  3 active torsions:
REMARK  status: ('A' for Active; 'I' for Inactive)
REMARK    1  A    between atoms: C_2  and  O_11 
REMARK    2  A    between atoms: C_3  and  O_11 
REMARK    3  A    between atoms: C_8  and  C_9 
ROOT
HETATM    1  C   UNL     1     -38.798 -52.733 -13.879  1.00  0.00     0.096 A 
HETATM    2  C   UNL     1     -39.349 -52.584 -15.133  1.00  0.00     0.038 A 
HETATM    3  C   UNL     1     -40.502 -51.865 -15.378  1.00  0.00     0.003 A 
HETATM    4  C   UNL     1     -41.132 -51.268 -14.313  1.00  0.00     0.001 A 
HETATM    5  C   UNL     1     -40.624 -51.385 -13.037  1.00  0.00     0.021 A 
HETATM    6  C   UNL     1     -39.456 -52.121 -12.830  1.00  0.00     0.074 A 
ENDROOT
BRANCH   1   7
HETATM    7  O   UNL     1     -37.659 -53.436 -13.591  1.00  0.00    -0.278 OA
BRANCH   7   8
HETATM    8  C   UNL     1     -36.378 -52.979 -13.721  1.00  0.00     0.260 C 
HETATM    9  C   UNL     1     -35.358 -53.128 -12.653  1.00  0.00     0.126 C 
HETATM   10  O   UNL     1     -36.127 -52.417 -14.831  1.00  0.00    -0.265 OA
ENDBRANCH   7   8
ENDBRANCH   1   7
BRANCH   6  11
HETATM   11  C   UNL     1     -38.952 -52.219 -11.466  1.00  0.00     0.212 C 
HETATM   12  O   UNL     1     -39.416 -53.070 -10.664  1.00  0.00    -0.644 OA
HETATM   13  O   UNL     1     -37.950 -51.384 -11.001  1.00  0.00    -0.644 OA
ENDBRANCH   6  11
TORSDOF 3
ENDMDL
MODEL 18
REMARK VINA RESULT:      -4.7     31.631     33.182
REMARK  3 active torsions:
REMARK  status: ('A' for Active; 'I' for Inactive)
REMARK    1  A    between atoms: C_2  and  O_11 
REMARK    2  A    between atoms: C_3  and  O_11 
REMARK    3  A    between atoms: C_8  and  C_9 
ROOT
HETATM    1  C   UNL     1     -13.223 -65.674  -3.674  1.00  0.00     0.096 A 
HETATM    2  C   UNL     1     -13.959 -64.523  -3.866  1.00  0.00     0.038 A 
HETATM    3  C   UNL     1     -14.435 -63.743  -2.831  1.00  0.00     0.003 A 
HETATM    4  C   UNL     1     -14.161 -64.136  -1.543  1.00  0.00     0.001 A 
HETATM    5  C   UNL     1     -13.430 -65.277  -1.295  1.00  0.00     0.021 A 
HETATM    6  C   UNL     1     -12.966 -66.040  -2.367  1.00  0.00     0.074 A 
ENDROOT
BRANCH   1   7
HETATM    7  O   UNL     1     -12.732 -66.476  -4.668  1.00  0.00    -0.278 OA
BRANCH   7   8
HETATM    8  C   UNL     1     -11.873 -66.094  -5.660  1.00  0.00     0.260 C 
HETATM    9  C   UNL     1     -12.327 -65.763  -7.034  1.00  0.00     0.126 C 
HETATM   10  O   UNL     1     -10.654 -66.043  -5.313  1.00  0.00    -0.265 OA
ENDBRANCH   7   8
ENDBRANCH   1   7
BRANCH   6  11
HETATM   11  C   UNL     1     -12.196 -67.240  -2.061  1.00  0.00     0.212 C 
HETATM   12  O   UNL     1     -10.939 -67.215  -2.043  1.00  0.00    -0.644 OA
HETATM   13  O   UNL     1     -12.815 -68.447  -1.781  1.00  0.00    -0.644 OA
ENDBRANCH   6  11
TORSDOF 3
ENDMDL
MODEL 19
REMARK VINA RESULT:      -4.7      5.227      6.794
REMARK  3 active torsions:
REMARK  status: ('A' for Active; 'I' for Inactive)
REMARK    1  A    between atoms: C_2  and  O_11 
REMARK    2  A    between atoms: C_3  and  O_11 
REMARK    3  A    between atoms: C_8  and  C_9 
ROOT
HETATM    1  C   UNL     1     -40.270 -59.938   5.488  1.00  0.00     0.096 A 
HETATM    2  C   UNL     1     -40.468 -58.753   6.165  1.00  0.00     0.038 A 
HETATM    3  C   UNL     1     -39.681 -57.633   5.985  1.00  0.00     0.003 A 
HETATM    4  C   UNL     1     -38.646 -57.705   5.085  1.00  0.00     0.001 A 
HETATM    5  C   UNL     1     -38.404 -58.865   4.381  1.00  0.00     0.021 A 
HETATM    6  C   UNL     1     -39.221 -59.977   4.591  1.00  0.00     0.074 A 
ENDROOT
BRANCH   1   7
HETATM    7  O   UNL     1     -41.024 -61.071   5.635  1.00  0.00    -0.278 OA
BRANCH   7   8
HETATM    8  C   UNL     1     -41.070 -61.868   6.744  1.00  0.00     0.260 C 
HETATM    9  C   UNL     1     -42.198 -61.839   7.709  1.00  0.00     0.126 C 
HETATM   10  O   UNL     1     -40.072 -62.638   6.883  1.00  0.00    -0.265 OA
ENDBRANCH   7   8
ENDBRANCH   1   7
BRANCH   6  11
HETATM   11  C   UNL     1     -38.930 -61.184   3.826  1.00  0.00     0.212 C 
HETATM   12  O   UNL     1     -38.101 -62.031   4.245  1.00  0.00    -0.644 OA
HETATM   13  O   UNL     1     -39.551 -61.442   2.616  1.00  0.00    -0.644 OA
ENDBRANCH   6  11
TORSDOF 3
ENDMDL
MODEL 20
REMARK VINA RESULT:      -4.6     20.872     22.234
REMARK  3 active torsions:
REMARK  status: ('A' for Active; 'I' for Inactive)
REMARK    1  A    between atoms: C_2  and  O_11 
REMARK    2  A    between atoms: C_3  and  O_11 
REMARK    3  A    between atoms: C_8  and  C_9 
ROOT
HETATM    1  C   UNL     1     -40.299 -51.827 -13.738  1.00  0.00     0.096 A 
HETATM    2  C   UNL     1     -40.955 -50.634 -13.523  1.00  0.00     0.038 A 
HETATM    3  C   UNL     1     -41.546 -49.898 -14.531  1.00  0.00     0.003 A 
HETATM    4  C   UNL     1     -41.474 -50.381 -15.815  1.00  0.00     0.001 A 
HETATM    5  C   UNL     1     -40.831 -51.569 -16.086  1.00  0.00     0.021 A 
HETATM    6  C   UNL     1     -40.245 -52.284 -15.041  1.00  0.00     0.074 A 
ENDROOT
BRANCH   1   7
HETATM    7  O   UNL     1     -39.700 -52.588 -12.771  1.00  0.00    -0.278 OA
BRANCH   7   8
HETATM    8  C   UNL     1     -38.597 -52.241 -12.043  1.00  0.00     0.260 C 
HETATM    9  C   UNL     1     -37.218 -52.301 -12.592  1.00  0.00     0.126 C 
HETATM   10  O   UNL     1     -38.844 -51.863 -10.858  1.00  0.00    -0.265 OA
ENDBRANCH   7   8
ENDBRANCH   1   7
BRANCH   6  11
HETATM   11  C   UNL     1     -39.574 -53.536 -15.370  1.00  0.00     0.212 C 
HETATM   12  O   UNL     1     -38.379 -53.546 -15.764  1.00  0.00    -0.644 OA
HETATM   13  O   UNL     1     -40.222 -54.755 -15.265  1.00  0.00    -0.644 OA
ENDBRANCH   6  11
TORSDOF 3
ENDMDL
