@<TRIPOS>MOLECULE
ibuprofen
 32 32 0 0 0
SMALL
GASTEIGER

@<TRIPOS>ATOM
      1  C          2.9990   -1.3030   -0.1970 C.3     1  UNL1       -0.0624
      2  C          3.0340   -0.1020    0.7010 C.3     1  UNL1       -0.0427
      3  C          4.4420    0.3390    0.9450 C.3     1  UNL1       -0.0624
      4  C          2.2340    1.0060    0.0750 C.3     1  UNL1       -0.0253
      5  C          0.8210    0.6010   -0.1240 C.ar    1  UNL1       -0.0471
      6  C         -0.0810    0.8430    0.8860 C.ar    1  UNL1       -0.0583
      7  C         -1.3920    0.4870    0.7470 C.ar    1  UNL1       -0.0577
      8  C         -1.8330   -0.1190   -0.4040 C.ar    1  UNL1       -0.0391
      9  C         -0.9420   -0.3650   -1.4190 C.ar    1  UNL1       -0.0577
     10  C          0.3810   -0.0050   -1.2760 C.ar    1  UNL1       -0.0583
     11  C         -3.2410   -0.5130   -0.5800 C.3     1  UNL1        0.0208
     12  C         -3.6500   -1.4330    0.5700 C.3     1  UNL1       -0.0532
     13  C         -4.0560    0.7370   -0.5530 C.2     1  UNL1        0.0489
     14  O         -4.9380    0.9030    0.3020 O.co2   1  UNL1       -0.5492
     15  O         -3.8120    1.6990   -1.4910 O.co2   1  UNL1       -0.5492
     16  H          3.5680   -2.0950    0.2450 H       1  UNL1        0.0232
     17  H          3.4190   -1.0500   -1.1480 H       1  UNL1        0.0232
     18  H          1.9860   -1.6210   -0.3270 H       1  UNL1        0.0232
     19  H          2.6060   -0.3580    1.6470 H       1  UNL1        0.0299
     20  H          4.8990    0.6030    0.0140 H       1  UNL1        0.0232
     21  H          4.9920   -0.4590    1.3980 H       1  UNL1        0.0232
     22  H          4.4430    1.1880    1.5960 H       1  UNL1        0.0232
     23  H          2.6630    1.2540   -0.8730 H       1  UNL1        0.0316
     24  H          2.2550    1.8510    0.7310 H       1  UNL1        0.0316
     25  H          0.2360    1.2970    1.7570 H       1  UNL1        0.0620
     26  H         -2.0570    0.6750    1.5140 H       1  UNL1        0.0621
     27  H         -1.2620   -0.8190   -2.2890 H       1  UNL1        0.0621
     28  H          1.0480   -0.1920   -2.0410 H       1  UNL1        0.0620
     29  H         -3.3890   -1.0340   -1.5030 H       1  UNL1        0.0406
     30  H         -3.5070   -0.9250    1.5010 H       1  UNL1        0.0239
     31  H         -3.0470   -2.3170    0.5500 H       1  UNL1        0.0239
     32  H         -4.6800   -1.7010    0.4630 H       1  UNL1        0.0239
@<TRIPOS>UNITY_ATOM_ATTR
15 1
charge -1
@<TRIPOS>BOND
     1     1     2    1
     2     1    16    1
     3     1    17    1
     4     1    18    1
     5     2     3    1
     6     2     4    1
     7     2    19    1
     8     3    20    1
     9     3    21    1
    10     3    22    1
    11     4     5    1
    12     4    23    1
    13     4    24    1
    14     5     6   ar
    15     5    10   ar
    16     6     7   ar
    17     6    25    1
    18     7     8   ar
    19     7    26    1
    20     8     9   ar
    21     8    11    1
    22     9    10   ar
    23     9    27    1
    24    10    28    1
    25    11    12    1
    26    11    13    1
    27    11    29    1
    28    12    30    1
    29    12    31    1
    30    12    32    1
    31    13    14   ar
    32    13    15   ar
