@<TRIPOS>MOLECULE
Olaparib_entry_00001_conf_03_protein
36 21 15
SMALL
NO_CHARGES


@<TRIPOS>ATOM
      1 HG         25.3251    2.8451   12.3355 H       328 SER328      0.2095
      2 OG         25.1580    2.2890   11.5220 O.3     328 SER328     -0.3927
      3 HG1        23.4198   14.9990   23.0978 H       393 THR393      0.2099
      4 OG1        22.9410   15.5890   23.7600 O.3     393 THR393     -0.3897
      5 HG         18.7911   22.4946   20.6074 H       395 SER395      0.2095
      6 OG         19.0240   21.7000   21.1650 O.3     395 SER395     -0.3927
      7 HH         15.3027   12.4621   18.9478 H       397 TYR397      0.2921
      8 OH         14.8710   12.9690   19.6890 O.3     397 TYR397     -0.5068
      9 HG         14.1661   -0.0915   14.4637 H       430 SER430      0.2095
     10 OG         13.4130    0.4260   14.0760 O.3     430 SER430     -0.3927
     11 HH         26.0868   -3.2427   20.8424 H       462 TYR462      0.2921
     12 OH         25.6260   -2.9400   20.0150 O.3     462 TYR462     -0.5068
     13 HZ1        24.1517    6.7272   24.3790 H       469 LYS469     -0.0901
     14 NZ         23.5700    5.9180   24.3040 N.4     469 LYS469      0.3781
     15 HZ2        23.2192    5.6708   25.2063 H       469 LYS469     -0.0901
     16 HZ3        24.0993    5.1577   23.9296 H       469 LYS469     -0.0901
     17 HG         16.0601    3.8415   22.4284 H       470 SER470      0.2095
     18 OG         15.8020    4.6360   22.9740 O.3     470 SER470     -0.3927
     19 HH         22.5688    6.4589   17.9908 H       473 TYR473      0.2921
     20 OH         22.3100    5.5040   17.8300 O.3     473 TYR473     -0.5068
     21 HZ1        23.0966    2.8558   34.8184 H       516 LYS516     -0.0901
     22 NZ         24.0380    2.5320   34.7210 N.4     516 LYS516      0.3781
     23 HZ2        24.1351    1.6476   35.1763 H       516 LYS516     -0.0901
     24 HZ3        24.6631    3.1924   35.1381 H       516 LYS516     -0.0901
     25 HZ1        31.5922   14.4165   26.3725 H       520 LYS520     -0.0901
     26 NZ         30.6520   14.1570   26.5930 N.4     520 LYS520      0.3781
     27 HZ2        30.4470   13.2663   26.1877 H       520 LYS520     -0.0901
     28 HZ3        30.0214   14.8424   26.2296 H       520 LYS520     -0.0901
     29 HG1        28.0301   10.6477   34.0034 H       544 THR544      0.2099
     30 OG1        28.0730    9.6670   34.2240 O.3     544 THR544     -0.3897
     31 HG1        34.4071   10.3428   28.8019 H       553 THR553      0.2099
     32 OG1        34.2910    9.6820   28.0520 O.3     553 THR553     -0.3897
     33 HH         23.2937   15.3859   26.0897 H       556 TYR556      0.2921
     34 OH         22.3900   15.0220   26.3220 O.3     556 TYR556     -0.5068
     35 HH         21.6569    2.8423   33.2321 H       559 TYR559      0.2921
     36 OH         20.7160    2.6790   32.9500 O.3     559 TYR559     -0.5068
@<TRIPOS>BOND
     1    1    2 1
     2    9   10 1
     3   19   20 1
     4    7    8 1
     5   11   12 1
     6    5    6 1
     7   18   17 1
     8    4    3 1
     9   13   14 1
    10   14   15 1
    11   14   16 1
    12   25   26 1
    13   28   26 1
    14   34   33 1
    15   27   26 1
    16   31   32 1
    17   35   36 1
    18   29   30 1
    19   22   23 1
    20   22   24 1
    21   22   21 1
@<TRIPOS>SUBSTRUCTURE
328 SER328 1
393 THR393 3
395 SER395 5
397 TYR397 7
430 SER430 9
462 TYR462 11
469 LYS469 13
470 SER470 17
473 TYR473 19
516 LYS516 21
520 LYS520 25
544 THR544 29
553 THR553 31
556 TYR556 33
559 TYR559 35
@<TRIPOS>COMMENT
