@<TRIPOS>MOLECULE
Olaparib_entry_00001_conf_07_protein
36 21 15
SMALL
NO_CHARGES


@<TRIPOS>ATOM
      1 HG         25.3090    2.2582   12.5095 H       328 SER328      0.2095
      2 OG         25.1580    2.2890   11.5220 O.3     328 SER328     -0.3927
      3 HG1        22.4766   15.1230   22.9965 H       393 THR393      0.2099
      4 OG1        22.9410   15.5890   23.7600 O.3     393 THR393     -0.3897
      5 HG         18.7223   21.8600   20.2270 H       395 SER395      0.2095
      6 OG         19.0240   21.7000   21.1650 O.3     395 SER395     -0.3927
      7 HH         15.7845   12.8695   19.3038 H       397 TYR397      0.2921
      8 OH         14.8710   12.9690   19.6890 O.3     397 TYR397     -0.5068
      9 HG         12.7866    0.3459   13.3102 H       430 SER430      0.2095
     10 OG         13.4130    0.4260   14.0760 O.3     430 SER430     -0.3927
     11 HH         25.7814   -2.7477   19.0520 H       462 TYR462      0.2921
     12 OH         25.6260   -2.9400   20.0150 O.3     462 TYR462     -0.5068
     13 HZ1        24.4144    6.2621   23.8949 H       469 LYS469     -0.0901
     14 NZ         23.5700    5.9180   24.3040 N.4     469 LYS469      0.3781
     15 HZ2        23.4170    6.3635   25.1852 H       469 LYS469     -0.0901
     16 HZ3        23.6388    4.9298   24.4348 H       469 LYS469     -0.0901
     17 HG         16.0244    3.8231   22.4399 H       470 SER470      0.2095
     18 OG         15.8020    4.6360   22.9740 O.3     470 SER470     -0.3927
     19 HH         22.4743    6.3296   18.3742 H       473 TYR473      0.2921
     20 OH         22.3100    5.5040   17.8300 O.3     473 TYR473     -0.5068
     21 HZ1        23.3054    3.2042   34.8301 H       516 LYS516     -0.0901
     22 NZ         24.0380    2.5320   34.7210 N.4     516 LYS516      0.3781
     23 HZ2        23.7392    1.6510   35.0864 H       516 LYS516     -0.0901
     24 HZ3        24.8506    2.8404   35.2164 H       516 LYS516     -0.0901
     25 HZ1        30.5453   15.1070   26.2996 H       520 LYS520     -0.0901
     26 NZ         30.6520   14.1570   26.5930 N.4     520 LYS520      0.3781
     27 HZ2        31.5609   13.8280   26.3373 H       520 LYS520     -0.0901
     28 HZ3        29.9556   13.5903   26.1531 H       520 LYS520     -0.0901
     29 HG1        28.0549    8.8842   33.5923 H       544 THR544      0.2099
     30 OG1        28.0730    9.6670   34.2240 O.3     544 THR544     -0.3897
     31 HG1        34.7265    8.7824   27.9357 H       553 THR553      0.2099
     32 OG1        34.2910    9.6820   28.0520 O.3     553 THR553     -0.3897
     33 HH         22.2556   15.2329   25.3522 H       556 TYR556      0.2921
     34 OH         22.3900   15.0220   26.3220 O.3     556 TYR556     -0.5068
     35 HH         19.9449    3.2971   32.8284 H       559 TYR559      0.2921
     36 OH         20.7160    2.6790   32.9500 O.3     559 TYR559     -0.5068
@<TRIPOS>BOND
     1    1    2 1
     2    9   10 1
     3   19   20 1
     4    7    8 1
     5   11   12 1
     6    5    6 1
     7   18   17 1
     8    4    3 1
     9   13   14 1
    10   14   15 1
    11   14   16 1
    12   25   26 1
    13   28   26 1
    14   34   33 1
    15   27   26 1
    16   31   32 1
    17   35   36 1
    18   29   30 1
    19   22   23 1
    20   22   24 1
    21   22   21 1
@<TRIPOS>SUBSTRUCTURE
328 SER328 1
393 THR393 3
395 SER395 5
397 TYR397 7
430 SER430 9
462 TYR462 11
469 LYS469 13
470 SER470 17
473 TYR473 19
516 LYS516 21
520 LYS520 25
544 THR544 29
553 THR553 31
556 TYR556 33
559 TYR559 35
@<TRIPOS>COMMENT
