@<TRIPOS>MOLECULE
Olaparib_entry_00001_conf_01_protein
36 21 15
SMALL
NO_CHARGES


@<TRIPOS>ATOM
      1 HG         24.9891    3.2726   11.5760 H       328 SER328      0.2095
      2 OG         25.1580    2.2890   11.5220 O.3     328 SER328     -0.3927
      3 HG1        23.8185   15.1125   23.8970 H       393 THR393      0.2099
      4 OG1        22.9410   15.5890   23.7600 O.3     393 THR393     -0.3897
      5 HG         18.9443   21.2631   20.2710 H       395 SER395      0.2095
      6 OG         19.0240   21.7000   21.1650 O.3     395 SER395     -0.3927
      7 HH         14.9236   13.0545   20.6803 H       397 TYR397      0.2921
      8 OH         14.8710   12.9690   19.6890 O.3     397 TYR397     -0.5068
      9 HG         13.7918    1.0984   13.4518 H       430 SER430      0.2095
     10 OG         13.4130    0.4260   14.0760 O.3     430 SER430     -0.3927
     11 HH         25.6758   -3.0264   19.0258 H       462 TYR462      0.2921
     12 OH         25.6260   -2.9400   20.0150 O.3     462 TYR462     -0.5068
     13 HZ1        23.2284    5.7933   25.2349 H       469 LYS469     -0.0901
     14 NZ         23.5700    5.9180   24.3040 N.4     469 LYS469      0.3781
     15 HZ2        24.0248    5.0827   23.9977 H       469 LYS469     -0.0901
     16 HZ3        24.2166    6.6795   24.2830 H       469 LYS469     -0.0901
     17 HG         16.5333    4.2255   22.4335 H       470 SER470      0.2095
     18 OG         15.8020    4.6360   22.9740 O.3     470 SER470     -0.3927
     19 HH         22.8766    5.1188   17.0984 H       473 TYR473      0.2921
     20 OH         22.3100    5.5040   17.8300 O.3     473 TYR473     -0.5068
     21 HZ1        23.6917    1.6627   35.0746 H       516 LYS516     -0.0901
     22 NZ         24.0380    2.5320   34.7210 N.4     516 LYS516      0.3781
     23 HZ2        24.8617    2.7921   35.2239 H       516 LYS516     -0.0901
     24 HZ3        23.3404    3.2401   34.8342 H       516 LYS516     -0.0901
     25 HZ1        31.6072   13.9876   26.3503 H       520 LYS520     -0.0901
     26 NZ         30.6520   14.1570   26.5930 N.4     520 LYS520      0.3781
     27 HZ2        30.0696   13.4699   26.1589 H       520 LYS520     -0.0901
     28 HZ3        30.3836   15.0680   26.2806 H       520 LYS520     -0.0901
     29 HG1        27.5934   10.3270   33.6353 H       544 THR544      0.2099
     30 OG1        28.0730    9.6670   34.2240 O.3     544 THR544     -0.3897
     31 HG1        34.4187   10.3873   28.7582 H       553 THR553      0.2099
     32 OG1        34.2910    9.6820   28.0520 O.3     553 THR553     -0.3897
     33 HH         21.7231   15.4064   26.9628 H       556 TYR556      0.2921
     34 OH         22.3900   15.0220   26.3220 O.3     556 TYR556     -0.5068
     35 HH         20.6448    3.5944   32.5646 H       559 TYR559      0.2921
     36 OH         20.7160    2.6790   32.9500 O.3     559 TYR559     -0.5068
@<TRIPOS>BOND
     1    1    2 1
     2    9   10 1
     3   19   20 1
     4    7    8 1
     5   11   12 1
     6    5    6 1
     7   18   17 1
     8    4    3 1
     9   13   14 1
    10   14   15 1
    11   14   16 1
    12   25   26 1
    13   28   26 1
    14   34   33 1
    15   27   26 1
    16   31   32 1
    17   35   36 1
    18   29   30 1
    19   22   23 1
    20   22   24 1
    21   22   21 1
@<TRIPOS>SUBSTRUCTURE
328 SER328 1
393 THR393 3
395 SER395 5
397 TYR397 7
430 SER430 9
462 TYR462 11
469 LYS469 13
470 SER470 17
473 TYR473 19
516 LYS516 21
520 LYS520 25
544 THR544 29
553 THR553 31
556 TYR556 33
559 TYR559 35
@<TRIPOS>COMMENT
