MODEL 1
REMARK VINA RESULT:      -7.6      0.000      0.000
REMARK  4 active torsions:
REMARK  status: ('A' for Active; 'I' for Inactive)
REMARK       I    between atoms: N_1  and  C_17 
REMARK       I    between atoms: N_2  and  C_22 
REMARK    1  A    between atoms: C_12  and  C_13 
REMARK    2  A    between atoms: C_13  and  C_14 
REMARK    3  A    between atoms: C_16  and  C_17 
REMARK    4  A    between atoms: C_22  and  C_23 
ROOT
HETATM    1  C   UNL     1      10.972   7.187  27.445  1.00  0.00    -0.051 A 
HETATM    2  C   UNL     1      12.151   7.914  27.200  1.00  0.00     0.027 A 
HETATM    3  C   UNL     1      12.343   9.131  27.809  1.00  0.00     0.071 A 
HETATM    4  C   UNL     1      11.430   9.697  28.666  1.00  0.00     0.132 A 
HETATM    5  C   UNL     1      10.276   8.985  28.905  1.00  0.00     0.044 A 
HETATM    6  C   UNL     1      10.078   7.743  28.286  1.00  0.00     0.010 A 
HETATM    7  F   UNL     1      11.667  10.909  29.247  1.00  0.00    -0.205 F 
ENDROOT
BRANCH   1   8
HETATM    8  C   UNL     1      10.869   5.877  26.744  1.00  0.00     0.100 C 
BRANCH   8   9
HETATM    9  C   UNL     1      11.740   4.891  27.371  1.00  0.00     0.070 A 
HETATM   10  N   UNL     1      12.949   4.685  26.764  1.00  0.00    -0.175 NA
HETATM   11  N   UNL     1      13.791   3.783  27.204  1.00  0.00    -0.243 N 
HETATM   12  H   UNL     1      14.648   3.673  26.731  1.00  0.00     0.192 HD
HETATM   13  C   UNL     1      13.544   3.001  28.264  1.00  0.00     0.272 A 
HETATM   14  C   UNL     1      12.346   3.148  28.932  1.00  0.00     0.046 A 
HETATM   15  O   UNL     1      14.339   2.129  28.700  1.00  0.00    -0.266 OA
HETATM   16  C   UNL     1      12.046   2.375  30.054  1.00  0.00     0.018 A 
HETATM   17  C   UNL     1      11.466   4.104  28.458  1.00  0.00     0.006 A 
HETATM   18  C   UNL     1      10.852   2.554  30.718  1.00  0.00     0.001 A 
HETATM   19  C   UNL     1       9.999   3.516  30.222  1.00  0.00     0.001 A 
HETATM   20  C   UNL     1      10.283   4.292  29.110  1.00  0.00     0.014 A 
ENDBRANCH   8   9
ENDBRANCH   1   8
BRANCH   3  21
HETATM   21  C   UNL     1      13.575   9.917  27.574  1.00  0.00     0.257 C 
HETATM   22  N   UNL     1      13.755  10.517  26.300  1.00  0.00    -0.345 N 
HETATM   23  C   UNL     1      14.927  11.287  26.037  1.00  0.00     0.146 C 
HETATM   24  C   UNL     1      12.733  10.330  25.286  1.00  0.00     0.146 C 
HETATM   25  C   UNL     1      15.292  11.313  24.568  1.00  0.00     0.145 C 
HETATM   26  N   UNL     1      14.761  10.133  23.936  1.00  0.00    -0.349 N 
HETATM   27  C   UNL     1      13.303   9.977  23.936  1.00  0.00     0.145 C 
HETATM   28  C   UNL     1      15.579   9.167  23.343  1.00  0.00     0.224 C 
HETATM   29  O   UNL     1      15.007   8.158  22.796  1.00  0.00    -0.273 OA
HETATM   30  O   UNL     1      14.450  10.067  28.457  1.00  0.00    -0.267 OA
BRANCH  28  31
HETATM   31  C   UNL     1      17.043   9.173  23.274  1.00  0.00     0.078 A 
HETATM   32  C   UNL     1      17.653   9.934  22.119  1.00  0.00     0.015 A 
HETATM   33  C   UNL     1      17.761   8.475  22.176  1.00  0.00     0.015 A 
ENDBRANCH  28  31
ENDBRANCH   3  21
TORSDOF 4
ENDMDL
