MODEL 1
REMARK VINA RESULT:     -12.4      0.000      0.000
REMARK  4 active torsions:
REMARK  status: ('A' for Active; 'I' for Inactive)
REMARK       I    between atoms: N_1  and  C_17 
REMARK       I    between atoms: N_2  and  C_22 
REMARK    1  A    between atoms: C_12  and  C_13 
REMARK    2  A    between atoms: C_13  and  C_14 
REMARK    3  A    between atoms: C_16  and  C_17 
REMARK    4  A    between atoms: C_22  and  C_23 
ROOT
HETATM    1  C   UNL     1      26.504  -8.154   9.629  1.00  0.00    -0.051 A 
HETATM    2  C   UNL     1      25.525  -9.116   9.324  1.00  0.00     0.027 A 
HETATM    3  C   UNL     1      25.685 -10.413   9.750  1.00  0.00     0.071 A 
HETATM    4  C   UNL     1      26.772 -10.839  10.477  1.00  0.00     0.132 A 
HETATM    5  C   UNL     1      27.729  -9.896  10.775  1.00  0.00     0.044 A 
HETATM    6  C   UNL     1      27.568  -8.572  10.342  1.00  0.00     0.010 A 
HETATM    7  F   UNL     1      26.885 -12.139  10.878  1.00  0.00    -0.205 F 
ENDROOT
BRANCH   1   8
HETATM    8  C   UNL     1      26.228  -6.778   9.130  1.00  0.00     0.100 C 
BRANCH   8   9
HETATM    9  C   UNL     1      26.674  -5.783  10.097  1.00  0.00     0.070 A 
HETATM   10  N   UNL     1      25.990  -5.750  11.282  1.00  0.00    -0.175 NA
HETATM   11  N   UNL     1      26.264  -4.860  12.205  1.00  0.00    -0.243 N 
HETATM   12  H   UNL     1      25.742  -4.877  13.041  1.00  0.00     0.192 HD
HETATM   13  C   UNL     1      27.217  -3.928  12.069  1.00  0.00     0.272 A 
HETATM   14  C   UNL     1      27.952  -3.897  10.901  1.00  0.00     0.046 A 
HETATM   15  O   UNL     1      27.493  -3.066  12.942  1.00  0.00    -0.266 OA
HETATM   16  C   UNL     1      28.970  -2.960  10.715  1.00  0.00     0.018 A 
HETATM   17  C   UNL     1      27.654  -4.841   9.936  1.00  0.00     0.006 A 
HETATM   18  C   UNL     1      29.706  -2.962   9.550  1.00  0.00     0.001 A 
HETATM   19  C   UNL     1      29.384  -3.917   8.609  1.00  0.00     0.001 A 
HETATM   20  C   UNL     1      28.378  -4.852   8.780  1.00  0.00     0.014 A 
ENDBRANCH   8   9
ENDBRANCH   1   8
BRANCH   3  21
HETATM   21  C   UNL     1      24.672 -11.448   9.447  1.00  0.00     0.257 C 
HETATM   22  N   UNL     1      23.644 -11.679  10.399  1.00  0.00    -0.345 N 
HETATM   23  C   UNL     1      22.646 -12.666  10.140  1.00  0.00     0.146 C 
HETATM   24  C   UNL     1      23.632 -10.899  11.622  1.00  0.00     0.146 C 
HETATM   25  C   UNL     1      22.047 -13.238  11.407  1.00  0.00     0.145 C 
HETATM   26  N   UNL     1      23.002 -13.102  12.476  1.00  0.00    -0.349 N 
HETATM   27  C   UNL     1      23.391 -11.738  12.851  1.00  0.00     0.145 C 
HETATM   28  C   UNL     1      23.549 -14.204  13.139  1.00  0.00     0.224 C 
HETATM   29  O   UNL     1      24.384 -13.975  14.085  1.00  0.00    -0.273 OA
HETATM   30  O   UNL     1      24.696 -12.117   8.389  1.00  0.00    -0.267 OA
BRANCH  28  31
HETATM   31  C   UNL     1      23.274 -15.618  12.872  1.00  0.00     0.078 A 
HETATM   32  C   UNL     1      24.361 -16.385  12.152  1.00  0.00     0.015 A 
HETATM   33  C   UNL     1      23.087 -16.114  11.483  1.00  0.00     0.015 A 
ENDBRANCH  28  31
ENDBRANCH   3  21
TORSDOF 4
ENDMDL
MODEL 2
REMARK VINA RESULT:     -11.1      2.183      3.692
REMARK  4 active torsions:
REMARK  status: ('A' for Active; 'I' for Inactive)
REMARK       I    between atoms: N_1  and  C_17 
REMARK       I    between atoms: N_2  and  C_22 
REMARK    1  A    between atoms: C_12  and  C_13 
REMARK    2  A    between atoms: C_13  and  C_14 
REMARK    3  A    between atoms: C_16  and  C_17 
REMARK    4  A    between atoms: C_22  and  C_23 
ROOT
HETATM    1  C   UNL     1      26.216  -8.295   9.767  1.00  0.00    -0.051 A 
HETATM    2  C   UNL     1      25.026  -9.017   9.966  1.00  0.00     0.027 A 
HETATM    3  C   UNL     1      25.069 -10.256  10.559  1.00  0.00     0.071 A 
HETATM    4  C   UNL     1      26.235 -10.850  10.980  1.00  0.00     0.132 A 
HETATM    5  C   UNL     1      27.400 -10.143  10.784  1.00  0.00     0.044 A 
HETATM    6  C   UNL     1      27.359  -8.878  10.181  1.00  0.00     0.010 A 
HETATM    7  F   UNL     1      26.226 -12.084  11.564  1.00  0.00    -0.205 F 
ENDROOT
BRANCH   1   8
HETATM    8  C   UNL     1      26.057  -6.960   9.128  1.00  0.00     0.100 C 
BRANCH   8   9
HETATM    9  C   UNL     1      26.521  -5.906  10.020  1.00  0.00     0.070 A 
HETATM   10  N   UNL     1      25.826  -5.761  11.190  1.00  0.00    -0.175 NA
HETATM   11  N   UNL     1      26.115  -4.811  12.046  1.00  0.00    -0.243 N 
HETATM   12  H   UNL     1      25.585  -4.749  12.873  1.00  0.00     0.192 HD
HETATM   13  C   UNL     1      27.097  -3.919  11.850  1.00  0.00     0.272 A 
HETATM   14  C   UNL     1      27.844  -3.999  10.693  1.00  0.00     0.046 A 
HETATM   15  O   UNL     1      27.388  -3.000  12.657  1.00  0.00    -0.266 OA
HETATM   16  C   UNL     1      28.890  -3.108  10.448  1.00  0.00     0.018 A 
HETATM   17  C   UNL     1      27.529  -5.006   9.800  1.00  0.00     0.006 A 
HETATM   18  C   UNL     1      29.638  -3.220   9.295  1.00  0.00     0.001 A 
HETATM   19  C   UNL     1      29.299  -4.236   8.427  1.00  0.00     0.001 A 
HETATM   20  C   UNL     1      28.264  -5.127   8.657  1.00  0.00     0.014 A 
ENDBRANCH   8   9
ENDBRANCH   1   8
BRANCH   3  21
HETATM   21  C   UNL     1      23.833 -11.039  10.785  1.00  0.00     0.257 C 
HETATM   22  N   UNL     1      23.499 -12.051   9.847  1.00  0.00    -0.345 N 
HETATM   23  C   UNL     1      22.318 -12.830  10.034  1.00  0.00     0.146 C 
HETATM   24  C   UNL     1      24.374 -12.270   8.710  1.00  0.00     0.146 C 
HETATM   25  C   UNL     1      21.763 -13.371   8.734  1.00  0.00     0.145 C 
HETATM   26  N   UNL     1      22.182 -12.513   7.656  1.00  0.00    -0.349 N 
HETATM   27  C   UNL     1      23.625 -12.409   7.410  1.00  0.00     0.145 C 
HETATM   28  C   UNL     1      21.274 -11.801   6.867  1.00  0.00     0.224 C 
HETATM   29  O   UNL     1      21.749 -11.073   5.924  1.00  0.00    -0.273 OA
HETATM   30  O   UNL     1      23.085 -10.836  11.768  1.00  0.00    -0.267 OA
BRANCH  28  31
HETATM   31  C   UNL     1      19.815 -11.789   6.996  1.00  0.00     0.078 A 
HETATM   32  C   UNL     1      19.067 -12.845   6.213  1.00  0.00     0.015 A 
HETATM   33  C   UNL     1      18.946 -11.433   5.843  1.00  0.00     0.015 A 
ENDBRANCH  28  31
ENDBRANCH   3  21
TORSDOF 4
ENDMDL
MODEL 3
REMARK VINA RESULT:     -11.0      2.249      3.497
REMARK  4 active torsions:
REMARK  status: ('A' for Active; 'I' for Inactive)
REMARK       I    between atoms: N_1  and  C_17 
REMARK       I    between atoms: N_2  and  C_22 
REMARK    1  A    between atoms: C_12  and  C_13 
REMARK    2  A    between atoms: C_13  and  C_14 
REMARK    3  A    between atoms: C_16  and  C_17 
REMARK    4  A    between atoms: C_22  and  C_23 
ROOT
HETATM    1  C   UNL     1      26.512  -9.070   9.853  1.00  0.00    -0.051 A 
HETATM    2  C   UNL     1      25.562  -9.986  10.340  1.00  0.00     0.027 A 
HETATM    3  C   UNL     1      25.940 -10.942  11.252  1.00  0.00     0.071 A 
HETATM    4  C   UNL     1      27.223 -11.063  11.731  1.00  0.00     0.132 A 
HETATM    5  C   UNL     1      28.152 -10.166  11.254  1.00  0.00     0.044 A 
HETATM    6  C   UNL     1      27.770  -9.188  10.324  1.00  0.00     0.010 A 
HETATM    7  F   UNL     1      27.549 -12.029  12.638  1.00  0.00    -0.205 F 
ENDROOT
BRANCH   1   8
HETATM    8  C   UNL     1      25.997  -8.069   8.878  1.00  0.00     0.100 C 
BRANCH   8   9
HETATM    9  C   UNL     1      26.802  -6.856   8.916  1.00  0.00     0.070 A 
HETATM   10  N   UNL     1      27.757  -6.739   7.942  1.00  0.00    -0.175 NA
HETATM   11  N   UNL     1      28.579  -5.719   7.908  1.00  0.00    -0.243 N 
HETATM   12  H   UNL     1      29.249  -5.682   7.187  1.00  0.00     0.192 HD
HETATM   13  C   UNL     1      28.554  -4.724   8.806  1.00  0.00     0.272 A 
HETATM   14  C   UNL     1      27.618  -4.768   9.819  1.00  0.00     0.046 A 
HETATM   15  O   UNL     1      29.335  -3.738   8.791  1.00  0.00    -0.266 OA
HETATM   16  C   UNL     1      27.535  -3.749  10.769  1.00  0.00     0.018 A 
HETATM   17  C   UNL     1      26.757  -5.850   9.843  1.00  0.00     0.006 A 
HETATM   18  C   UNL     1      26.579  -3.804  11.759  1.00  0.00     0.001 A 
HETATM   19  C   UNL     1      25.734  -4.894  11.754  1.00  0.00     0.001 A 
HETATM   20  C   UNL     1      25.805  -5.912  10.818  1.00  0.00     0.014 A 
ENDBRANCH   8   9
ENDBRANCH   1   8
BRANCH   3  21
HETATM   21  C   UNL     1      24.963 -11.918  11.786  1.00  0.00     0.257 C 
HETATM   22  N   UNL     1      24.801 -13.149  11.098  1.00  0.00    -0.345 N 
HETATM   23  C   UNL     1      23.872 -14.117  11.585  1.00  0.00     0.146 C 
HETATM   24  C   UNL     1      25.591 -13.396   9.906  1.00  0.00     0.146 C 
HETATM   25  C   UNL     1      23.348 -15.024  10.493  1.00  0.00     0.145 C 
HETATM   26  N   UNL     1      23.437 -14.335   9.232  1.00  0.00    -0.349 N 
HETATM   27  C   UNL     1      24.779 -13.963   8.771  1.00  0.00     0.145 C 
HETATM   28  C   UNL     1      22.310 -14.021   8.466  1.00  0.00     0.224 C 
HETATM   29  O   UNL     1      22.499 -13.415   7.352  1.00  0.00    -0.273 OA
HETATM   30  O   UNL     1      24.285 -11.690  12.814  1.00  0.00    -0.267 OA
BRANCH  28  31
HETATM   31  C   UNL     1      20.912 -14.310   8.796  1.00  0.00     0.078 A 
HETATM   32  C   UNL     1      20.407 -15.683   8.415  1.00  0.00     0.015 A 
HETATM   33  C   UNL     1      19.895 -14.496   7.728  1.00  0.00     0.015 A 
ENDBRANCH  28  31
ENDBRANCH   3  21
TORSDOF 4
ENDMDL
MODEL 4
REMARK VINA RESULT:     -10.8      1.864      2.531
REMARK  4 active torsions:
REMARK  status: ('A' for Active; 'I' for Inactive)
REMARK       I    between atoms: N_1  and  C_17 
REMARK       I    between atoms: N_2  and  C_22 
REMARK    1  A    between atoms: C_12  and  C_13 
REMARK    2  A    between atoms: C_13  and  C_14 
REMARK    3  A    between atoms: C_16  and  C_17 
REMARK    4  A    between atoms: C_22  and  C_23 
ROOT
HETATM    1  C   UNL     1      25.493  -7.775   9.560  1.00  0.00    -0.051 A 
HETATM    2  C   UNL     1      25.959  -9.060   9.894  1.00  0.00     0.027 A 
HETATM    3  C   UNL     1      25.092  -9.985  10.424  1.00  0.00     0.071 A 
HETATM    4  C   UNL     1      23.761  -9.727  10.654  1.00  0.00     0.132 A 
HETATM    5  C   UNL     1      23.306  -8.469  10.327  1.00  0.00     0.044 A 
HETATM    6  C   UNL     1      24.188  -7.523   9.785  1.00  0.00     0.010 A 
HETATM    7  F   UNL     1      22.940 -10.680  11.182  1.00  0.00    -0.205 F 
ENDROOT
BRANCH   1   8
HETATM    8  C   UNL     1      26.511  -6.854   8.983  1.00  0.00     0.100 C 
BRANCH   8   9
HETATM    9  C   UNL     1      26.874  -5.824   9.948  1.00  0.00     0.070 A 
HETATM   10  N   UNL     1      26.179  -5.833  11.126  1.00  0.00    -0.175 NA
HETATM   11  N   UNL     1      26.378  -4.921  12.046  1.00  0.00    -0.243 N 
HETATM   12  H   UNL     1      25.852  -4.971  12.877  1.00  0.00     0.192 HD
HETATM   13  C   UNL     1      27.263  -3.922  11.912  1.00  0.00     0.272 A 
HETATM   14  C   UNL     1      28.004  -3.844  10.751  1.00  0.00     0.046 A 
HETATM   15  O   UNL     1      27.467  -3.038  12.782  1.00  0.00    -0.266 OA
HETATM   16  C   UNL     1      28.952  -2.837  10.568  1.00  0.00     0.018 A 
HETATM   17  C   UNL     1      27.784  -4.813   9.789  1.00  0.00     0.006 A 
HETATM   18  C   UNL     1      29.697  -2.792   9.409  1.00  0.00     0.001 A 
HETATM   19  C   UNL     1      29.455  -3.773   8.471  1.00  0.00     0.001 A 
HETATM   20  C   UNL     1      28.517  -4.778   8.640  1.00  0.00     0.014 A 
ENDBRANCH   8   9
ENDBRANCH   1   8
BRANCH   3  21
HETATM   21  C   UNL     1      25.551 -11.346  10.782  1.00  0.00     0.257 C 
HETATM   22  N   UNL     1      25.195 -12.421   9.927  1.00  0.00    -0.345 N 
HETATM   23  C   UNL     1      25.623 -13.747  10.237  1.00  0.00     0.146 C 
HETATM   24  C   UNL     1      24.396 -12.144   8.747  1.00  0.00     0.146 C 
HETATM   25  C   UNL     1      24.703 -14.806   9.669  1.00  0.00     0.145 C 
HETATM   26  N   UNL     1      23.390 -14.240   9.501  1.00  0.00    -0.349 N 
HETATM   27  C   UNL     1      23.263 -13.120   8.563  1.00  0.00     0.145 C 
HETATM   28  C   UNL     1      22.272 -14.719  10.191  1.00  0.00     0.224 C 
HETATM   29  O   UNL     1      21.144 -14.153   9.962  1.00  0.00    -0.273 OA
HETATM   30  O   UNL     1      26.237 -11.571  11.806  1.00  0.00    -0.267 OA
BRANCH  28  31
HETATM   31  C   UNL     1      22.240 -15.814  11.165  1.00  0.00     0.078 A 
HETATM   32  C   UNL     1      22.009 -17.199  10.604  1.00  0.00     0.015 A 
HETATM   33  C   UNL     1      20.985 -16.562  11.435  1.00  0.00     0.015 A 
ENDBRANCH  28  31
ENDBRANCH   3  21
TORSDOF 4
ENDMDL
MODEL 5
REMARK VINA RESULT:     -10.8      2.897      3.847
REMARK  4 active torsions:
REMARK  status: ('A' for Active; 'I' for Inactive)
REMARK       I    between atoms: N_1  and  C_17 
REMARK       I    between atoms: N_2  and  C_22 
REMARK    1  A    between atoms: C_12  and  C_13 
REMARK    2  A    between atoms: C_13  and  C_14 
REMARK    3  A    between atoms: C_16  and  C_17 
REMARK    4  A    between atoms: C_22  and  C_23 
ROOT
HETATM    1  C   UNL     1      26.991  -7.431   6.581  1.00  0.00    -0.051 A 
HETATM    2  C   UNL     1      26.357  -8.669   6.791  1.00  0.00     0.027 A 
HETATM    3  C   UNL     1      25.385  -9.096   5.918  1.00  0.00     0.071 A 
HETATM    4  C   UNL     1      24.982  -8.368   4.824  1.00  0.00     0.132 A 
HETATM    5  C   UNL     1      25.603  -7.156   4.620  1.00  0.00     0.044 A 
HETATM    6  C   UNL     1      26.595  -6.718   5.507  1.00  0.00     0.010 A 
HETATM    7  F   UNL     1      24.012  -8.836   3.986  1.00  0.00    -0.205 F 
ENDROOT
BRANCH   1   8
HETATM    8  C   UNL     1      28.036  -7.069   7.578  1.00  0.00     0.100 C 
BRANCH   8   9
HETATM    9  C   UNL     1      27.430  -6.494   8.771  1.00  0.00     0.070 A 
HETATM   10  N   UNL     1      26.414  -7.217   9.336  1.00  0.00    -0.175 NA
HETATM   11  N   UNL     1      25.755  -6.774  10.378  1.00  0.00    -0.243 N 
HETATM   12  H   UNL     1      25.032  -7.331  10.747  1.00  0.00     0.192 HD
HETATM   13  C   UNL     1      26.015  -5.598  10.967  1.00  0.00     0.272 A 
HETATM   14  C   UNL     1      27.027  -4.810  10.457  1.00  0.00     0.046 A 
HETATM   15  O   UNL     1      25.394  -5.155  11.967  1.00  0.00    -0.266 OA
HETATM   16  C   UNL     1      27.353  -3.587  11.044  1.00  0.00     0.018 A 
HETATM   17  C   UNL     1      27.714  -5.290   9.358  1.00  0.00     0.006 A 
HETATM   18  C   UNL     1      28.381  -2.826  10.530  1.00  0.00     0.001 A 
HETATM   19  C   UNL     1      29.048  -3.334   9.435  1.00  0.00     0.001 A 
HETATM   20  C   UNL     1      28.735  -4.546   8.843  1.00  0.00     0.014 A 
ENDBRANCH   8   9
ENDBRANCH   1   8
BRANCH   3  21
HETATM   21  C   UNL     1      24.702 -10.395   6.110  1.00  0.00     0.257 C 
HETATM   22  N   UNL     1      23.482 -10.411   6.834  1.00  0.00    -0.345 N 
HETATM   23  C   UNL     1      22.792 -11.644   7.036  1.00  0.00     0.146 C 
HETATM   24  C   UNL     1      22.960  -9.162   7.357  1.00  0.00     0.146 C 
HETATM   25  C   UNL     1      21.931 -11.635   8.280  1.00  0.00     0.145 C 
HETATM   26  N   UNL     1      22.468 -10.677   9.211  1.00  0.00    -0.349 N 
HETATM   27  C   UNL     1      22.489  -9.274   8.784  1.00  0.00     0.145 C 
HETATM   28  C   UNL     1      22.954 -11.044  10.470  1.00  0.00     0.224 C 
HETATM   29  O   UNL     1      23.402 -10.112  11.229  1.00  0.00    -0.273 OA
HETATM   30  O   UNL     1      25.166 -11.467   5.656  1.00  0.00    -0.267 OA
BRANCH  28  31
HETATM   31  C   UNL     1      23.014 -12.396  11.031  1.00  0.00     0.078 A 
HETATM   32  C   UNL     1      21.889 -12.781  11.965  1.00  0.00     0.015 A 
HETATM   33  C   UNL     1      23.249 -12.613  12.483  1.00  0.00     0.015 A 
ENDBRANCH  28  31
ENDBRANCH   3  21
TORSDOF 4
ENDMDL
MODEL 6
REMARK VINA RESULT:     -10.1      3.268      4.381
REMARK  4 active torsions:
REMARK  status: ('A' for Active; 'I' for Inactive)
REMARK       I    between atoms: N_1  and  C_17 
REMARK       I    between atoms: N_2  and  C_22 
REMARK    1  A    between atoms: C_12  and  C_13 
REMARK    2  A    between atoms: C_13  and  C_14 
REMARK    3  A    between atoms: C_16  and  C_17 
REMARK    4  A    between atoms: C_22  and  C_23 
ROOT
HETATM    1  C   UNL     1      27.229  -7.416   6.502  1.00  0.00    -0.051 A 
HETATM    2  C   UNL     1      26.443  -8.578   6.599  1.00  0.00     0.027 A 
HETATM    3  C   UNL     1      25.390  -8.765   5.736  1.00  0.00     0.071 A 
HETATM    4  C   UNL     1      25.046  -7.861   4.759  1.00  0.00     0.132 A 
HETATM    5  C   UNL     1      25.815  -6.724   4.665  1.00  0.00     0.044 A 
HETATM    6  C   UNL     1      26.892  -6.531   5.543  1.00  0.00     0.010 A 
HETATM    7  F   UNL     1      23.990  -8.093   3.926  1.00  0.00    -0.205 F 
ENDROOT
BRANCH   1   8
HETATM    8  C   UNL     1      28.352  -7.318   7.475  1.00  0.00     0.100 C 
BRANCH   8   9
HETATM    9  C   UNL     1      28.361  -6.009   8.116  1.00  0.00     0.070 A 
HETATM   10  N   UNL     1      29.210  -5.082   7.574  1.00  0.00    -0.175 NA
HETATM   11  N   UNL     1      29.347  -3.889   8.100  1.00  0.00    -0.243 N 
HETATM   12  H   UNL     1      29.972  -3.259   7.674  1.00  0.00     0.192 HD
HETATM   13  C   UNL     1      28.680  -3.485   9.191  1.00  0.00     0.272 A 
HETATM   14  C   UNL     1      27.803  -4.363   9.795  1.00  0.00     0.046 A 
HETATM   15  O   UNL     1      28.799  -2.346   9.710  1.00  0.00    -0.266 OA
HETATM   16  C   UNL     1      27.068  -3.987  10.920  1.00  0.00     0.018 A 
HETATM   17  C   UNL     1      27.668  -5.618   9.230  1.00  0.00     0.006 A 
HETATM   18  C   UNL     1      26.182  -4.873  11.494  1.00  0.00     0.001 A 
HETATM   19  C   UNL     1      26.070  -6.115  10.905  1.00  0.00     0.001 A 
HETATM   20  C   UNL     1      26.792  -6.501   9.789  1.00  0.00     0.014 A 
ENDBRANCH   8   9
ENDBRANCH   1   8
BRANCH   3  21
HETATM   21  C   UNL     1      24.547  -9.980   5.811  1.00  0.00     0.257 C 
HETATM   22  N   UNL     1      23.369  -9.931   6.602  1.00  0.00    -0.345 N 
HETATM   23  C   UNL     1      22.528 -11.081   6.694  1.00  0.00     0.146 C 
HETATM   24  C   UNL     1      23.045  -8.703   7.303  1.00  0.00     0.146 C 
HETATM   25  C   UNL     1      21.733 -11.121   7.981  1.00  0.00     0.145 C 
HETATM   26  N   UNL     1      22.436 -10.367   8.987  1.00  0.00    -0.349 N 
HETATM   27  C   UNL     1      22.627  -8.935   8.732  1.00  0.00     0.145 C 
HETATM   28  C   UNL     1      22.924 -10.952  10.159  1.00  0.00     0.224 C 
HETATM   29  O   UNL     1      23.527 -10.191  10.997  1.00  0.00    -0.273 OA
HETATM   30  O   UNL     1      24.840 -11.035   5.203  1.00  0.00    -0.267 OA
BRANCH  28  31
HETATM   31  C   UNL     1      22.826 -12.361  10.548  1.00  0.00     0.078 A 
HETATM   32  C   UNL     1      21.975 -12.660  11.761  1.00  0.00     0.015 A 
HETATM   33  C   UNL     1      23.427 -12.850  11.816  1.00  0.00     0.015 A 
ENDBRANCH  28  31
ENDBRANCH   3  21
TORSDOF 4
ENDMDL
MODEL 7
REMARK VINA RESULT:      -9.9      4.381      5.791
REMARK  4 active torsions:
REMARK  status: ('A' for Active; 'I' for Inactive)
REMARK       I    between atoms: N_1  and  C_17 
REMARK       I    between atoms: N_2  and  C_22 
REMARK    1  A    between atoms: C_12  and  C_13 
REMARK    2  A    between atoms: C_13  and  C_14 
REMARK    3  A    between atoms: C_16  and  C_17 
REMARK    4  A    between atoms: C_22  and  C_23 
ROOT
HETATM    1  C   UNL     1      24.833  -8.183   9.003  1.00  0.00    -0.051 A 
HETATM    2  C   UNL     1      24.476  -8.634   7.720  1.00  0.00     0.027 A 
HETATM    3  C   UNL     1      23.177  -8.511   7.288  1.00  0.00     0.071 A 
HETATM    4  C   UNL     1      22.177  -7.962   8.055  1.00  0.00     0.132 A 
HETATM    5  C   UNL     1      22.527  -7.521   9.311  1.00  0.00     0.044 A 
HETATM    6  C   UNL     1      23.852  -7.643   9.754  1.00  0.00     0.010 A 
HETATM    7  F   UNL     1      20.901  -7.862   7.581  1.00  0.00    -0.205 F 
ENDROOT
BRANCH   1   8
HETATM    8  C   UNL     1      26.267  -8.351   9.367  1.00  0.00     0.100 C 
BRANCH   8   9
HETATM    9  C   UNL     1      27.057  -7.233   8.869  1.00  0.00     0.070 A 
HETATM   10  N   UNL     1      27.653  -7.414   7.650  1.00  0.00    -0.175 NA
HETATM   11  N   UNL     1      28.433  -6.500   7.127  1.00  0.00    -0.243 N 
HETATM   12  H   UNL     1      28.839  -6.680   6.248  1.00  0.00     0.192 HD
HETATM   13  C   UNL     1      28.707  -5.335   7.729  1.00  0.00     0.272 A 
HETATM   14  C   UNL     1      28.143  -5.076   8.962  1.00  0.00     0.046 A 
HETATM   15  O   UNL     1      29.454  -4.447   7.244  1.00  0.00    -0.266 OA
HETATM   16  C   UNL     1      28.379  -3.870   9.623  1.00  0.00     0.018 A 
HETATM   17  C   UNL     1      27.322  -6.048   9.502  1.00  0.00     0.006 A 
HETATM   18  C   UNL     1      27.788  -3.625  10.844  1.00  0.00     0.001 A 
HETATM   19  C   UNL     1      26.973  -4.613  11.354  1.00  0.00     0.001 A 
HETATM   20  C   UNL     1      26.730  -5.814  10.708  1.00  0.00     0.014 A 
ENDBRANCH   8   9
ENDBRANCH   1   8
BRANCH   3  21
HETATM   21  C   UNL     1      22.772  -8.973   5.942  1.00  0.00     0.257 C 
HETATM   22  N   UNL     1      22.447 -10.345   5.772  1.00  0.00    -0.345 N 
HETATM   23  C   UNL     1      22.047 -10.826   4.490  1.00  0.00     0.146 C 
HETATM   24  C   UNL     1      22.530 -11.232   6.918  1.00  0.00     0.146 C 
HETATM   25  C   UNL     1      22.347 -12.298   4.299  1.00  0.00     0.145 C 
HETATM   26  N   UNL     1      23.441 -12.665   5.160  1.00  0.00    -0.349 N 
HETATM   27  C   UNL     1      23.224 -12.532   6.605  1.00  0.00     0.145 C 
HETATM   28  C   UNL     1      24.663 -13.130   4.665  1.00  0.00     0.224 C 
HETATM   29  O   UNL     1      25.570 -13.442   5.517  1.00  0.00    -0.273 OA
HETATM   30  O   UNL     1      22.708  -8.197   4.961  1.00  0.00    -0.267 OA
BRANCH  28  31
HETATM   31  C   UNL     1      25.035 -13.303   3.258  1.00  0.00     0.078 A 
HETATM   32  C   UNL     1      25.743 -12.137   2.607  1.00  0.00     0.015 A 
HETATM   33  C   UNL     1      24.386 -12.499   2.189  1.00  0.00     0.015 A 
ENDBRANCH  28  31
ENDBRANCH   3  21
TORSDOF 4
ENDMDL
MODEL 8
REMARK VINA RESULT:      -9.9      4.167      6.362
REMARK  4 active torsions:
REMARK  status: ('A' for Active; 'I' for Inactive)
REMARK       I    between atoms: N_1  and  C_17 
REMARK       I    between atoms: N_2  and  C_22 
REMARK    1  A    between atoms: C_12  and  C_13 
REMARK    2  A    between atoms: C_13  and  C_14 
REMARK    3  A    between atoms: C_16  and  C_17 
REMARK    4  A    between atoms: C_22  and  C_23 
ROOT
HETATM    1  C   UNL     1      26.177  -8.160   8.675  1.00  0.00    -0.051 A 
HETATM    2  C   UNL     1      25.107  -8.378   7.789  1.00  0.00     0.027 A 
HETATM    3  C   UNL     1      24.373  -9.537   7.875  1.00  0.00     0.071 A 
HETATM    4  C   UNL     1      24.627 -10.523   8.799  1.00  0.00     0.132 A 
HETATM    5  C   UNL     1      25.675 -10.309   9.666  1.00  0.00     0.044 A 
HETATM    6  C   UNL     1      26.425  -9.127   9.581  1.00  0.00     0.010 A 
HETATM    7  F   UNL     1      23.869 -11.657   8.845  1.00  0.00    -0.205 F 
ENDROOT
BRANCH   1   8
HETATM    8  C   UNL     1      26.898  -6.868   8.504  1.00  0.00     0.100 C 
BRANCH   8   9
HETATM    9  C   UNL     1      26.688  -6.007   9.660  1.00  0.00     0.070 A 
HETATM   10  N   UNL     1      25.614  -6.315  10.450  1.00  0.00    -0.175 NA
HETATM   11  N   UNL     1      25.291  -5.578  11.485  1.00  0.00    -0.243 N 
HETATM   12  H   UNL     1      24.508  -5.842  12.022  1.00  0.00     0.192 HD
HETATM   13  C   UNL     1      25.973  -4.483  11.849  1.00  0.00     0.272 A 
HETATM   14  C   UNL     1      27.070  -4.106  11.102  1.00  0.00     0.046 A 
HETATM   15  O   UNL     1      25.678  -3.762  12.837  1.00  0.00    -0.266 OA
HETATM   16  C   UNL     1      27.827  -2.986  11.448  1.00  0.00     0.018 A 
HETATM   17  C   UNL     1      27.400  -4.892  10.014  1.00  0.00     0.006 A 
HETATM   18  C   UNL     1      28.932  -2.641  10.700  1.00  0.00     0.001 A 
HETATM   19  C   UNL     1      29.235  -3.447   9.623  1.00  0.00     0.001 A 
HETATM   20  C   UNL     1      28.493  -4.561   9.269  1.00  0.00     0.014 A 
ENDBRANCH   8   9
ENDBRANCH   1   8
BRANCH   3  21
HETATM   21  C   UNL     1      23.239  -9.794   6.959  1.00  0.00     0.257 C 
HETATM   22  N   UNL     1      23.519 -10.363   5.689  1.00  0.00    -0.345 N 
HETATM   23  C   UNL     1      22.451 -10.630   4.780  1.00  0.00     0.146 C 
HETATM   24  C   UNL     1      24.896 -10.662   5.342  1.00  0.00     0.146 C 
HETATM   25  C   UNL     1      22.897 -10.613   3.334  1.00  0.00     0.145 C 
HETATM   26  N   UNL     1      24.067  -9.782   3.217  1.00  0.00    -0.349 N 
HETATM   27  C   UNL     1      25.263 -10.209   3.952  1.00  0.00     0.145 C 
HETATM   28  C   UNL     1      24.086  -8.617   2.445  1.00  0.00     0.224 C 
HETATM   29  O   UNL     1      25.183  -7.953   2.397  1.00  0.00    -0.273 OA
HETATM   30  O   UNL     1      22.056  -9.528   7.270  1.00  0.00    -0.267 OA
BRANCH  28  31
HETATM   31  C   UNL     1      22.977  -8.055   1.670  1.00  0.00     0.078 A 
HETATM   32  C   UNL     1      22.600  -6.626   1.985  1.00  0.00     0.015 A 
HETATM   33  C   UNL     1      21.683  -7.718   2.318  1.00  0.00     0.015 A 
ENDBRANCH  28  31
ENDBRANCH   3  21
TORSDOF 4
ENDMDL
MODEL 9
REMARK VINA RESULT:      -9.5      4.358      7.366
REMARK  4 active torsions:
REMARK  status: ('A' for Active; 'I' for Inactive)
REMARK       I    between atoms: N_1  and  C_17 
REMARK       I    between atoms: N_2  and  C_22 
REMARK    1  A    between atoms: C_12  and  C_13 
REMARK    2  A    between atoms: C_13  and  C_14 
REMARK    3  A    between atoms: C_16  and  C_17 
REMARK    4  A    between atoms: C_22  and  C_23 
ROOT
HETATM    1  C   UNL     1      25.321  -7.849   9.750  1.00  0.00    -0.051 A 
HETATM    2  C   UNL     1      24.618  -7.584   8.561  1.00  0.00     0.027 A 
HETATM    3  C   UNL     1      24.097  -8.623   7.829  1.00  0.00     0.071 A 
HETATM    4  C   UNL     1      24.223  -9.942   8.196  1.00  0.00     0.132 A 
HETATM    5  C   UNL     1      24.912 -10.201   9.359  1.00  0.00     0.044 A 
HETATM    6  C   UNL     1      25.444  -9.143  10.109  1.00  0.00     0.010 A 
HETATM    7  F   UNL     1      23.686 -10.939   7.434  1.00  0.00    -0.205 F 
ENDROOT
BRANCH   1   8
HETATM    8  C   UNL     1      25.835  -6.653  10.472  1.00  0.00     0.100 C 
BRANCH   8   9
HETATM    9  C   UNL     1      26.861  -5.981   9.686  1.00  0.00     0.070 A 
HETATM   10  N   UNL     1      27.233  -6.605   8.527  1.00  0.00    -0.175 NA
HETATM   11  N   UNL     1      28.187  -6.126   7.766  1.00  0.00    -0.243 N 
HETATM   12  H   UNL     1      28.418  -6.613   6.942  1.00  0.00     0.192 HD
HETATM   13  C   UNL     1      28.864  -5.005   8.055  1.00  0.00     0.272 A 
HETATM   14  C   UNL     1      28.547  -4.317   9.208  1.00  0.00     0.046 A 
HETATM   15  O   UNL     1      29.783  -4.530   7.339  1.00  0.00    -0.266 OA
HETATM   16  C   UNL     1      29.207  -3.135   9.546  1.00  0.00     0.018 A 
HETATM   17  C   UNL     1      27.539  -4.834  10.001  1.00  0.00     0.006 A 
HETATM   18  C   UNL     1      28.859  -2.452  10.692  1.00  0.00     0.001 A 
HETATM   19  C   UNL     1      27.848  -2.993  11.459  1.00  0.00     0.001 A 
HETATM   20  C   UNL     1      27.185  -4.165  11.135  1.00  0.00     0.014 A 
ENDBRANCH   8   9
ENDBRANCH   1   8
BRANCH   3  21
HETATM   21  C   UNL     1      23.349  -8.376   6.576  1.00  0.00     0.257 C 
HETATM   22  N   UNL     1      24.061  -8.427   5.349  1.00  0.00    -0.345 N 
HETATM   23  C   UNL     1      23.373  -8.199   4.119  1.00  0.00     0.146 C 
HETATM   24  C   UNL     1      25.483  -8.713   5.374  1.00  0.00     0.146 C 
HETATM   25  C   UNL     1      24.282  -7.664   3.032  1.00  0.00     0.145 C 
HETATM   26  N   UNL     1      25.393  -6.986   3.647  1.00  0.00    -0.349 N 
HETATM   27  C   UNL     1      26.283  -7.794   4.488  1.00  0.00     0.145 C 
HETATM   28  C   UNL     1      25.633  -5.621   3.465  1.00  0.00     0.224 C 
HETATM   29  O   UNL     1      26.657  -5.114   4.047  1.00  0.00    -0.273 OA
HETATM   30  O   UNL     1      22.122  -8.127   6.568  1.00  0.00    -0.267 OA
BRANCH  28  31
HETATM   31  C   UNL     1      24.833  -4.683   2.672  1.00  0.00     0.078 A 
HETATM   32  C   UNL     1      24.611  -3.317   3.280  1.00  0.00     0.015 A 
HETATM   33  C   UNL     1      23.488  -4.245   3.131  1.00  0.00     0.015 A 
ENDBRANCH  28  31
ENDBRANCH   3  21
TORSDOF 4
ENDMDL
