@<TRIPOS>MOLECULE
query molecule
   55    59     1     0     0
SMALL
NO_CHARGE

@<TRIPOS>ATOM
      1 N          15.9959   -7.0480   12.7237 N.am      1 MOL    -0.2945
      2 N          16.6770   -7.8789   10.0767 N.am      1 MOL    -0.2983
      3 N          17.0948   -1.4996   11.7749 N.ar      1 MOL    -0.1750
      4 N          17.0035   -0.7287   10.6997 N.ar      1 MOL    -0.2425
      5 C          16.9351    0.6740   10.8303 C.ar      1 MOL     0.2725
      6 C          16.9468    1.2383   12.1246 C.ar      1 MOL     0.0496
      7 C          16.8842    2.6212   12.3185 C.ar      1 MOL     0.0138
      8 C          16.9137    3.1614   13.5988 C.ar      1 MOL     0.0008
      9 C          16.9991    2.3217   14.7069 C.ar      1 MOL     0.0007
     10 C          17.0599    0.9400   14.5331 C.ar      1 MOL     0.0103
     11 C          17.0406    0.3722   13.2488 C.ar      1 MOL     0.0106
     12 C          17.1325   -1.0169   13.0472 C.ar      1 MOL     0.0736
     13 C          17.3192   -1.9393   14.1980 C.3       1 MOL     0.0925
     14 C          16.2467   -2.9371   14.3645 C.ar      1 MOL    -0.0406
     15 C          16.4675   -4.2739   14.0040 C.ar      1 MOL     0.0196
     16 C          15.5049   -5.2418   14.3023 C.ar      1 MOL     0.0723
     17 C          15.7247   -6.6560   13.9883 C.2       1 MOL     0.2495
     18 C          16.4380   -8.4270   12.5101 C.3       1 MOL     0.1268
     19 C          17.2948   -8.5382   11.2181 C.3       1 MOL     0.1265
     20 C          15.9974   -6.6009   10.2872 C.3       1 MOL     0.1265
     21 C          15.2177   -6.4997   11.6161 C.3       1 MOL     0.1268
     22 C          16.8187   -8.3111    8.7879 C.2       1 MOL     0.2187
     23 C          17.6748   -9.4968    8.5365 C.3       1 MOL     0.0752
     24 C          17.2449  -10.2678    7.3353 C.3       1 MOL     0.0134
     25 C          16.9687  -10.7920    8.7137 C.3       1 MOL     0.0134
     26 C          14.3268   -4.8766   14.9511 C.ar      1 MOL     0.1355
     27 C          14.0895   -3.5410   15.2404 C.ar      1 MOL     0.0392
     28 C          15.0323   -2.5615   14.9441 C.ar      1 MOL     0.0066
     29 O          16.8869    1.3403    9.7871 O.2       1 MOL    -0.2658
     30 O          16.3191   -7.6983    7.8325 O.2       1 MOL    -0.2753
     31 O          15.7088   -7.4056   14.9534 O.2       1 MOL    -0.2699
     32 F          13.4134   -5.8115   15.3101 F         1 MOL    -0.2047
     33 H          16.8163    3.2798   11.4637 H         1 MOL     0.0625
     34 H          16.8719    4.2318   13.7350 H         1 MOL     0.0618
     35 H          17.0217    2.7440   15.7010 H         1 MOL     0.0618
     36 H          17.1298    0.3001   15.4021 H         1 MOL     0.0624
     37 H          17.3577   -1.3272   15.1237 H         1 MOL     0.0377
     38 H          18.2774   -2.4764   14.0645 H         1 MOL     0.0377
     39 H          17.3910   -4.5584   13.5231 H         1 MOL     0.0629
     40 H          15.5242   -9.0635   12.4100 H         1 MOL     0.0480
     41 H          17.0019   -8.7776   13.4025 H         1 MOL     0.0480
     42 H          17.5021   -9.6014   10.9609 H         1 MOL     0.0480
     43 H          18.2742   -8.0356   11.4130 H         1 MOL     0.0480
     44 H          15.3372   -6.3868    9.4151 H         1 MOL     0.0480
     45 H          16.7890   -5.8083   10.3072 H         1 MOL     0.0480
     46 H          14.2712   -7.0883   11.5364 H         1 MOL     0.0480
     47 H          14.9450   -5.4436   11.8392 H         1 MOL     0.0480
     48 H          18.6990   -9.3812    8.7879 H         1 MOL     0.0394
     49 H          18.0312  -10.7435    6.7633 H         1 MOL     0.0273
     50 H          16.3969   -9.8741    6.7868 H         1 MOL     0.0273
     51 H          17.5691  -11.6451    9.0120 H         1 MOL     0.0273
     52 H          15.9400  -10.7677    9.0463 H         1 MOL     0.0273
     53 H          13.1535   -3.2575   15.7041 H         1 MOL     0.0646
     54 H          14.8314   -1.5276   15.1775 H         1 MOL     0.0621
     55 H          17.1068   -1.0683    9.7556 H         1 MOL     0.1921
@<TRIPOS>BOND
     1    1   17 am
     2    1   18 1 
     3    1   21 1 
     4    2   19 1 
     5    2   20 1 
     6    2   22 am
     7    3    4 ar
     8    3   12 ar
     9    4    5 ar
    10    4   55 1 
    11    5    6 ar
    12    5   29 2 
    13    6    7 ar
    14    6   11 ar
    15    7    8 ar
    16    7   33 1 
    17    8    9 ar
    18    8   34 1 
    19    9   10 ar
    20    9   35 1 
    21   10   11 ar
    22   10   36 1 
    23   11   12 ar
    24   12   13 1 
    25   13   14 1 
    26   13   37 1 
    27   13   38 1 
    28   14   15 ar
    29   14   28 ar
    30   15   16 ar
    31   15   39 1 
    32   16   17 1 
    33   16   26 ar
    34   17   31 2 
    35   18   19 1 
    36   18   40 1 
    37   18   41 1 
    38   19   42 1 
    39   19   43 1 
    40   20   21 1 
    41   20   44 1 
    42   20   45 1 
    43   21   46 1 
    44   21   47 1 
    45   22   23 1 
    46   22   30 2 
    47   23   24 1 
    48   23   25 1 
    49   23   48 1 
    50   24   25 1 
    51   24   49 1 
    52   24   50 1 
    53   25   51 1 
    54   25   52 1 
    55   26   27 ar
    56   26   32 1 
    57   27   28 ar
    58   27   53 1 
    59   28   54 1 
@<TRIPOS>SUBSTRUCTURE
1 MOL         1
@<TRIPOS>MOLECULE
query molecule
   55    59     1     0     0
SMALL
NO_CHARGE

@<TRIPOS>ATOM
      1 N          20.0234   -3.3485   14.9935 N.am      1 MOL    -0.2945
      2 N          17.9819   -5.3178   15.3656 N.am      1 MOL    -0.2983
      3 N          17.9750    1.3724   18.3299 N.ar      1 MOL    -0.1750
      4 N          17.0907    2.2111   18.8541 N.ar      1 MOL    -0.2425
      5 C          17.4144    3.0015   19.9744 C.ar      1 MOL     0.2725
      6 C          18.7443    3.0106   20.4317 C.ar      1 MOL     0.0496
      7 C          19.1819    3.9250   21.3911 C.ar      1 MOL     0.0138
      8 C          20.5187    3.9292   21.7900 C.ar      1 MOL     0.0008
      9 C          21.4177    3.0121   21.2461 C.ar      1 MOL     0.0007
     10 C          20.9777    2.0805   20.3087 C.ar      1 MOL     0.0103
     11 C          19.6479    2.0627   19.8794 C.ar      1 MOL     0.0106
     12 C          19.1581    1.1288   18.9601 C.ar      1 MOL     0.0736
     13 C          19.8005   -0.1470   18.7064 C.3       1 MOL     0.0925
     14 C          20.8308   -0.2884   17.7212 C.ar      1 MOL    -0.0406
     15 C          20.4914   -1.1181   16.6609 C.ar      1 MOL     0.0196
     16 C          21.4333   -1.4965   15.7045 C.ar      1 MOL     0.0723
     17 C          21.0116   -2.4607   14.6564 C.2       1 MOL     0.2495
     18 C          20.2892   -4.7490   14.6686 C.3       1 MOL     0.1268
     19 C          19.3797   -5.7165   15.4714 C.3       1 MOL     0.1265
     20 C          17.7013   -3.9412   15.7658 C.3       1 MOL     0.1265
     21 C          18.6119   -2.9459   14.9628 C.3       1 MOL     0.1268
     22 C          16.9769   -6.1397   14.9636 C.2       1 MOL     0.2187
     23 C          17.3264   -7.3759   14.2076 C.3       1 MOL     0.0752
     24 C          17.8404   -7.1267   12.8374 C.3       1 MOL     0.0134
     25 C          16.4269   -7.5746   13.0375 C.3       1 MOL     0.0134
     26 C          22.7265   -0.9837   15.8047 C.ar      1 MOL     0.1355
     27 C          23.0714   -0.1179   16.8513 C.ar      1 MOL     0.0392
     28 C          22.1136    0.2287   17.8130 C.ar      1 MOL     0.0066
     29 O          16.4917    3.5993   20.5385 O.2       1 MOL    -0.2658
     30 O          15.7845   -5.9427   15.2557 O.2       1 MOL    -0.2753
     31 O          21.6750   -2.5341   13.6171 O.2       1 MOL    -0.2699
     32 F          23.6959   -1.3296   14.9271 F         1 MOL    -0.2047
     33 H          18.4916    4.6362   21.8162 H         1 MOL     0.0625
     34 H          20.8652    4.6517   22.5151 H         1 MOL     0.0618
     35 H          22.4547    3.0223   21.5463 H         1 MOL     0.0618
     36 H          21.6739    1.3608   19.8990 H         1 MOL     0.0624
     37 H          18.9897   -0.8566   18.4197 H         1 MOL     0.0377
     38 H          20.2305   -0.4896   19.6758 H         1 MOL     0.0377
     39 H          19.4800   -1.4954   16.5850 H         1 MOL     0.0629
     40 H          21.3678   -4.9639   14.8455 H         1 MOL     0.0480
     41 H          20.0908   -4.8905   13.5770 H         1 MOL     0.0480
     42 H          19.6725   -5.6833   16.5484 H         1 MOL     0.0480
     43 H          19.4966   -6.7629   15.1126 H         1 MOL     0.0480
     44 H          17.9107   -3.8433   16.8576 H         1 MOL     0.0480
     45 H          16.6233   -3.7214   15.5983 H         1 MOL     0.0480
     46 H          18.5165   -1.9067   15.3523 H         1 MOL     0.0480
     47 H          18.2783   -2.9413   13.8967 H         1 MOL     0.0480
     48 H          17.6733   -8.1921   14.7933 H         1 MOL     0.0394
     49 H          18.5306   -7.8578   12.4317 H         1 MOL     0.0273
     50 H          17.9945   -6.0938   12.5490 H         1 MOL     0.0273
     51 H          16.2086   -8.5957   12.7484 H         1 MOL     0.0273
     52 H          15.6603   -6.8299   12.8657 H         1 MOL     0.0273
     53 H          24.0755    0.2727   16.9252 H         1 MOL     0.0646
     54 H          22.3763    0.8811   18.6324 H         1 MOL     0.0621
     55 H          16.1921    2.3755   18.4283 H         1 MOL     0.1921
@<TRIPOS>BOND
     1    1   17 am
     2    1   18 1 
     3    1   21 1 
     4    2   19 1 
     5    2   20 1 
     6    2   22 am
     7    3    4 ar
     8    3   12 ar
     9    4    5 ar
    10    4   55 1 
    11    5    6 ar
    12    5   29 2 
    13    6    7 ar
    14    6   11 ar
    15    7    8 ar
    16    7   33 1 
    17    8    9 ar
    18    8   34 1 
    19    9   10 ar
    20    9   35 1 
    21   10   11 ar
    22   10   36 1 
    23   11   12 ar
    24   12   13 1 
    25   13   14 1 
    26   13   37 1 
    27   13   38 1 
    28   14   15 ar
    29   14   28 ar
    30   15   16 ar
    31   15   39 1 
    32   16   17 1 
    33   16   26 ar
    34   17   31 2 
    35   18   19 1 
    36   18   40 1 
    37   18   41 1 
    38   19   42 1 
    39   19   43 1 
    40   20   21 1 
    41   20   44 1 
    42   20   45 1 
    43   21   46 1 
    44   21   47 1 
    45   22   23 1 
    46   22   30 2 
    47   23   24 1 
    48   23   25 1 
    49   23   48 1 
    50   24   25 1 
    51   24   49 1 
    52   24   50 1 
    53   25   51 1 
    54   25   52 1 
    55   26   27 ar
    56   26   32 1 
    57   27   28 ar
    58   27   53 1 
    59   28   54 1 
@<TRIPOS>SUBSTRUCTURE
1 MOL         1
@<TRIPOS>MOLECULE
query molecule
   55    59     1     0     0
SMALL
NO_CHARGE

@<TRIPOS>ATOM
      1 N          25.6313    3.0716   15.3813 N.am      1 MOL    -0.2945
      2 N          28.2860    2.4280   16.2517 N.am      1 MOL    -0.2983
      3 N          18.9450    1.6670   18.3036 N.ar      1 MOL    -0.1750
      4 N          17.7620    2.1731   18.6485 N.ar      1 MOL    -0.2425
      5 C          17.6177    2.8586   19.8740 C.ar      1 MOL     0.2725
      6 C          18.7471    2.9881   20.7074 C.ar      1 MOL     0.0496
      7 C          18.6495    3.6601   21.9255 C.ar      1 MOL     0.0138
      8 C          19.7615    3.7823   22.7529 C.ar      1 MOL     0.0008
      9 C          20.9803    3.2244   22.3752 C.ar      1 MOL     0.0007
     10 C          21.0935    2.5556   21.1582 C.ar      1 MOL     0.0103
     11 C          19.9875    2.4254   20.2991 C.ar      1 MOL     0.0106
     12 C          20.0767    1.7477   19.0637 C.ar      1 MOL     0.0736
     13 C          21.3706    1.1196   18.6554 C.3       1 MOL     0.0925
     14 C          21.7946    1.3541   17.2634 C.ar      1 MOL    -0.0406
     15 C          22.8542    2.2310   16.9929 C.ar      1 MOL     0.0196
     16 C          23.2684    2.4598   15.6700 C.ar      1 MOL     0.0723
     17 C          24.3377    3.4473   15.4292 C.2       1 MOL     0.2495
     18 C          26.6699    4.0968   15.2784 C.3       1 MOL     0.1268
     19 C          27.8481    3.8140   16.2583 C.3       1 MOL     0.1265
     20 C          27.2634    1.3796   16.1483 C.3       1 MOL     0.1265
     21 C          26.1036    1.7188   15.1670 C.3       1 MOL     0.1268
     22 C          29.5829    2.0326   16.4436 C.2       1 MOL     0.2187
     23 C          30.6543    3.0617   16.5526 C.3       1 MOL     0.0752
     24 C          31.9736    2.4367   16.8852 C.3       1 MOL     0.0134
     25 C          31.2127    3.2054   17.9253 C.3       1 MOL     0.0134
     26 C          22.6283    1.7914   14.6289 C.ar      1 MOL     0.1355
     27 C          21.5843    0.9004   14.8887 C.ar      1 MOL     0.0392
     28 C          21.1688    0.6837   16.2060 C.ar      1 MOL     0.0066
     29 O          16.5038    3.3159   20.1592 O.2       1 MOL    -0.2658
     30 O          29.8930    0.8271   16.4757 O.2       1 MOL    -0.2753
     31 O          23.9588    4.6241   15.3776 O.2       1 MOL    -0.2699
     32 F          23.0026    2.0055   13.3477 F         1 MOL    -0.2047
     33 H          17.7019    4.0853   22.2206 H         1 MOL     0.0625
     34 H          19.6727    4.3139   23.6895 H         1 MOL     0.0618
     35 H          21.8364    3.3192   23.0268 H         1 MOL     0.0618
     36 H          22.0481    2.1319   20.8748 H         1 MOL     0.0624
     37 H          21.2848    0.0249   18.8058 H         1 MOL     0.0377
     38 H          22.1641    1.5232   19.3199 H         1 MOL     0.0377
     39 H          23.3539    2.7417   17.8035 H         1 MOL     0.0629
     40 H          26.2163    5.0927   15.4903 H         1 MOL     0.0480
     41 H          27.0461    4.1074   14.2280 H         1 MOL     0.0480
     42 H          27.4828    4.0397   17.2929 H         1 MOL     0.0480
     43 H          28.7138    4.4825   16.0558 H         1 MOL     0.0480
     44 H          26.8239    1.2401   17.1676 H         1 MOL     0.0480
     45 H          27.7572    0.4202   15.8654 H         1 MOL     0.0480
     46 H          25.2585    1.0040   15.2758 H         1 MOL     0.0480
     47 H          26.4808    1.6490   14.1173 H         1 MOL     0.0480
     48 H          30.5882    3.8914   15.8947 H         1 MOL     0.0394
     49 H          32.8729    2.8944   16.4960 H         1 MOL     0.0273
     50 H          31.9744    1.3577   17.0043 H         1 MOL     0.0273
     51 H          31.6521    4.1571   18.2026 H         1 MOL     0.0273
     52 H          30.7489    2.6276   18.7138 H         1 MOL     0.0273
     53 H          21.0952    0.3802   14.0787 H         1 MOL     0.0646
     54 H          20.3623   -0.0043   16.4141 H         1 MOL     0.0621
     55 H          16.9332    2.1154   18.0758 H         1 MOL     0.1921
@<TRIPOS>BOND
     1    1   17 am
     2    1   18 1 
     3    1   21 1 
     4    2   19 1 
     5    2   20 1 
     6    2   22 am
     7    3    4 ar
     8    3   12 ar
     9    4    5 ar
    10    4   55 1 
    11    5    6 ar
    12    5   29 2 
    13    6    7 ar
    14    6   11 ar
    15    7    8 ar
    16    7   33 1 
    17    8    9 ar
    18    8   34 1 
    19    9   10 ar
    20    9   35 1 
    21   10   11 ar
    22   10   36 1 
    23   11   12 ar
    24   12   13 1 
    25   13   14 1 
    26   13   37 1 
    27   13   38 1 
    28   14   15 ar
    29   14   28 ar
    30   15   16 ar
    31   15   39 1 
    32   16   17 1 
    33   16   26 ar
    34   17   31 2 
    35   18   19 1 
    36   18   40 1 
    37   18   41 1 
    38   19   42 1 
    39   19   43 1 
    40   20   21 1 
    41   20   44 1 
    42   20   45 1 
    43   21   46 1 
    44   21   47 1 
    45   22   23 1 
    46   22   30 2 
    47   23   24 1 
    48   23   25 1 
    49   23   48 1 
    50   24   25 1 
    51   24   49 1 
    52   24   50 1 
    53   25   51 1 
    54   25   52 1 
    55   26   27 ar
    56   26   32 1 
    57   27   28 ar
    58   27   53 1 
    59   28   54 1 
@<TRIPOS>SUBSTRUCTURE
1 MOL         1
@<TRIPOS>MOLECULE
query molecule
   55    59     1     0     0
SMALL
NO_CHARGE

@<TRIPOS>ATOM
      1 N          17.6689    1.1159   16.3094 N.am      1 MOL    -0.2945
      2 N          19.1340    1.4809   18.7709 N.am      1 MOL    -0.2983
      3 N          16.6423   -4.8367   15.3143 N.ar      1 MOL    -0.1750
      4 N          17.4735   -5.8734   15.3216 N.ar      1 MOL    -0.2425
      5 C          17.5579   -6.7484   14.2152 C.ar      1 MOL     0.2725
      6 C          16.7176   -6.5209   13.1113 C.ar      1 MOL     0.0496
      7 C          16.7449   -7.3773   12.0066 C.ar      1 MOL     0.0138
      8 C          15.8983   -7.1482   10.9231 C.ar      1 MOL     0.0008
      9 C          15.0235   -6.0635   10.9451 C.ar      1 MOL     0.0007
     10 C          15.0028   -5.1989   12.0408 C.ar      1 MOL     0.0103
     11 C          15.8451   -5.3993   13.1411 C.ar      1 MOL     0.0106
     12 C          15.8574   -4.5255   14.2428 C.ar      1 MOL     0.0736
     13 C          15.0519   -3.2625   14.2827 C.3       1 MOL     0.0925
     14 C          15.8672   -2.0941   13.8301 C.ar      1 MOL    -0.0406
     15 C          16.1297   -1.0225   14.6979 C.ar      1 MOL     0.0196
     16 C          16.8609    0.0848   14.2423 C.ar      1 MOL     0.0723
     17 C          17.0491    1.2612   15.1083 C.2       1 MOL     0.2495
     18 C          17.2534    2.0893   17.3097 C.3       1 MOL     0.1268
     19 C          17.7061    1.7212   18.7308 C.3       1 MOL     0.1265
     20 C          19.6186    0.5005   17.7917 C.3       1 MOL     0.1265
     21 C          19.0980    0.7833   16.3392 C.3       1 MOL     0.1268
     22 C          19.9905    2.0478   19.6621 C.2       1 MOL     0.2187
     23 C          19.5221    3.0633   20.6336 C.3       1 MOL     0.0752
     24 C          20.0951    2.7658   21.9874 C.3       1 MOL     0.0134
     25 C          18.6277    2.6302   21.7332 C.3       1 MOL     0.0134
     26 C          17.3656    0.1052   12.9414 C.ar      1 MOL     0.1355
     27 C          17.1241   -0.9572   12.0771 C.ar      1 MOL     0.0392
     28 C          16.3724   -2.0462   12.5207 C.ar      1 MOL     0.0066
     29 O          18.3801   -7.6767   14.2699 O.2       1 MOL    -0.2658
     30 O          21.2075    1.7831   19.6501 O.2       1 MOL    -0.2753
     31 O          16.4904    2.2916   14.7196 O.2       1 MOL    -0.2699
     32 F          18.0954    1.1598   12.5042 F         1 MOL    -0.2047
     33 H          17.4234   -8.2173   11.9920 H         1 MOL     0.0625
     34 H          15.9217   -7.8065   10.0681 H         1 MOL     0.0618
     35 H          14.3633   -5.8851   10.1091 H         1 MOL     0.0618
     36 H          14.3300   -4.3535   12.0399 H         1 MOL     0.0624
     37 H          14.7218   -3.0859   15.3222 H         1 MOL     0.0377
     38 H          14.1827   -3.3725   13.6110 H         1 MOL     0.0377
     39 H          15.7535   -1.0398   15.7106 H         1 MOL     0.0629
     40 H          16.1409    2.2016   17.2597 H         1 MOL     0.0480
     41 H          17.6972    3.0776   17.0283 H         1 MOL     0.0480
     42 H          17.1886    0.7834   19.0444 H         1 MOL     0.0480
     43 H          17.4525    2.5192   19.4641 H         1 MOL     0.0480
     44 H          19.2372   -0.5025   18.1070 H         1 MOL     0.0480
     45 H          20.7316    0.4628   17.8197 H         1 MOL     0.0480
     46 H          19.2882   -0.0861   15.6682 H         1 MOL     0.0480
     47 H          19.6640    1.6569   15.9275 H         1 MOL     0.0480
     48 H          19.5360    4.0670   20.2775 H         1 MOL     0.0394
     49 H          20.3759    3.6000   22.6180 H         1 MOL     0.0273
     50 H          20.6410    1.8371   22.1053 H         1 MOL     0.0273
     51 H          17.9901    3.3885   22.1751 H         1 MOL     0.0273
     52 H          18.2096    1.6361   21.6464 H         1 MOL     0.0273
     53 H          17.5181   -0.9414   11.0729 H         1 MOL     0.0646
     54 H          16.1786   -2.8709   11.8485 H         1 MOL     0.0621
     55 H          17.9711   -6.1625   16.1498 H         1 MOL     0.1921
@<TRIPOS>BOND
     1    1   17 am
     2    1   18 1 
     3    1   21 1 
     4    2   19 1 
     5    2   20 1 
     6    2   22 am
     7    3    4 ar
     8    3   12 ar
     9    4    5 ar
    10    4   55 1 
    11    5    6 ar
    12    5   29 2 
    13    6    7 ar
    14    6   11 ar
    15    7    8 ar
    16    7   33 1 
    17    8    9 ar
    18    8   34 1 
    19    9   10 ar
    20    9   35 1 
    21   10   11 ar
    22   10   36 1 
    23   11   12 ar
    24   12   13 1 
    25   13   14 1 
    26   13   37 1 
    27   13   38 1 
    28   14   15 ar
    29   14   28 ar
    30   15   16 ar
    31   15   39 1 
    32   16   17 1 
    33   16   26 ar
    34   17   31 2 
    35   18   19 1 
    36   18   40 1 
    37   18   41 1 
    38   19   42 1 
    39   19   43 1 
    40   20   21 1 
    41   20   44 1 
    42   20   45 1 
    43   21   46 1 
    44   21   47 1 
    45   22   23 1 
    46   22   30 2 
    47   23   24 1 
    48   23   25 1 
    49   23   48 1 
    50   24   25 1 
    51   24   49 1 
    52   24   50 1 
    53   25   51 1 
    54   25   52 1 
    55   26   27 ar
    56   26   32 1 
    57   27   28 ar
    58   27   53 1 
    59   28   54 1 
@<TRIPOS>SUBSTRUCTURE
1 MOL         1
@<TRIPOS>MOLECULE
query molecule
   55    59     1     0     0
SMALL
NO_CHARGE

@<TRIPOS>ATOM
      1 N          25.3872    2.6989   15.4502 N.am      1 MOL    -0.2945
      2 N          25.1551    4.6731   13.3909 N.am      1 MOL    -0.2983
      3 N          19.1382    1.5678   18.2560 N.ar      1 MOL    -0.1750
      4 N          17.9353    2.1187   18.4149 N.ar      1 MOL    -0.2425
      5 C          17.6320    2.8255   19.5965 C.ar      1 MOL     0.2725
      6 C          18.6205    2.9492   20.5860 C.ar      1 MOL     0.0496
      7 C          18.3516    3.6677   21.7491 C.ar      1 MOL     0.0138
      8 C          19.3276    3.7995   22.7276 C.ar      1 MOL     0.0008
      9 C          20.5755    3.2069   22.5530 C.ar      1 MOL     0.0007
     10 C          20.8505    2.4913   21.3897 C.ar      1 MOL     0.0103
     11 C          19.8844    2.3469   20.3775 C.ar      1 MOL     0.0106
     12 C          20.1320    1.6180   19.1857 C.ar      1 MOL     0.0736
     13 C          21.4218    0.9257   19.0677 C.3       1 MOL     0.0925
     14 C          22.0335    0.6481   17.7839 C.ar      1 MOL    -0.0406
     15 C          23.3131    1.1811   17.5658 C.ar      1 MOL     0.0196
     16 C          24.0112    0.9147   16.3795 C.ar      1 MOL     0.0723
     17 C          25.3419    1.5537   16.1783 C.2       1 MOL     0.2495
     18 C          26.6152    3.2957   14.9347 C.3       1 MOL     0.1268
     19 C          26.4120    3.9585   13.5160 C.3       1 MOL     0.1265
     20 C          23.9644    4.0452   13.9675 C.3       1 MOL     0.1265
     21 C          24.2339    3.5949   15.4186 C.3       1 MOL     0.1268
     22 C          24.9307    5.8483   12.7463 C.2       1 MOL     0.2187
     23 C          26.0154    6.4656   11.9461 C.3       1 MOL     0.0752
     24 C          25.4523    7.2965   10.8324 C.3       1 MOL     0.0134
     25 C          26.0512    5.9504   10.5493 C.3       1 MOL     0.0134
     26 C          23.4267    0.0933   15.4179 C.ar      1 MOL     0.1355
     27 C          22.1546   -0.4500   15.6298 C.ar      1 MOL     0.0392
     28 C          21.4564   -0.1655   16.8114 C.ar      1 MOL     0.0066
     29 O          16.5053    3.3295   19.7074 O.2       1 MOL    -0.2658
     30 O          23.8344    6.4350   12.8313 O.2       1 MOL    -0.2753
     31 O          26.3263    0.9642   16.6301 O.2       1 MOL    -0.2699
     32 F          24.0675   -0.1814   14.2575 F         1 MOL    -0.2047
     33 H          17.3801    4.1237   21.8878 H         1 MOL     0.0625
     34 H          19.1157    4.3631   23.6234 H         1 MOL     0.0618
     35 H          21.3286    3.3062   23.3198 H         1 MOL     0.0618
     36 H          21.8247    2.0386   21.2634 H         1 MOL     0.0624
     37 H          21.3004   -0.0629   19.5757 H         1 MOL     0.0377
     38 H          22.1622    1.5198   19.6499 H         1 MOL     0.0377
     39 H          23.7678    1.8123   18.3168 H         1 MOL     0.0629
     40 H          27.4237    2.5314   14.9190 H         1 MOL     0.0480
     41 H          26.9253    4.0984   15.6503 H         1 MOL     0.0480
     42 H          26.3985    3.1286   12.7596 H         1 MOL     0.0480
     43 H          27.2565    4.6320   13.2541 H         1 MOL     0.0480
     44 H          23.6962    3.1603   13.3438 H         1 MOL     0.0480
     45 H          23.1192    4.7693   13.9271 H         1 MOL     0.0480
     46 H          23.3509    3.0656   15.8412 H         1 MOL     0.0480
     47 H          24.4539    4.4784   16.0631 H         1 MOL     0.0480
     48 H          26.8825    6.7716   12.4675 H         1 MOL     0.0394
     49 H          26.0060    8.1723   10.5216 H         1 MOL     0.0273
     50 H          24.3690    7.3602   10.7874 H         1 MOL     0.0273
     51 H          26.9907    5.9927   10.0078 H         1 MOL     0.0273
     52 H          25.3626    5.1557   10.2912 H         1 MOL     0.0273
     53 H          21.7076   -1.0872   14.8805 H         1 MOL     0.0646
     54 H          20.4732   -0.5823   16.9713 H         1 MOL     0.0621
     55 H          17.1876    2.0638   17.7400 H         1 MOL     0.1921
@<TRIPOS>BOND
     1    1   17 am
     2    1   18 1 
     3    1   21 1 
     4    2   19 1 
     5    2   20 1 
     6    2   22 am
     7    3    4 ar
     8    3   12 ar
     9    4    5 ar
    10    4   55 1 
    11    5    6 ar
    12    5   29 2 
    13    6    7 ar
    14    6   11 ar
    15    7    8 ar
    16    7   33 1 
    17    8    9 ar
    18    8   34 1 
    19    9   10 ar
    20    9   35 1 
    21   10   11 ar
    22   10   36 1 
    23   11   12 ar
    24   12   13 1 
    25   13   14 1 
    26   13   37 1 
    27   13   38 1 
    28   14   15 ar
    29   14   28 ar
    30   15   16 ar
    31   15   39 1 
    32   16   17 1 
    33   16   26 ar
    34   17   31 2 
    35   18   19 1 
    36   18   40 1 
    37   18   41 1 
    38   19   42 1 
    39   19   43 1 
    40   20   21 1 
    41   20   44 1 
    42   20   45 1 
    43   21   46 1 
    44   21   47 1 
    45   22   23 1 
    46   22   30 2 
    47   23   24 1 
    48   23   25 1 
    49   23   48 1 
    50   24   25 1 
    51   24   49 1 
    52   24   50 1 
    53   25   51 1 
    54   25   52 1 
    55   26   27 ar
    56   26   32 1 
    57   27   28 ar
    58   27   53 1 
    59   28   54 1 
@<TRIPOS>SUBSTRUCTURE
1 MOL         1
@<TRIPOS>MOLECULE
query molecule
   55    59     1     0     0
SMALL
NO_CHARGE

@<TRIPOS>ATOM
      1 N          22.5196   -1.7589   15.4904 N.am      1 MOL    -0.2945
      2 N          24.3837    0.2964   15.8415 N.am      1 MOL    -0.2983
      3 N          20.9914    2.3633   18.3071 N.ar      1 MOL    -0.1750
      4 N          21.8550    3.0069   19.0925 N.ar      1 MOL    -0.2425
      5 C          21.4723    3.3961   20.3971 C.ar      1 MOL     0.2725
      6 C          20.1662    3.0923   20.8327 C.ar      1 MOL     0.0496
      7 C          19.7307    3.4646   22.1026 C.ar      1 MOL     0.0138
      8 C          18.4331    3.1647   22.4981 C.ar      1 MOL     0.0008
      9 C          17.5599    2.4769   21.6634 C.ar      1 MOL     0.0007
     10 C          17.9822    2.1040   20.3936 C.ar      1 MOL     0.0103
     11 C          19.2820    2.4016   19.9576 C.ar      1 MOL     0.0106
     12 C          19.7213    2.0349   18.6776 C.ar      1 MOL     0.0736
     13 C          18.8155    1.3198   17.7274 C.3       1 MOL     0.0925
     14 C          19.1855   -0.1099   17.6201 C.ar      1 MOL    -0.0406
     15 C          19.9760   -0.5393   16.5565 C.ar      1 MOL     0.0196
     16 C          20.3339   -1.8902   16.4502 C.ar      1 MOL     0.0723
     17 C          21.2696   -2.2604   15.3664 C.2       1 MOL     0.2495
     18 C          23.2917   -1.3658   14.3248 C.3       1 MOL     0.1268
     19 C          23.7945    0.1009   14.5207 C.3       1 MOL     0.1265
     20 C          23.7115   -0.2498   17.0186 C.3       1 MOL     0.1265
     21 C          23.1952   -1.6853   16.7819 C.3       1 MOL     0.1268
     22 C          25.5063    1.0309   16.0800 C.2       1 MOL     0.2187
     23 C          25.9518    1.9706   15.0203 C.3       1 MOL     0.0752
     24 C          27.0291    2.8905   15.4634 C.3       1 MOL     0.0134
     25 C          25.6073    3.3732   15.4120 C.3       1 MOL     0.0134
     26 C          19.8668   -2.8208   17.3647 C.ar      1 MOL     0.1355
     27 C          19.0719   -2.4011   18.4268 C.ar      1 MOL     0.0392
     28 C          18.7544   -1.0461   18.5597 C.ar      1 MOL     0.0066
     29 O          22.3151    3.9859   21.0951 O.2       1 MOL    -0.2658
     30 O          26.1457    0.9369   17.1403 O.2       1 MOL    -0.2753
     31 O          20.8457   -2.8327   14.3641 O.2       1 MOL    -0.2699
     32 F          20.1944   -4.1270   17.2477 F         1 MOL    -0.2047
     33 H          20.3975    3.9840   22.7742 H         1 MOL     0.0625
     34 H          18.1015    3.4622   23.4848 H         1 MOL     0.0618
     35 H          16.5631    2.2385   22.0005 H         1 MOL     0.0618
     36 H          17.3025    1.5789   19.7378 H         1 MOL     0.0624
     37 H          18.9015    1.7893   16.7321 H         1 MOL     0.0377
     38 H          17.7796    1.3935   18.1046 H         1 MOL     0.0377
     39 H          20.3209    0.1733   15.8218 H         1 MOL     0.0629
     40 H          22.6778   -1.4923   13.4080 H         1 MOL     0.0480
     41 H          24.1661   -2.0604   14.2506 H         1 MOL     0.0480
     42 H          22.9250    0.7908   14.4133 H         1 MOL     0.0480
     43 H          24.5427    0.3640   13.7387 H         1 MOL     0.0480
     44 H          22.8310    0.4034   17.2393 H         1 MOL     0.0480
     45 H          24.4002   -0.2040   17.8908 H         1 MOL     0.0480
     46 H          22.4869   -1.9881   17.5871 H         1 MOL     0.0480
     47 H          24.0431   -2.4103   16.7798 H         1 MOL     0.0480
     48 H          25.8289    1.6510   14.0201 H         1 MOL     0.0394
     49 H          27.6926    3.2782   14.7010 H         1 MOL     0.0273
     50 H          27.4501    2.6949   16.4430 H         1 MOL     0.0273
     51 H          25.3835    4.0899   14.6315 H         1 MOL     0.0273
     52 H          25.1215    3.5195   16.3700 H         1 MOL     0.0273
     53 H          18.7102   -3.1151   19.1509 H         1 MOL     0.0646
     54 H          18.1484   -0.7196   19.3955 H         1 MOL     0.0621
     55 H          22.6299    3.5317   18.7059 H         1 MOL     0.1921
@<TRIPOS>BOND
     1    1   17 am
     2    1   18 1 
     3    1   21 1 
     4    2   19 1 
     5    2   20 1 
     6    2   22 am
     7    3    4 ar
     8    3   12 ar
     9    4    5 ar
    10    4   55 1 
    11    5    6 ar
    12    5   29 2 
    13    6    7 ar
    14    6   11 ar
    15    7    8 ar
    16    7   33 1 
    17    8    9 ar
    18    8   34 1 
    19    9   10 ar
    20    9   35 1 
    21   10   11 ar
    22   10   36 1 
    23   11   12 ar
    24   12   13 1 
    25   13   14 1 
    26   13   37 1 
    27   13   38 1 
    28   14   15 ar
    29   14   28 ar
    30   15   16 ar
    31   15   39 1 
    32   16   17 1 
    33   16   26 ar
    34   17   31 2 
    35   18   19 1 
    36   18   40 1 
    37   18   41 1 
    38   19   42 1 
    39   19   43 1 
    40   20   21 1 
    41   20   44 1 
    42   20   45 1 
    43   21   46 1 
    44   21   47 1 
    45   22   23 1 
    46   22   30 2 
    47   23   24 1 
    48   23   25 1 
    49   23   48 1 
    50   24   25 1 
    51   24   49 1 
    52   24   50 1 
    53   25   51 1 
    54   25   52 1 
    55   26   27 ar
    56   26   32 1 
    57   27   28 ar
    58   27   53 1 
    59   28   54 1 
@<TRIPOS>SUBSTRUCTURE
1 MOL         1
@<TRIPOS>MOLECULE
query molecule
   55    59     1     0     0
SMALL
NO_CHARGE

@<TRIPOS>ATOM
      1 N          16.1902   13.0195    9.9138 N.am      1 MOL    -0.2945
      2 N          16.2904   12.9440   12.7637 N.am      1 MOL    -0.2983
      3 N          12.7910    8.9302    5.5909 N.ar      1 MOL    -0.1750
      4 N          11.6442    9.2761    5.0198 N.ar      1 MOL    -0.2425
      5 C          10.4301    9.1806    5.7326 C.ar      1 MOL     0.2725
      6 C          10.4608    8.6713    7.0526 C.ar      1 MOL     0.0496
      7 C           9.2925    8.5420    7.8071 C.ar      1 MOL     0.0138
      8 C           9.3314    7.9998    9.0882 C.ar      1 MOL     0.0008
      9 C          10.5389    7.5499    9.6226 C.ar      1 MOL     0.0007
     10 C          11.7147    7.6815    8.8848 C.ar      1 MOL     0.0103
     11 C          11.7092    8.2709    7.6097 C.ar      1 MOL     0.0106
     12 C          12.8897    8.4765    6.8727 C.ar      1 MOL     0.0736
     13 C          14.2314    8.1997    7.4612 C.3       1 MOL     0.0925
     14 C          15.1685    9.3478    7.3343 C.ar      1 MOL    -0.0406
     15 C          14.9919   10.5412    8.0509 C.ar      1 MOL     0.0196
     16 C          15.8913   11.6065    7.9189 C.ar      1 MOL     0.0723
     17 C          15.6950   12.8726    8.6656 C.2       1 MOL     0.2495
     18 C          16.1333   14.2980   10.6191 C.3       1 MOL     0.1268
     19 C          15.7507   14.1243   12.1233 C.3       1 MOL     0.1265
     20 C          16.7117   11.7937   11.9671 C.3       1 MOL     0.1265
     21 C          17.1368   12.1077   10.5187 C.3       1 MOL     0.1268
     22 C          16.3622   12.7378   14.1063 C.2       1 MOL     0.2187
     23 C          15.6331   13.5833   15.0542 C.3       1 MOL     0.0752
     24 C          14.6800   12.6394   15.7457 C.3       1 MOL     0.0134
     25 C          14.1759   13.7593   14.9095 C.3       1 MOL     0.0134
     26 C          16.9759   11.4649    7.0475 C.ar      1 MOL     0.1355
     27 C          17.1678   10.2830    6.3277 C.ar      1 MOL     0.0392
     28 C          16.2673    9.2237    6.4723 C.ar      1 MOL     0.0066
     29 O           9.3897    9.5272    5.1514 O.2       1 MOL    -0.2658
     30 O          17.0618   11.8293   14.5931 O.2       1 MOL    -0.2753
     31 O          15.0546   13.7539    8.0810 O.2       1 MOL    -0.2699
     32 F          17.8578   12.4825    6.8926 F         1 MOL    -0.2047
     33 H           8.3517    8.8680    7.3901 H         1 MOL     0.0625
     34 H           8.4203    7.9179    9.6664 H         1 MOL     0.0618
     35 H          10.5617    7.1030   10.6046 H         1 MOL     0.0618
     36 H          12.6457    7.3259    9.2994 H         1 MOL     0.0624
     37 H          14.6670    7.3252    6.9441 H         1 MOL     0.0377
     38 H          14.0971    7.9760    8.5393 H         1 MOL     0.0377
     39 H          14.1434   10.6372    8.7147 H         1 MOL     0.0629
     40 H          15.4243   14.9773   10.0972 H         1 MOL     0.0480
     41 H          17.1534   14.7583   10.5520 H         1 MOL     0.0480
     42 H          14.6319   14.0248   12.1462 H         1 MOL     0.0480
     43 H          16.0079   15.0259   12.7226 H         1 MOL     0.0480
     44 H          15.8303   11.1035   11.9016 H         1 MOL     0.0480
     45 H          17.5165   11.2499   12.5149 H         1 MOL     0.0480
     46 H          17.1958   11.1755    9.9145 H         1 MOL     0.0480
     47 H          18.1416   12.5920   10.5115 H         1 MOL     0.0480
     48 H          16.2428   14.2172   15.6536 H         1 MOL     0.0394
     49 H          14.6062   12.7381   16.8216 H         1 MOL     0.0273
     50 H          14.5383   11.6563   15.3193 H         1 MOL     0.0273
     51 H          13.7348   14.5774   15.4790 H         1 MOL     0.0273
     52 H          13.7150   13.5214   13.9631 H         1 MOL     0.0273
     53 H          18.0105   10.1895    5.6587 H         1 MOL     0.0646
     54 H          16.4172    8.3102    5.9150 H         1 MOL     0.0621
     55 H          11.5901    9.5826    4.0647 H         1 MOL     0.1921
@<TRIPOS>BOND
     1    1   17 am
     2    1   18 1 
     3    1   21 1 
     4    2   19 1 
     5    2   20 1 
     6    2   22 am
     7    3    4 ar
     8    3   12 ar
     9    4    5 ar
    10    4   55 1 
    11    5    6 ar
    12    5   29 2 
    13    6    7 ar
    14    6   11 ar
    15    7    8 ar
    16    7   33 1 
    17    8    9 ar
    18    8   34 1 
    19    9   10 ar
    20    9   35 1 
    21   10   11 ar
    22   10   36 1 
    23   11   12 ar
    24   12   13 1 
    25   13   14 1 
    26   13   37 1 
    27   13   38 1 
    28   14   15 ar
    29   14   28 ar
    30   15   16 ar
    31   15   39 1 
    32   16   17 1 
    33   16   26 ar
    34   17   31 2 
    35   18   19 1 
    36   18   40 1 
    37   18   41 1 
    38   19   42 1 
    39   19   43 1 
    40   20   21 1 
    41   20   44 1 
    42   20   45 1 
    43   21   46 1 
    44   21   47 1 
    45   22   23 1 
    46   22   30 2 
    47   23   24 1 
    48   23   25 1 
    49   23   48 1 
    50   24   25 1 
    51   24   49 1 
    52   24   50 1 
    53   25   51 1 
    54   25   52 1 
    55   26   27 ar
    56   26   32 1 
    57   27   28 ar
    58   27   53 1 
    59   28   54 1 
@<TRIPOS>SUBSTRUCTURE
1 MOL         1
@<TRIPOS>MOLECULE
query molecule
   55    59     1     0     0
SMALL
NO_CHARGE

@<TRIPOS>ATOM
      1 N          16.4718   -6.8025   12.3939 N.am      1 MOL    -0.2945
      2 N          17.5177   -5.7987   14.8526 N.am      1 MOL    -0.2983
      3 N          16.2897  -10.5416    6.8394 N.ar      1 MOL    -0.1750
      4 N          17.2663  -10.6901    5.9588 N.ar      1 MOL    -0.2425
      5 C          17.8272  -11.9428    5.6541 C.ar      1 MOL     0.2725
      6 C          17.3110  -13.0695    6.3212 C.ar      1 MOL     0.0496
      7 C          17.7996  -14.3501    6.0493 C.ar      1 MOL     0.0138
      8 C          17.2802  -15.4580    6.7202 C.ar      1 MOL     0.0008
      9 C          16.2670  -15.2892    7.6675 C.ar      1 MOL     0.0007
     10 C          15.7647  -14.0148    7.9454 C.ar      1 MOL     0.0103
     11 C          16.2706  -12.8837    7.2829 C.ar      1 MOL     0.0106
     12 C          15.7763  -11.5916    7.5380 C.ar      1 MOL     0.0736
     13 C          14.6960  -11.3290    8.5332 C.3       1 MOL     0.0925
     14 C          15.2237  -10.7693    9.8035 C.ar      1 MOL    -0.0406
     15 C          15.4059   -9.3914    9.9603 C.ar      1 MOL     0.0196
     16 C          15.8311   -8.8426   11.1907 C.ar      1 MOL     0.0723
     17 C          15.9128   -7.3596   11.2882 C.2       1 MOL     0.2495
     18 C          15.9123   -5.5607   12.9229 C.3       1 MOL     0.1268
     19 C          16.1528   -5.4683   14.4621 C.3       1 MOL     0.1265
     20 C          18.2134   -6.8797   14.1527 C.3       1 MOL     0.1265
     21 C          17.9055   -6.9467   12.6327 C.3       1 MOL     0.1268
     22 C          18.1659   -5.2238   15.9111 C.2       1 MOL     0.2187
     23 C          17.3953   -4.3203   16.8043 C.3       1 MOL     0.0752
     24 C          17.9854   -4.1509   18.1591 C.3       1 MOL     0.0134
     25 C          16.8379   -5.0942   17.9557 C.3       1 MOL     0.0134
     26 C          16.1047   -9.7200   12.2397 C.ar      1 MOL     0.1355
     27 C          15.9575  -11.1027   12.0826 C.ar      1 MOL     0.0392
     28 C          15.5096  -11.6277   10.8703 C.ar      1 MOL     0.0066
     29 O          18.7532  -11.9775    4.8323 O.2       1 MOL    -0.2658
     30 O          19.3666   -5.4341   16.1478 O.2       1 MOL    -0.2753
     31 O          15.3430   -6.6884   10.4166 O.2       1 MOL    -0.2699
     32 F          16.4976   -9.2776   13.4550 F         1 MOL    -0.2047
     33 H          18.5750  -14.4813    5.3098 H         1 MOL     0.0625
     34 H          17.6564  -16.4475    6.4996 H         1 MOL     0.0618
     35 H          15.8657  -16.1514    8.1813 H         1 MOL     0.0618
     36 H          14.9741  -13.9027    8.6769 H         1 MOL     0.0624
     37 H          14.1816  -12.2817    8.7582 H         1 MOL     0.0377
     38 H          13.9884  -10.5997    8.0992 H         1 MOL     0.0377
     39 H          15.2038   -8.7313    9.1273 H         1 MOL     0.0629
     40 H          14.8252   -5.5185   12.6852 H         1 MOL     0.0480
     41 H          16.4103   -4.7095   12.3993 H         1 MOL     0.0480
     42 H          15.4680   -6.1954   14.9629 H         1 MOL     0.0480
     43 H          15.9014   -4.4493   14.8380 H         1 MOL     0.0480
     44 H          17.8668   -7.8443   14.6035 H         1 MOL     0.0480
     45 H          19.3085   -6.7943   14.3399 H         1 MOL     0.0480
     46 H          18.2563   -7.9122   12.2027 H         1 MOL     0.0480
     47 H          18.4308   -6.1205   12.0960 H         1 MOL     0.0480
     48 H          16.8165   -3.5731   16.3266 H         1 MOL     0.0394
     49 H          17.7546   -3.2316   18.6854 H         1 MOL     0.0273
     50 H          18.9559   -4.5977   18.3347 H         1 MOL     0.0273
     51 H          15.8767   -4.7856   18.3481 H         1 MOL     0.0273
     52 H          17.0800   -6.1496   18.0158 H         1 MOL     0.0273
     53 H          16.1760  -11.7639   12.9089 H         1 MOL     0.0646
     54 H          15.3743  -12.6944   10.7628 H         1 MOL     0.0621
     55 H          17.5839   -9.9148    5.4070 H         1 MOL     0.1921
@<TRIPOS>BOND
     1    1   17 am
     2    1   18 1 
     3    1   21 1 
     4    2   19 1 
     5    2   20 1 
     6    2   22 am
     7    3    4 ar
     8    3   12 ar
     9    4    5 ar
    10    4   55 1 
    11    5    6 ar
    12    5   29 2 
    13    6    7 ar
    14    6   11 ar
    15    7    8 ar
    16    7   33 1 
    17    8    9 ar
    18    8   34 1 
    19    9   10 ar
    20    9   35 1 
    21   10   11 ar
    22   10   36 1 
    23   11   12 ar
    24   12   13 1 
    25   13   14 1 
    26   13   37 1 
    27   13   38 1 
    28   14   15 ar
    29   14   28 ar
    30   15   16 ar
    31   15   39 1 
    32   16   17 1 
    33   16   26 ar
    34   17   31 2 
    35   18   19 1 
    36   18   40 1 
    37   18   41 1 
    38   19   42 1 
    39   19   43 1 
    40   20   21 1 
    41   20   44 1 
    42   20   45 1 
    43   21   46 1 
    44   21   47 1 
    45   22   23 1 
    46   22   30 2 
    47   23   24 1 
    48   23   25 1 
    49   23   48 1 
    50   24   25 1 
    51   24   49 1 
    52   24   50 1 
    53   25   51 1 
    54   25   52 1 
    55   26   27 ar
    56   26   32 1 
    57   27   28 ar
    58   27   53 1 
    59   28   54 1 
@<TRIPOS>SUBSTRUCTURE
1 MOL         1
@<TRIPOS>MOLECULE
query molecule
   55    59     1     0     0
SMALL
NO_CHARGE

@<TRIPOS>ATOM
      1 N          14.1455    8.6971    6.5781 N.am      1 MOL    -0.2945
      2 N          11.8987    7.9964    8.2132 N.am      1 MOL    -0.2983
      3 N          20.7471    7.3287    8.7802 N.ar      1 MOL    -0.1750
      4 N          21.5756    6.4418    9.3248 N.ar      1 MOL    -0.2425
      5 C          22.7880    6.8105    9.9469 C.ar      1 MOL     0.2725
      6 C          23.1237    8.1736    9.9704 C.ar      1 MOL     0.0496
      7 C          24.3217    8.5916   10.5554 C.ar      1 MOL     0.0138
      8 C          24.6431    9.9468   10.5809 C.ar      1 MOL     0.0008
      9 C          23.7642   10.8779   10.0257 C.ar      1 MOL     0.0007
     10 C          22.5677   10.4622    9.4378 C.ar      1 MOL     0.0103
     11 C          22.2150    9.1046    9.3897 C.ar      1 MOL     0.0106
     12 C          21.0073    8.6653    8.7950 C.ar      1 MOL     0.0736
     13 C          20.0271    9.6356    8.2261 C.3       1 MOL     0.0925
     14 C          18.9888    9.0970    7.3149 C.ar      1 MOL    -0.0406
     15 C          17.6416    9.3957    7.5800 C.ar      1 MOL     0.0196
     16 C          16.5999    8.9659    6.7277 C.ar      1 MOL     0.0723
     17 C          15.2145    9.3842    7.0611 C.2       1 MOL     0.2495
     18 C          12.8818    9.3855    6.3304 C.3       1 MOL     0.1268
     19 C          11.9330    9.2913    7.5522 C.3       1 MOL     0.1265
     20 C          13.1216    7.1962    8.2445 C.3       1 MOL     0.1265
     21 C          13.9330    7.3022    6.9252 C.3       1 MOL     0.1268
     22 C          10.8397    7.5042    8.9200 C.2       1 MOL     0.2187
     23 C           9.5737    8.2741    8.9745 C.3       1 MOL     0.0752
     24 C           9.7097    9.6116    9.6118 C.3       1 MOL     0.0134
     25 C           9.1200    8.4837   10.3834 C.3       1 MOL     0.0134
     26 C          16.9435    8.2049    5.6126 C.ar      1 MOL     0.1355
     27 C          18.2799    7.9005    5.3334 C.ar      1 MOL     0.0392
     28 C          19.2979    8.3424    6.1809 C.ar      1 MOL     0.0066
     29 O          23.4949    5.9175   10.4407 O.2       1 MOL    -0.2658
     30 O          10.8788    6.3992    9.4916 O.2       1 MOL    -0.2753
     31 O          15.0898   10.4365    7.7054 O.2       1 MOL    -0.2699
     32 F          15.9985    7.7403    4.7620 F         1 MOL    -0.2047
     33 H          24.9983    7.8696   10.9867 H         1 MOL     0.0625
     34 H          25.5712   10.2765   11.0250 H         1 MOL     0.0618
     35 H          24.0123   11.9278   10.0502 H         1 MOL     0.0618
     36 H          21.9014   11.1956    9.0072 H         1 MOL     0.0624
     37 H          20.6005   10.4088    7.6768 H         1 MOL     0.0377
     38 H          19.5028   10.1077    9.0849 H         1 MOL     0.0377
     39 H          17.4000    9.9789    8.4606 H         1 MOL     0.0629
     40 H          12.4000    8.9025    5.4456 H         1 MOL     0.0480
     41 H          13.0864   10.4494    6.0742 H         1 MOL     0.0480
     42 H          10.8959    9.6068    7.3007 H         1 MOL     0.0480
     43 H          12.3291   10.0180    8.3101 H         1 MOL     0.0480
     44 H          12.8649    6.1411    8.4917 H         1 MOL     0.0480
     45 H          13.7555    7.5884    9.0798 H         1 MOL     0.0480
     46 H          13.3925    6.8010    6.0907 H         1 MOL     0.0480
     47 H          14.9227    6.8024    7.0525 H         1 MOL     0.0480
     48 H           8.8782    8.0876    8.1959 H         1 MOL     0.0394
     49 H           9.0304   10.3784    9.2542 H         1 MOL     0.0273
     50 H          10.7181    9.9197    9.8565 H         1 MOL     0.0273
     51 H           8.0508    8.5388   10.5530 H         1 MOL     0.0273
     52 H           9.7342    8.0738   11.1739 H         1 MOL     0.0273
     53 H          18.5241    7.3230    4.4538 H         1 MOL     0.0646
     54 H          20.3273    8.1029    5.9568 H         1 MOL     0.0621
     55 H          21.3678    5.4639    9.3165 H         1 MOL     0.1921
@<TRIPOS>BOND
     1    1   17 am
     2    1   18 1 
     3    1   21 1 
     4    2   19 1 
     5    2   20 1 
     6    2   22 am
     7    3    4 ar
     8    3   12 ar
     9    4    5 ar
    10    4   55 1 
    11    5    6 ar
    12    5   29 2 
    13    6    7 ar
    14    6   11 ar
    15    7    8 ar
    16    7   33 1 
    17    8    9 ar
    18    8   34 1 
    19    9   10 ar
    20    9   35 1 
    21   10   11 ar
    22   10   36 1 
    23   11   12 ar
    24   12   13 1 
    25   13   14 1 
    26   13   37 1 
    27   13   38 1 
    28   14   15 ar
    29   14   28 ar
    30   15   16 ar
    31   15   39 1 
    32   16   17 1 
    33   16   26 ar
    34   17   31 2 
    35   18   19 1 
    36   18   40 1 
    37   18   41 1 
    38   19   42 1 
    39   19   43 1 
    40   20   21 1 
    41   20   44 1 
    42   20   45 1 
    43   21   46 1 
    44   21   47 1 
    45   22   23 1 
    46   22   30 2 
    47   23   24 1 
    48   23   25 1 
    49   23   48 1 
    50   24   25 1 
    51   24   49 1 
    52   24   50 1 
    53   25   51 1 
    54   25   52 1 
    55   26   27 ar
    56   26   32 1 
    57   27   28 ar
    58   27   53 1 
    59   28   54 1 
@<TRIPOS>SUBSTRUCTURE
1 MOL         1
@<TRIPOS>MOLECULE
query molecule
   55    59     1     0     0
SMALL
NO_CHARGE

@<TRIPOS>ATOM
      1 N          16.4008  -11.4267   11.9615 N.am      1 MOL    -0.2945
      2 N          18.3340  -13.2082   13.1294 N.am      1 MOL    -0.2983
      3 N          17.5912  -11.7575    5.3116 N.ar      1 MOL    -0.1750
      4 N          18.4863  -12.6858    4.9963 N.ar      1 MOL    -0.2425
      5 C          18.3874  -13.9930    5.5142 C.ar      1 MOL     0.2725
      6 C          17.3027  -14.2957    6.3592 C.ar      1 MOL     0.0496
      7 C          17.1777  -15.5736    6.9214 C.ar      1 MOL     0.0138
      8 C          16.0898  -15.8766    7.7410 C.ar      1 MOL     0.0008
      9 C          15.1218  -14.9040    7.9857 C.ar      1 MOL     0.0007
     10 C          15.2464  -13.6380    7.4217 C.ar      1 MOL     0.0103
     11 C          16.3436  -13.2782    6.6305 C.ar      1 MOL     0.0106
     12 C          16.5194  -11.9776    6.1246 C.ar      1 MOL     0.0736
     13 C          15.6108  -10.8154    6.3779 C.3       1 MOL     0.0925
     14 C          15.9499  -10.0539    7.6083 C.ar      1 MOL    -0.0406
     15 C          15.5534  -10.5754    8.8387 C.ar      1 MOL     0.0196
     16 C          15.8808   -9.9704   10.0507 C.ar      1 MOL     0.0723
     17 C          15.4679  -10.7473   11.2415 C.2       1 MOL     0.2495
     18 C          15.9572  -12.4155   12.9491 C.3       1 MOL     0.1268
     19 C          16.9408  -13.6198   13.0756 C.3       1 MOL     0.1265
     20 C          18.7513  -12.1524   12.2104 C.3       1 MOL     0.1265
     21 C          17.7605  -10.9597   12.1493 C.3       1 MOL     0.1268
     22 C          19.2978  -13.8219   13.8704 C.2       1 MOL     0.2187
     23 C          18.9757  -15.0906   14.5617 C.3       1 MOL     0.0752
     24 C          18.3150  -14.9078   15.8794 C.3       1 MOL     0.0134
     25 C          19.7725  -15.2615   15.8128 C.3       1 MOL     0.0134
     26 C          16.5370   -8.7519   10.0305 C.ar      1 MOL     0.1355
     27 C          16.9204   -8.1792    8.8060 C.ar      1 MOL     0.0392
     28 C          16.6418   -8.8405    7.5943 C.ar      1 MOL     0.0066
     29 O          19.2584  -14.8203    5.2071 O.2       1 MOL    -0.2658
     30 O          20.4668  -13.4042   13.9144 O.2       1 MOL    -0.2753
     31 O          14.2547  -10.8791   11.4099 O.2       1 MOL    -0.2699
     32 F          16.8135   -8.1092   11.1899 F         1 MOL    -0.2047
     33 H          17.9278  -16.3260    6.7217 H         1 MOL     0.0625
     34 H          15.9925  -16.8576    8.1832 H         1 MOL     0.0618
     35 H          14.2754  -15.1217    8.6194 H         1 MOL     0.0618
     36 H          14.4835  -12.8938    7.6244 H         1 MOL     0.0624
     37 H          14.5734  -11.1932    6.4701 H         1 MOL     0.0377
     38 H          15.6855  -10.1256    5.5133 H         1 MOL     0.0377
     39 H          14.9925  -11.5042    8.8547 H         1 MOL     0.0629
     40 H          14.9333  -12.7724   12.6882 H         1 MOL     0.0480
     41 H          15.8905  -11.9005   13.9394 H         1 MOL     0.0480
     42 H          16.8145  -14.2786   12.1814 H         1 MOL     0.0480
     43 H          16.7058  -14.2326   13.9774 H         1 MOL     0.0480
     44 H          18.8277  -12.6044   11.1904 H         1 MOL     0.0480
     45 H          19.7688  -11.7981   12.5072 H         1 MOL     0.0480
     46 H          18.0194  -10.2550   11.3298 H         1 MOL     0.0480
     47 H          17.7935  -10.3999   13.1140 H         1 MOL     0.0480
     48 H          18.7742  -15.9198   13.9315 H         1 MOL     0.0394
     49 H          17.6562  -15.7062   16.2056 H         1 MOL     0.0273
     50 H          18.0674  -13.8998   16.1799 H         1 MOL     0.0273
     51 H          20.0465  -16.2749   16.0824 H         1 MOL     0.0273
     52 H          20.4715  -14.4751   16.0694 H         1 MOL     0.0273
     53 H          17.4404   -7.2316    8.7874 H         1 MOL     0.0646
     54 H          16.9538   -8.4166    6.6505 H         1 MOL     0.0621
     55 H          19.0959  -12.5612    4.2015 H         1 MOL     0.1921
@<TRIPOS>BOND
     1    1   17 am
     2    1   18 1 
     3    1   21 1 
     4    2   19 1 
     5    2   20 1 
     6    2   22 am
     7    3    4 ar
     8    3   12 ar
     9    4    5 ar
    10    4   55 1 
    11    5    6 ar
    12    5   29 2 
    13    6    7 ar
    14    6   11 ar
    15    7    8 ar
    16    7   33 1 
    17    8    9 ar
    18    8   34 1 
    19    9   10 ar
    20    9   35 1 
    21   10   11 ar
    22   10   36 1 
    23   11   12 ar
    24   12   13 1 
    25   13   14 1 
    26   13   37 1 
    27   13   38 1 
    28   14   15 ar
    29   14   28 ar
    30   15   16 ar
    31   15   39 1 
    32   16   17 1 
    33   16   26 ar
    34   17   31 2 
    35   18   19 1 
    36   18   40 1 
    37   18   41 1 
    38   19   42 1 
    39   19   43 1 
    40   20   21 1 
    41   20   44 1 
    42   20   45 1 
    43   21   46 1 
    44   21   47 1 
    45   22   23 1 
    46   22   30 2 
    47   23   24 1 
    48   23   25 1 
    49   23   48 1 
    50   24   25 1 
    51   24   49 1 
    52   24   50 1 
    53   25   51 1 
    54   25   52 1 
    55   26   27 ar
    56   26   32 1 
    57   27   28 ar
    58   27   53 1 
    59   28   54 1 
@<TRIPOS>SUBSTRUCTURE
1 MOL         1
@<TRIPOS>MOLECULE
query molecule
   55    59     1     0     0
SMALL
NO_CHARGE

@<TRIPOS>ATOM
      1 N          12.8951  -13.9753    8.1943 N.am      1 MOL    -0.2945
      2 N          10.2680  -13.5870    7.1314 N.am      1 MOL    -0.2983
      3 N          18.3643   -9.5262    8.6659 N.ar      1 MOL    -0.1750
      4 N          19.0650   -9.1602    9.7355 N.ar      1 MOL    -0.2425
      5 C          18.5143   -8.3268   10.7286 C.ar      1 MOL     0.2725
      6 C          17.1972   -7.8764   10.5546 C.ar      1 MOL     0.0496
      7 C          16.5981   -7.0571   11.5136 C.ar      1 MOL     0.0138
      8 C          15.3122   -6.5682   11.3020 C.ar      1 MOL     0.0008
      9 C          14.6324   -6.9120   10.1373 C.ar      1 MOL     0.0007
     10 C          15.2036   -7.7502    9.1893 C.ar      1 MOL     0.0103
     11 C          16.4941   -8.2530    9.3744 C.ar      1 MOL     0.0106
     12 C          17.0940   -9.0970    8.4296 C.ar      1 MOL     0.0736
     13 C          16.4075   -9.5325    7.1742 C.3       1 MOL     0.0925
     14 C          16.2675  -11.0098    7.1538 C.ar      1 MOL    -0.0406
     15 C          15.2511  -11.6220    7.8982 C.ar      1 MOL     0.0196
     16 C          15.1339  -13.0182    7.9225 C.ar      1 MOL     0.0723
     17 C          14.0697  -13.6229    8.7579 C.2       1 MOL     0.2495
     18 C          11.7527  -14.3821    9.0056 C.3       1 MOL     0.1268
     19 C          10.4630  -13.6151    8.5700 C.3       1 MOL     0.1265
     20 C          11.4509  -13.2796    6.3338 C.3       1 MOL     0.1265
     21 C          12.6906  -14.1063    6.7656 C.3       1 MOL     0.1268
     22 C           9.1001  -13.7428    6.4546 C.2       1 MOL     0.2187
     23 C           7.8268  -13.9238    7.1864 C.3       1 MOL     0.0752
     24 C           6.8924  -12.8039    6.8284 C.3       1 MOL     0.0134
     25 C           7.4829  -12.8964    8.1959 C.3       1 MOL     0.0134
     26 C          16.0284  -13.7908    7.1822 C.ar      1 MOL     0.1355
     27 C          17.0382  -13.1867    6.4256 C.ar      1 MOL     0.0392
     28 C          17.1566  -11.7928    6.4080 C.ar      1 MOL     0.0066
     29 O          19.2370   -8.0226   11.6877 O.2       1 MOL    -0.2658
     30 O           9.0572  -13.7915    5.2083 O.2       1 MOL    -0.2753
     31 O          14.2965  -13.6977    9.9704 O.2       1 MOL    -0.2699
     32 F          15.9271  -15.1417    7.1878 F         1 MOL    -0.2047
     33 H          17.1374   -6.7940   12.4111 H         1 MOL     0.0625
     34 H          14.8505   -5.9246   12.0347 H         1 MOL     0.0618
     35 H          13.6330   -6.5213    9.9712 H         1 MOL     0.0618
     36 H          14.6495   -8.0103    8.2993 H         1 MOL     0.0624
     37 H          17.0144   -9.2189    6.3081 H         1 MOL     0.0377
     38 H          15.4033   -9.0777    7.1406 H         1 MOL     0.0377
     39 H          14.5592  -11.0156    8.4646 H         1 MOL     0.0629
     40 H          11.9848  -14.2153   10.0812 H         1 MOL     0.0480
     41 H          11.5948  -15.4780    8.8544 H         1 MOL     0.0480
     42 H          10.5710  -12.5550    8.9151 H         1 MOL     0.0480
     43 H           9.5562  -14.0350    9.0594 H         1 MOL     0.0480
     44 H          11.6831  -12.1935    6.4613 H         1 MOL     0.0480
     45 H          11.2172  -13.4504    5.2546 H         1 MOL     0.0480
     46 H          13.6070  -13.7703    6.2305 H         1 MOL     0.0480
     47 H          12.5265  -15.1846    6.5304 H         1 MOL     0.0480
     48 H           7.4730  -14.9226    7.2509 H         1 MOL     0.0394
     49 H           5.8364  -13.0272    6.7471 H         1 MOL     0.0273
     50 H           7.2783  -12.0078    6.2015 H         1 MOL     0.0273
     51 H           6.8068  -13.1903    8.9913 H         1 MOL     0.0273
     52 H           8.2642  -12.1838    8.4392 H         1 MOL     0.0273
     53 H          17.7269  -13.7960    5.8593 H         1 MOL     0.0646
     54 H          17.9371  -11.3243    5.8275 H         1 MOL     0.0621
     55 H          20.0719   -9.1056    9.6550 H         1 MOL     0.1921
@<TRIPOS>BOND
     1    1   17 am
     2    1   18 1 
     3    1   21 1 
     4    2   19 1 
     5    2   20 1 
     6    2   22 am
     7    3    4 ar
     8    3   12 ar
     9    4    5 ar
    10    4   55 1 
    11    5    6 ar
    12    5   29 2 
    13    6    7 ar
    14    6   11 ar
    15    7    8 ar
    16    7   33 1 
    17    8    9 ar
    18    8   34 1 
    19    9   10 ar
    20    9   35 1 
    21   10   11 ar
    22   10   36 1 
    23   11   12 ar
    24   12   13 1 
    25   13   14 1 
    26   13   37 1 
    27   13   38 1 
    28   14   15 ar
    29   14   28 ar
    30   15   16 ar
    31   15   39 1 
    32   16   17 1 
    33   16   26 ar
    34   17   31 2 
    35   18   19 1 
    36   18   40 1 
    37   18   41 1 
    38   19   42 1 
    39   19   43 1 
    40   20   21 1 
    41   20   44 1 
    42   20   45 1 
    43   21   46 1 
    44   21   47 1 
    45   22   23 1 
    46   22   30 2 
    47   23   24 1 
    48   23   25 1 
    49   23   48 1 
    50   24   25 1 
    51   24   49 1 
    52   24   50 1 
    53   25   51 1 
    54   25   52 1 
    55   26   27 ar
    56   26   32 1 
    57   27   28 ar
    58   27   53 1 
    59   28   54 1 
@<TRIPOS>SUBSTRUCTURE
1 MOL         1
@<TRIPOS>MOLECULE
query molecule
   55    59     1     0     0
SMALL
NO_CHARGE

@<TRIPOS>ATOM
      1 N          18.3908    8.4678    5.9568 N.am      1 MOL    -0.2945
      2 N          15.5633    8.7475    6.3598 N.am      1 MOL    -0.2983
      3 N          24.3279    8.0889    3.5922 N.ar      1 MOL    -0.1750
      4 N          25.6325    8.1981    3.8352 N.ar      1 MOL    -0.2425
      5 C          26.5752    7.5219    3.0276 C.ar      1 MOL     0.2725
      6 C          26.0970    6.7293    1.9667 C.ar      1 MOL     0.0496
      7 C          26.9894    6.0043    1.1702 C.ar      1 MOL     0.0138
      8 C          26.5106    5.2186    0.1255 C.ar      1 MOL     0.0008
      9 C          25.1441    5.1807   -0.1362 C.ar      1 MOL     0.0007
     10 C          24.2416    5.9042    0.6440 C.ar      1 MOL     0.0103
     11 C          24.6913    6.6706    1.7273 C.ar      1 MOL     0.0106
     12 C          23.7993    7.3565    2.5704 C.ar      1 MOL     0.0736
     13 C          22.3077    7.2997    2.4052 C.3       1 MOL     0.0925
     14 C          21.6473    6.6825    3.5903 C.ar      1 MOL    -0.0406
     15 C          20.8136    7.4518    4.4193 C.ar      1 MOL     0.0196
     16 C          20.2478    6.8984    5.5798 C.ar      1 MOL     0.0723
     17 C          19.3847    7.7088    6.4767 C.2       1 MOL     0.2495
     18 C          17.8949    9.6374    6.6735 C.3       1 MOL     0.1268
     19 C          16.4923    9.3728    7.2935 C.3       1 MOL     0.1265
     20 C          16.0753    7.7152    5.4609 C.3       1 MOL     0.1265
     21 C          17.5071    7.9970    4.9062 C.3       1 MOL     0.1268
     22 C          14.2150    8.9857    6.3712 C.2       1 MOL     0.2187
     23 C          13.6779    9.9134    7.3955 C.3       1 MOL     0.0752
     24 C          12.4356   10.6272    7.0007 C.3       1 MOL     0.0134
     25 C          13.7545   11.3432    6.9775 C.3       1 MOL     0.0134
     26 C          20.5286    5.5621    5.8943 C.ar      1 MOL     0.1355
     27 C          21.3084    4.7738    5.0466 C.ar      1 MOL     0.0392
     28 C          21.8640    5.3322    3.8944 C.ar      1 MOL     0.0066
     29 O          27.7798    7.6637    3.2981 O.2       1 MOL    -0.2658
     30 O          13.4277    8.3957    5.6130 O.2       1 MOL    -0.2753
     31 O          19.6640    7.7145    7.6838 O.2       1 MOL    -0.2699
     32 F          20.0370    5.0134    7.0322 F         1 MOL    -0.2047
     33 H          28.0499    6.0539    1.3678 H         1 MOL     0.0625
     34 H          27.1963    4.6478   -0.4818 H         1 MOL     0.0618
     35 H          24.7741    4.5793   -0.9556 H         1 MOL     0.0618
     36 H          23.1847    5.8615    0.4214 H         1 MOL     0.0624
     37 H          22.0713    6.6983    1.5104 H         1 MOL     0.0377
     38 H          21.9294    8.3326    2.2908 H         1 MOL     0.0377
     39 H          20.6170    8.4855    4.1707 H         1 MOL     0.0629
     40 H          17.7997   10.4718    5.9348 H         1 MOL     0.0480
     41 H          18.6339    9.9443    7.4454 H         1 MOL     0.0480
     42 H          16.0502   10.3260    7.6667 H         1 MOL     0.0480
     43 H          16.6017    8.6859    8.1682 H         1 MOL     0.0480
     44 H          15.3538    7.5693    4.6248 H         1 MOL     0.0480
     45 H          16.1182    6.7643    6.0480 H         1 MOL     0.0480
     46 H          17.4605    8.7829    4.1144 H         1 MOL     0.0480
     47 H          17.9377    7.0771    4.4482 H         1 MOL     0.0480
     48 H          13.8628    9.6285    8.4030 H         1 MOL     0.0394
     49 H          11.7590   10.8973    7.8038 H         1 MOL     0.0273
     50 H          12.0042   10.4001    6.0353 H         1 MOL     0.0273
     51 H          13.9158   12.0746    7.7620 H         1 MOL     0.0273
     52 H          14.1427   11.5711    5.9933 H         1 MOL     0.0273
     53 H          21.4903    3.7366    5.2847 H         1 MOL     0.0646
     54 H          22.4747    4.7267    3.2406 H         1 MOL     0.0621
     55 H          25.9691    8.4758    4.7479 H         1 MOL     0.1921
@<TRIPOS>BOND
     1    1   17 am
     2    1   18 1 
     3    1   21 1 
     4    2   19 1 
     5    2   20 1 
     6    2   22 am
     7    3    4 ar
     8    3   12 ar
     9    4    5 ar
    10    4   55 1 
    11    5    6 ar
    12    5   29 2 
    13    6    7 ar
    14    6   11 ar
    15    7    8 ar
    16    7   33 1 
    17    8    9 ar
    18    8   34 1 
    19    9   10 ar
    20    9   35 1 
    21   10   11 ar
    22   10   36 1 
    23   11   12 ar
    24   12   13 1 
    25   13   14 1 
    26   13   37 1 
    27   13   38 1 
    28   14   15 ar
    29   14   28 ar
    30   15   16 ar
    31   15   39 1 
    32   16   17 1 
    33   16   26 ar
    34   17   31 2 
    35   18   19 1 
    36   18   40 1 
    37   18   41 1 
    38   19   42 1 
    39   19   43 1 
    40   20   21 1 
    41   20   44 1 
    42   20   45 1 
    43   21   46 1 
    44   21   47 1 
    45   22   23 1 
    46   22   30 2 
    47   23   24 1 
    48   23   25 1 
    49   23   48 1 
    50   24   25 1 
    51   24   49 1 
    52   24   50 1 
    53   25   51 1 
    54   25   52 1 
    55   26   27 ar
    56   26   32 1 
    57   27   28 ar
    58   27   53 1 
    59   28   54 1 
@<TRIPOS>SUBSTRUCTURE
1 MOL         1
@<TRIPOS>MOLECULE
query molecule
   55    59     1     0     0
SMALL
NO_CHARGE

@<TRIPOS>ATOM
      1 N          10.4141   10.5954   -0.7208 N.am      1 MOL    -0.2945
      2 N           8.0678   10.2248   -2.2824 N.am      1 MOL    -0.2983
      3 N          12.1424    8.4105    4.8538 N.ar      1 MOL    -0.1750
      4 N          13.0971    7.6224    5.3344 N.ar      1 MOL    -0.2425
      5 C          13.0343    7.1924    6.6845 C.ar      1 MOL     0.2725
      6 C          11.9947    7.6955    7.5111 C.ar      1 MOL     0.0496
      7 C          11.9256    7.3385    8.8629 C.ar      1 MOL     0.0138
      8 C          10.8784    7.8120    9.6557 C.ar      1 MOL     0.0008
      9 C           9.9097    8.6541    9.1091 C.ar      1 MOL     0.0007
     10 C           9.9767    9.0091    7.7614 C.ar      1 MOL     0.0103
     11 C          11.0039    8.5390    6.9357 C.ar      1 MOL     0.0106
     12 C          11.0580    8.8389    5.5627 C.ar      1 MOL     0.0736
     13 C           9.9463    9.5485    4.8614 C.3       1 MOL     0.0925
     14 C          10.4726   10.4700    3.8354 C.ar      1 MOL    -0.0406
     15 C          10.6204   10.0657    2.5038 C.ar      1 MOL     0.0196
     16 C          11.1834   10.9431    1.5682 C.ar      1 MOL     0.0723
     17 C          11.4150   10.4963    0.1797 C.2       1 MOL     0.2495
     18 C          10.5357    9.9167   -2.0062 C.3       1 MOL     0.1268
     19 C           9.1715    9.2808   -2.4087 C.3       1 MOL     0.1265
     20 C           8.0140   11.0858   -1.0957 C.3       1 MOL     0.1265
     21 C           9.4013   11.6363   -0.6704 C.3       1 MOL     0.1268
     22 C           7.0193   10.2947   -3.1522 C.2       1 MOL     0.2187
     23 C           6.9523    9.3229   -4.2744 C.3       1 MOL     0.0752
     24 C           5.5459    9.0940   -4.7221 C.3       1 MOL     0.0134
     25 C           6.2539    8.0600   -3.8941 C.3       1 MOL     0.0134
     26 C          11.5511   12.2266    1.9643 C.ar      1 MOL     0.1355
     27 C          11.3825   12.6269    3.2861 C.ar      1 MOL     0.0392
     28 C          10.8421   11.7580    4.2262 C.ar      1 MOL     0.0066
     29 O          13.8625    6.3574    7.0655 O.2       1 MOL    -0.2658
     30 O           6.1333   11.1599   -3.0463 O.2       1 MOL    -0.2753
     31 O          12.5011    9.9651   -0.0648 O.2       1 MOL    -0.2699
     32 F          12.0771   13.0973    1.0714 F         1 MOL    -0.2047
     33 H          12.6741    6.6873    9.2947 H         1 MOL     0.0625
     34 H          10.8195    7.5359   10.6982 H         1 MOL     0.0618
     35 H           9.1056    9.0297    9.7259 H         1 MOL     0.0618
     36 H           9.2158    9.6545    7.3425 H         1 MOL     0.0624
     37 H           9.3664   10.1297    5.5991 H         1 MOL     0.0377
     38 H           9.3029    8.8002    4.3652 H         1 MOL     0.0377
     39 H          10.3169    9.0754    2.1999 H         1 MOL     0.0629
     40 H          11.3449    9.1547   -1.9511 H         1 MOL     0.0480
     41 H          10.8292   10.6745   -2.7726 H         1 MOL     0.0480
     42 H           8.9732    8.4188   -1.7247 H         1 MOL     0.0480
     43 H           9.2029    8.8817   -3.4477 H         1 MOL     0.0480
     44 H           7.6148   10.4687   -0.2516 H         1 MOL     0.0480
     45 H           7.2904   11.9126   -1.2781 H         1 MOL     0.0480
     46 H           9.3672   12.0697    0.3542 H         1 MOL     0.0480
     47 H           9.7046   12.4453   -1.3788 H         1 MOL     0.0480
     48 H           7.7601    9.3338   -4.9587 H         1 MOL     0.0394
     49 H           5.4000    8.8796   -5.7735 H         1 MOL     0.0273
     50 H           4.7802    9.6796   -4.2240 H         1 MOL     0.0273
     51 H           6.5274    7.1507   -4.4175 H         1 MOL     0.0273
     52 H           5.9223    7.9596   -2.8686 H         1 MOL     0.0273
     53 H          11.6716   13.6238    3.5883 H         1 MOL     0.0646
     54 H          10.7120   12.0714    5.2503 H         1 MOL     0.0621
     55 H          13.7376    7.1366    4.7209 H         1 MOL     0.1921
@<TRIPOS>BOND
     1    1   17 am
     2    1   18 1 
     3    1   21 1 
     4    2   19 1 
     5    2   20 1 
     6    2   22 am
     7    3    4 ar
     8    3   12 ar
     9    4    5 ar
    10    4   55 1 
    11    5    6 ar
    12    5   29 2 
    13    6    7 ar
    14    6   11 ar
    15    7    8 ar
    16    7   33 1 
    17    8    9 ar
    18    8   34 1 
    19    9   10 ar
    20    9   35 1 
    21   10   11 ar
    22   10   36 1 
    23   11   12 ar
    24   12   13 1 
    25   13   14 1 
    26   13   37 1 
    27   13   38 1 
    28   14   15 ar
    29   14   28 ar
    30   15   16 ar
    31   15   39 1 
    32   16   17 1 
    33   16   26 ar
    34   17   31 2 
    35   18   19 1 
    36   18   40 1 
    37   18   41 1 
    38   19   42 1 
    39   19   43 1 
    40   20   21 1 
    41   20   44 1 
    42   20   45 1 
    43   21   46 1 
    44   21   47 1 
    45   22   23 1 
    46   22   30 2 
    47   23   24 1 
    48   23   25 1 
    49   23   48 1 
    50   24   25 1 
    51   24   49 1 
    52   24   50 1 
    53   25   51 1 
    54   25   52 1 
    55   26   27 ar
    56   26   32 1 
    57   27   28 ar
    58   27   53 1 
    59   28   54 1 
@<TRIPOS>SUBSTRUCTURE
1 MOL         1
@<TRIPOS>MOLECULE
query molecule
   55    59     1     0     0
SMALL
NO_CHARGE

@<TRIPOS>ATOM
      1 N          11.4398    9.2599    7.7750 N.am      1 MOL    -0.2945
      2 N           8.8455    8.3095    7.0562 N.am      1 MOL    -0.2983
      3 N          18.1751    9.8518    4.2101 N.ar      1 MOL    -0.1750
      4 N          19.1194   10.2988    3.3924 N.ar      1 MOL    -0.2425
      5 C          20.2193    9.4793    3.0561 C.ar      1 MOL     0.2725
      6 C          20.3221    8.2140    3.6800 C.ar      1 MOL     0.0496
      7 C          21.4274    7.3844    3.4606 C.ar      1 MOL     0.0138
      8 C          21.5101    6.1385    4.0865 C.ar      1 MOL     0.0008
      9 C          20.4928    5.7154    4.9416 C.ar      1 MOL     0.0007
     10 C          19.3914    6.5384    5.1717 C.ar      1 MOL     0.0103
     11 C          19.2728    7.7922    4.5510 C.ar      1 MOL     0.0106
     12 C          18.1380    8.6108    4.7666 C.ar      1 MOL     0.0736
     13 C          16.9709    8.0895    5.5249 C.3       1 MOL     0.0925
     14 C          16.0437    9.0017    6.2128 C.ar      1 MOL    -0.0406
     15 C          14.8196    8.4605    6.6596 C.ar      1 MOL     0.0196
     16 C          13.8425    9.2588    7.2790 C.ar      1 MOL     0.0723
     17 C          12.6229    8.6002    7.8175 C.2       1 MOL     0.2495
     18 C          10.4490    9.1113    8.8328 C.3       1 MOL     0.1268
     19 C           9.3443    8.1131    8.4115 C.3       1 MOL     0.1265
     20 C           9.7783    8.7599    6.0157 C.3       1 MOL     0.1265
     21 C          10.8960    9.7162    6.5043 C.3       1 MOL     0.1268
     22 C           7.5838    7.9608    6.6519 C.2       1 MOL     0.2187
     23 C           6.6375    7.3294    7.6020 C.3       1 MOL     0.0752
     24 C           5.2678    7.9099    7.4716 C.3       1 MOL     0.0134
     25 C           6.0968    8.2072    8.6763 C.3       1 MOL     0.0134
     26 C          14.0848   10.6293    7.4049 C.ar      1 MOL     0.1355
     27 C          15.3120   11.1719    7.0097 C.ar      1 MOL     0.0392
     28 C          16.2876   10.3541    6.4352 C.ar      1 MOL     0.0066
     29 O          21.0250    9.9031    2.2089 O.2       1 MOL    -0.2658
     30 O           7.2075    8.0834    5.4713 O.2       1 MOL    -0.2753
     31 O          12.7849    7.5441    8.4400 O.2       1 MOL    -0.2699
     32 F          13.1511   11.4697    7.9185 F         1 MOL    -0.2047
     33 H          22.2233    7.7082    2.8056 H         1 MOL     0.0625
     34 H          22.3645    5.5008    3.9125 H         1 MOL     0.0618
     35 H          20.5563    4.7509    5.4242 H         1 MOL     0.0618
     36 H          18.6071    6.2002    5.8363 H         1 MOL     0.0624
     37 H          17.3601    7.3786    6.2849 H         1 MOL     0.0377
     38 H          16.3548    7.5172    4.7924 H         1 MOL     0.0377
     39 H          14.6270    7.4037    6.5237 H         1 MOL     0.0629
     40 H           9.9880   10.1144    9.0124 H         1 MOL     0.0480
     41 H          10.9458    8.7921    9.7741 H         1 MOL     0.0480
     42 H           8.4789    8.1572    9.1168 H         1 MOL     0.0480
     43 H           9.7641    7.0791    8.4698 H         1 MOL     0.0480
     44 H           9.2032    9.1849    5.1636 H         1 MOL     0.0480
     45 H          10.2924    7.8372    5.6370 H         1 MOL     0.0480
     46 H          10.4761   10.7390    6.6493 H         1 MOL     0.0480
     47 H          11.7139    9.7799    5.7534 H         1 MOL     0.0480
     48 H           6.7617    6.2796    7.7287 H         1 MOL     0.0394
     49 H           4.4358    7.2375    7.6233 H         1 MOL     0.0273
     50 H           5.1394    8.7287    6.7794 H         1 MOL     0.0273
     51 H           5.8212    7.7146    9.6028 H         1 MOL     0.0273
     52 H           6.5419    9.1921    8.7560 H         1 MOL     0.0273
     53 H          15.5018   12.2267    7.1487 H         1 MOL     0.0646
     54 H          17.2370   10.7820    6.1466 H         1 MOL     0.0621
     55 H          19.0776   11.2184    2.9874 H         1 MOL     0.1921
@<TRIPOS>BOND
     1    1   17 am
     2    1   18 1 
     3    1   21 1 
     4    2   19 1 
     5    2   20 1 
     6    2   22 am
     7    3    4 ar
     8    3   12 ar
     9    4    5 ar
    10    4   55 1 
    11    5    6 ar
    12    5   29 2 
    13    6    7 ar
    14    6   11 ar
    15    7    8 ar
    16    7   33 1 
    17    8    9 ar
    18    8   34 1 
    19    9   10 ar
    20    9   35 1 
    21   10   11 ar
    22   10   36 1 
    23   11   12 ar
    24   12   13 1 
    25   13   14 1 
    26   13   37 1 
    27   13   38 1 
    28   14   15 ar
    29   14   28 ar
    30   15   16 ar
    31   15   39 1 
    32   16   17 1 
    33   16   26 ar
    34   17   31 2 
    35   18   19 1 
    36   18   40 1 
    37   18   41 1 
    38   19   42 1 
    39   19   43 1 
    40   20   21 1 
    41   20   44 1 
    42   20   45 1 
    43   21   46 1 
    44   21   47 1 
    45   22   23 1 
    46   22   30 2 
    47   23   24 1 
    48   23   25 1 
    49   23   48 1 
    50   24   25 1 
    51   24   49 1 
    52   24   50 1 
    53   25   51 1 
    54   25   52 1 
    55   26   27 ar
    56   26   32 1 
    57   27   28 ar
    58   27   53 1 
    59   28   54 1 
@<TRIPOS>SUBSTRUCTURE
1 MOL         1
@<TRIPOS>MOLECULE
query molecule
   55    59     1     0     0
SMALL
NO_CHARGE

@<TRIPOS>ATOM
      1 N          11.1773   10.8577   -0.8429 N.am      1 MOL    -0.2945
      2 N          13.5787   11.2127   -2.3361 N.am      1 MOL    -0.2983
      3 N          12.0224    8.4665    4.4676 N.ar      1 MOL    -0.1750
      4 N          13.0977    7.7632    4.8055 N.ar      1 MOL    -0.2425
      5 C          13.2697    7.3369    6.1340 C.ar      1 MOL     0.2725
      6 C          12.2999    7.7119    7.0915 C.ar      1 MOL     0.0496
      7 C          12.4165    7.3056    8.4212 C.ar      1 MOL     0.0138
      8 C          11.4181    7.6325    9.3413 C.ar      1 MOL     0.0008
      9 C          10.3161    8.3929    8.9531 C.ar      1 MOL     0.0007
     10 C          10.1960    8.8199    7.6314 C.ar      1 MOL     0.0103
     11 C          11.1684    8.4786    6.6758 C.ar      1 MOL     0.0106
     12 C          11.0245    8.8259    5.3212 C.ar      1 MOL     0.0736
     13 C           9.7963    9.4915    4.7930 C.3       1 MOL     0.0925
     14 C          10.1285   10.4602    3.7292 C.ar      1 MOL    -0.0406
     15 C           9.9279   10.1413    2.3828 C.ar      1 MOL     0.0196
     16 C          10.2875   11.0550    1.3864 C.ar      1 MOL     0.0723
     17 C          10.0912   10.7192   -0.0452 C.2       1 MOL     0.2495
     18 C          11.1009   11.5510   -2.1172 C.3       1 MOL     0.1268
     19 C          12.4997   12.1799   -2.4483 C.3       1 MOL     0.1265
     20 C          13.5683   10.3315   -1.1701 C.3       1 MOL     0.1265
     21 C          12.1609    9.7844   -0.8117 C.3       1 MOL     0.1268
     22 C          14.6714   11.1474   -3.1511 C.2       1 MOL     0.2187
     23 C          14.9342   12.2611   -4.0935 C.3       1 MOL     0.0752
     24 C          14.1615   12.2011   -5.3594 C.3       1 MOL     0.0134
     25 C          15.6062   11.7897   -5.3458 C.3       1 MOL     0.0134
     26 C          10.8330   12.2860    1.7538 C.ar      1 MOL     0.1355
     27 C          11.0127   12.6050    3.0973 C.ar      1 MOL     0.0392
     28 C          10.6544   11.7017    4.0900 C.ar      1 MOL     0.0066
     29 O          14.2534    6.6215    6.3804 O.2       1 MOL    -0.2658
     30 O          15.5138   10.2394   -3.0573 O.2       1 MOL    -0.2753
     31 O           8.9659   10.4406   -0.4610 O.2       1 MOL    -0.2699
     32 F          11.1838   13.1974    0.8151 F         1 MOL    -0.2047
     33 H          13.2730    6.7301    8.7349 H         1 MOL     0.0625
     34 H          11.5070    7.2988   10.3621 H         1 MOL     0.0618
     35 H           9.5553    8.6468    9.6773 H         1 MOL     0.0618
     36 H           9.3361    9.4049    7.3373 H         1 MOL     0.0624
     37 H           9.2949   10.0270    5.6180 H         1 MOL     0.0377
     38 H           9.1293    8.7186    4.3691 H         1 MOL     0.0377
     39 H           9.5039    9.1863    2.1096 H         1 MOL     0.0629
     40 H          10.3074   12.3281   -2.0670 H         1 MOL     0.0480
     41 H          10.8186   10.8105   -2.9024 H         1 MOL     0.0480
     42 H          12.6970   13.0018   -1.7121 H         1 MOL     0.0480
     43 H          12.5034   12.6214   -3.4637 H         1 MOL     0.0480
     44 H          13.9471   10.9111   -0.3008 H         1 MOL     0.0480
     45 H          14.2807    9.4850   -1.3508 H         1 MOL     0.0480
     46 H          12.1594    9.3095    0.1949 H         1 MOL     0.0480
     47 H          11.8535    9.0111   -1.5563 H         1 MOL     0.0480
     48 H          15.2130   13.1810   -3.6446 H         1 MOL     0.0394
     49 H          13.9330   13.1599   -5.8191 H         1 MOL     0.0273
     50 H          13.4225   11.4223   -5.4464 H         1 MOL     0.0273
     51 H          16.2982   12.4736   -5.8186 H         1 MOL     0.0273
     52 H          15.7978   10.7279   -5.4472 H         1 MOL     0.0273
     53 H          11.4282   13.5640    3.3723 H         1 MOL     0.0646
     54 H          10.7833   11.9538    5.1311 H         1 MOL     0.0621
     55 H          13.6946    7.3396    4.1021 H         1 MOL     0.1921
@<TRIPOS>BOND
     1    1   17 am
     2    1   18 1 
     3    1   21 1 
     4    2   19 1 
     5    2   20 1 
     6    2   22 am
     7    3    4 ar
     8    3   12 ar
     9    4    5 ar
    10    4   55 1 
    11    5    6 ar
    12    5   29 2 
    13    6    7 ar
    14    6   11 ar
    15    7    8 ar
    16    7   33 1 
    17    8    9 ar
    18    8   34 1 
    19    9   10 ar
    20    9   35 1 
    21   10   11 ar
    22   10   36 1 
    23   11   12 ar
    24   12   13 1 
    25   13   14 1 
    26   13   37 1 
    27   13   38 1 
    28   14   15 ar
    29   14   28 ar
    30   15   16 ar
    31   15   39 1 
    32   16   17 1 
    33   16   26 ar
    34   17   31 2 
    35   18   19 1 
    36   18   40 1 
    37   18   41 1 
    38   19   42 1 
    39   19   43 1 
    40   20   21 1 
    41   20   44 1 
    42   20   45 1 
    43   21   46 1 
    44   21   47 1 
    45   22   23 1 
    46   22   30 2 
    47   23   24 1 
    48   23   25 1 
    49   23   48 1 
    50   24   25 1 
    51   24   49 1 
    52   24   50 1 
    53   25   51 1 
    54   25   52 1 
    55   26   27 ar
    56   26   32 1 
    57   27   28 ar
    58   27   53 1 
    59   28   54 1 
@<TRIPOS>SUBSTRUCTURE
1 MOL         1
@<TRIPOS>MOLECULE
query molecule
   55    59     1     0     0
SMALL
NO_CHARGE

@<TRIPOS>ATOM
      1 N          -2.5424   -0.4104    3.9117 N.am      1 MOL    -0.2945
      2 N          -4.8646   -0.0705    5.3008 N.am      1 MOL    -0.2983
      3 N           0.5918   -6.0822    0.1984 N.ar      1 MOL    -0.1750
      4 N           0.7993   -7.3642   -0.0618 N.ar      1 MOL    -0.2425
      5 C           1.4911   -7.7320   -1.2384 C.ar      1 MOL     0.2725
      6 C           2.0043   -6.7082   -2.0655 C.ar      1 MOL     0.0496
      7 C           2.8058   -7.0199   -3.1691 C.ar      1 MOL     0.0138
      8 C           3.3773   -5.9999   -3.9314 C.ar      1 MOL     0.0008
      9 C           3.1293   -4.6643   -3.6092 C.ar      1 MOL     0.0007
     10 C           2.3004   -4.3456   -2.5318 C.ar      1 MOL     0.0103
     11 C           1.7260   -5.3514   -1.7363 C.ar      1 MOL     0.0106
     12 C           0.9109   -5.0520   -0.6264 C.ar      1 MOL     0.0736
     13 C           0.4781   -3.6625   -0.3466 C.3       1 MOL     0.0925
     14 C          -0.7044   -3.4604    0.5131 C.ar      1 MOL    -0.0406
     15 C          -0.7096   -2.3042    1.3061 C.ar      1 MOL     0.0196
     16 C          -1.7649   -1.9824    2.1797 C.ar      1 MOL     0.0723
     17 C          -1.6144   -0.7252    2.9638 C.2       1 MOL     0.2495
     18 C          -2.9489    0.9864    4.1009 C.3       1 MOL     0.1268
     19 C          -4.0948    1.1511    5.1606 C.3       1 MOL     0.1265
     20 C          -4.1186   -1.2861    5.6123 C.3       1 MOL     0.1265
     21 C          -2.6496   -1.2560    5.0993 C.3       1 MOL     0.1268
     22 C          -6.2179   -0.1668    5.1828 C.2       1 MOL     0.2187
     23 C          -7.0063    1.0678    4.9361 C.3       1 MOL     0.0752
     24 C          -8.3000    1.0103    5.6831 C.3       1 MOL     0.0134
     25 C          -8.2728    0.8176    4.1945 C.3       1 MOL     0.0134
     26 C          -2.8456   -2.8563    2.2144 C.ar      1 MOL     0.1355
     27 C          -2.8671   -4.0230    1.4373 C.ar      1 MOL     0.0392
     28 C          -1.8013   -4.3136    0.5858 C.ar      1 MOL     0.0066
     29 O           1.6000   -8.9380   -1.4980 O.2       1 MOL    -0.2658
     30 O          -6.8251   -1.2412    5.3307 O.2       1 MOL    -0.2753
     31 O          -0.6976    0.0495    2.6508 O.2       1 MOL    -0.2699
     32 F          -3.9318   -2.6214    2.9859 F         1 MOL    -0.2047
     33 H           2.9983   -8.0522   -3.4237 H         1 MOL     0.0625
     34 H           4.0148   -6.2447   -4.7683 H         1 MOL     0.0618
     35 H           3.5808   -3.8778   -4.1960 H         1 MOL     0.0618
     36 H           2.1055   -3.3074   -2.3009 H         1 MOL     0.0624
     37 H           0.2676   -3.1772   -1.3238 H         1 MOL     0.0377
     38 H           1.3334   -3.1432    0.1374 H         1 MOL     0.0377
     39 H           0.1369   -1.6296    1.2472 H         1 MOL     0.0629
     40 H          -3.2904    1.3815    3.1128 H         1 MOL     0.0480
     41 H          -2.0638    1.5868    4.4169 H         1 MOL     0.0480
     42 H          -4.7690    2.0006    4.9206 H         1 MOL     0.0480
     43 H          -3.6237    1.3601    6.1540 H         1 MOL     0.0480
     44 H          -4.6619   -2.1371    5.1255 H         1 MOL     0.0480
     45 H          -4.1366   -1.4701    6.7103 H         1 MOL     0.0480
     46 H          -2.2839   -2.2793    4.8632 H         1 MOL     0.0480
     47 H          -1.9862   -0.8220    5.8860 H         1 MOL     0.0480
     48 H          -6.4654    1.9732    4.8376 H         1 MOL     0.0394
     49 H          -8.6859    1.9456    6.0608 H         1 MOL     0.0273
     50 H          -8.4785    0.1159    6.2709 H         1 MOL     0.0273
     51 H          -8.6848    1.6399    3.6181 H         1 MOL     0.0273
     52 H          -8.4644   -0.1839    3.8298 H         1 MOL     0.0273
     53 H          -3.7092   -4.6967    1.4932 H         1 MOL     0.0646
     54 H          -1.8231   -5.2110   -0.0163 H         1 MOL     0.0621
     55 H           0.8122   -8.0336    0.6976 H         1 MOL     0.1921
@<TRIPOS>BOND
     1    1   17 am
     2    1   18 1 
     3    1   21 1 
     4    2   19 1 
     5    2   20 1 
     6    2   22 am
     7    3    4 ar
     8    3   12 ar
     9    4    5 ar
    10    4   55 1 
    11    5    6 ar
    12    5   29 2 
    13    6    7 ar
    14    6   11 ar
    15    7    8 ar
    16    7   33 1 
    17    8    9 ar
    18    8   34 1 
    19    9   10 ar
    20    9   35 1 
    21   10   11 ar
    22   10   36 1 
    23   11   12 ar
    24   12   13 1 
    25   13   14 1 
    26   13   37 1 
    27   13   38 1 
    28   14   15 ar
    29   14   28 ar
    30   15   16 ar
    31   15   39 1 
    32   16   17 1 
    33   16   26 ar
    34   17   31 2 
    35   18   19 1 
    36   18   40 1 
    37   18   41 1 
    38   19   42 1 
    39   19   43 1 
    40   20   21 1 
    41   20   44 1 
    42   20   45 1 
    43   21   46 1 
    44   21   47 1 
    45   22   23 1 
    46   22   30 2 
    47   23   24 1 
    48   23   25 1 
    49   23   48 1 
    50   24   25 1 
    51   24   49 1 
    52   24   50 1 
    53   25   51 1 
    54   25   52 1 
    55   26   27 ar
    56   26   32 1 
    57   27   28 ar
    58   27   53 1 
    59   28   54 1 
@<TRIPOS>SUBSTRUCTURE
1 MOL         1
@<TRIPOS>MOLECULE
query molecule
   55    59     1     0     0
SMALL
NO_CHARGE

@<TRIPOS>ATOM
      1 N          21.7206   -2.1888   16.2407 N.am      1 MOL    -0.2945
      2 N          19.4794   -3.8895   15.9431 N.am      1 MOL    -0.2983
      3 N          26.0345    3.8375   13.8329 N.ar      1 MOL    -0.1750
      4 N          26.8074    4.5353   13.0011 N.ar      1 MOL    -0.2425
      5 C          26.2355    5.5437   12.1933 C.ar      1 MOL     0.2725
      6 C          24.8528    5.7909   12.2971 C.ar      1 MOL     0.0496
      7 C          24.2393    6.7385   11.4720 C.ar      1 MOL     0.0138
      8 C          22.8727    6.9803   11.5852 C.ar      1 MOL     0.0008
      9 C          22.1268    6.3008   12.5466 C.ar      1 MOL     0.0007
     10 C          22.7228    5.3542   13.3776 C.ar      1 MOL     0.0103
     11 C          24.0855    5.0492   13.2399 C.ar      1 MOL     0.0106
     12 C          24.6883    4.0234   13.9932 C.ar      1 MOL     0.0736
     13 C          23.9267    3.1835   14.9689 C.3       1 MOL     0.0925
     14 C          23.5678    1.8097   14.5321 C.ar      1 MOL    -0.0406
     15 C          23.5145    0.7849   15.4948 C.ar      1 MOL     0.0196
     16 C          23.1104   -0.5128   15.1402 C.ar      1 MOL     0.0723
     17 C          22.8987   -1.5119   16.2142 C.2       1 MOL     0.2495
     18 C          21.5721   -3.3240   17.1490 C.3       1 MOL     0.1268
     19 C          20.7207   -4.4394   16.4741 C.3       1 MOL     0.1265
     20 C          19.6011   -2.7499   15.0397 C.3       1 MOL     0.1265
     21 C          20.4702   -1.6364   15.7119 C.3       1 MOL     0.1268
     22 C          18.2506   -4.3860   16.2443 C.2       1 MOL     0.2187
     23 C          18.1492   -5.2192   17.4604 C.3       1 MOL     0.0752
     24 C          16.9116   -5.0595   18.2521 C.3       1 MOL     0.0134
     25 C          18.1148   -4.2393   18.5952 C.3       1 MOL     0.0134
     26 C          22.8673   -0.8173   13.8004 C.ar      1 MOL     0.1355
     27 C          22.9145    0.1830   12.8349 C.ar      1 MOL     0.0392
     28 C          23.2333    1.4846   13.2193 C.ar      1 MOL     0.0066
     29 O          26.9811    6.1845   11.4412 O.2       1 MOL    -0.2658
     30 O          17.2372   -4.1440   15.5769 O.2       1 MOL    -0.2753
     31 O          23.8295   -1.7104   17.0023 O.2       1 MOL    -0.2699
     32 F          22.5629   -2.0801   13.4175 F         1 MOL    -0.2047
     33 H          24.8217    7.2787   10.7418 H         1 MOL     0.0625
     34 H          22.3944    7.6929   10.9294 H         1 MOL     0.0618
     35 H          21.0659    6.5015   12.6355 H         1 MOL     0.0618
     36 H          22.1226    4.8271   14.1047 H         1 MOL     0.0624
     37 H          22.9785    3.7064   15.2048 H         1 MOL     0.0377
     38 H          24.5394    3.0838   15.8878 H         1 MOL     0.0377
     39 H          23.7606    1.0045   16.5238 H         1 MOL     0.0629
     40 H          21.0600   -2.9659   18.0742 H         1 MOL     0.0480
     41 H          22.5810   -3.6969   17.4329 H         1 MOL     0.0480
     42 H          20.4895   -5.2628   17.1834 H         1 MOL     0.0480
     43 H          21.2999   -4.8676   15.6199 H         1 MOL     0.0480
     44 H          18.5853   -2.3680   14.7875 H         1 MOL     0.0480
     45 H          20.0840   -3.0923   14.0945 H         1 MOL     0.0480
     46 H          19.9001   -1.1863   16.5611 H         1 MOL     0.0480
     47 H          20.7009   -0.8203   14.9894 H         1 MOL     0.0480
     48 H          18.7849   -6.0622   17.5077 H         1 MOL     0.0394
     49 H          16.6825   -5.8576   18.9517 H         1 MOL     0.0273
     50 H          16.0791   -4.5642   17.7736 H         1 MOL     0.0273
     51 H          18.6814   -4.5004   19.4775 H         1 MOL     0.0273
     52 H          18.0596   -3.1890   18.3283 H         1 MOL     0.0273
     53 H          22.6964   -0.0486   11.8032 H         1 MOL     0.0646
     54 H          23.2195    2.2648   12.4689 H         1 MOL     0.0621
     55 H          27.7924    4.3487   12.8724 H         1 MOL     0.1921
@<TRIPOS>BOND
     1    1   17 am
     2    1   18 1 
     3    1   21 1 
     4    2   19 1 
     5    2   20 1 
     6    2   22 am
     7    3    4 ar
     8    3   12 ar
     9    4    5 ar
    10    4   55 1 
    11    5    6 ar
    12    5   29 2 
    13    6    7 ar
    14    6   11 ar
    15    7    8 ar
    16    7   33 1 
    17    8    9 ar
    18    8   34 1 
    19    9   10 ar
    20    9   35 1 
    21   10   11 ar
    22   10   36 1 
    23   11   12 ar
    24   12   13 1 
    25   13   14 1 
    26   13   37 1 
    27   13   38 1 
    28   14   15 ar
    29   14   28 ar
    30   15   16 ar
    31   15   39 1 
    32   16   17 1 
    33   16   26 ar
    34   17   31 2 
    35   18   19 1 
    36   18   40 1 
    37   18   41 1 
    38   19   42 1 
    39   19   43 1 
    40   20   21 1 
    41   20   44 1 
    42   20   45 1 
    43   21   46 1 
    44   21   47 1 
    45   22   23 1 
    46   22   30 2 
    47   23   24 1 
    48   23   25 1 
    49   23   48 1 
    50   24   25 1 
    51   24   49 1 
    52   24   50 1 
    53   25   51 1 
    54   25   52 1 
    55   26   27 ar
    56   26   32 1 
    57   27   28 ar
    58   27   53 1 
    59   28   54 1 
@<TRIPOS>SUBSTRUCTURE
1 MOL         1
@<TRIPOS>MOLECULE
query molecule
   55    59     1     0     0
SMALL
NO_CHARGE

@<TRIPOS>ATOM
      1 N          -2.4745  -11.4981   22.6434 N.am      1 MOL    -0.2945
      2 N          -1.3601  -13.5131   24.3096 N.am      1 MOL    -0.2983
      3 N          -6.1830   -7.5232   22.1043 N.ar      1 MOL    -0.1750
      4 N          -6.0986   -6.2338   22.4064 N.ar      1 MOL    -0.2425
      5 C          -6.8729   -5.2737   21.7133 C.ar      1 MOL     0.2725
      6 C          -7.7155   -5.7186   20.6702 C.ar      1 MOL     0.0496
      7 C          -8.4696   -4.8102   19.9178 C.ar      1 MOL     0.0138
      8 C          -9.3005   -5.2655   18.8917 C.ar      1 MOL     0.0008
      9 C          -9.3862   -6.6325   18.6167 C.ar      1 MOL     0.0007
     10 C          -8.6380   -7.5469   19.3626 C.ar      1 MOL     0.0103
     11 C          -7.7851   -7.1156   20.3915 C.ar      1 MOL     0.0106
     12 C          -7.0046   -8.0205   21.1351 C.ar      1 MOL     0.0736
     13 C          -7.0555   -9.4971   20.8987 C.3       1 MOL     0.0925
     14 C          -5.8036  -10.0233   20.2945 C.ar      1 MOL    -0.0406
     15 C          -4.6828  -10.2838   21.0921 C.ar      1 MOL     0.0196
     16 C          -3.4973  -10.7722   20.5308 C.ar      1 MOL     0.0723
     17 C          -2.3133  -11.0107   21.3839 C.2       1 MOL     0.2495
     18 C          -1.5360  -11.1066   23.6888 C.3       1 MOL     0.1268
     19 C          -0.6096  -12.2904   24.0932 C.3       1 MOL     0.1265
     20 C          -2.3323  -13.8841   23.2726 C.3       1 MOL     0.1265
     21 C          -3.2636  -12.6865   22.8993 C.3       1 MOL     0.1268
     22 C          -1.2246  -14.3677   25.3613 C.2       1 MOL     0.2187
     23 C          -0.4837  -13.9337   26.5620 C.3       1 MOL     0.0752
     24 C           0.9825  -13.7809   26.4887 C.3       1 MOL     0.0134
     25 C           0.3886  -15.0619   26.9964 C.3       1 MOL     0.0134
     26 C          -3.4478  -11.0041   19.1511 C.ar      1 MOL     0.1355
     27 C          -4.5645  -10.7669   18.3450 C.ar      1 MOL     0.0392
     28 C          -5.7406  -10.2744   18.9181 C.ar      1 MOL     0.0066
     29 O          -6.7917   -4.0890   22.0721 O.2       1 MOL    -0.2658
     30 O          -1.7999  -15.4686   25.3835 O.2       1 MOL    -0.2753
     31 O          -1.2097  -10.6602   20.9557 O.2       1 MOL    -0.2699
     32 F          -2.3170  -11.4703   18.5710 F         1 MOL    -0.2047
     33 H          -8.4112   -3.7532   20.1321 H         1 MOL     0.0625
     34 H          -9.8811   -4.5632   18.3127 H         1 MOL     0.0618
     35 H         -10.0343   -6.9849   17.8270 H         1 MOL     0.0618
     36 H          -8.7138   -8.6028   19.1404 H         1 MOL     0.0624
     37 H          -7.8952   -9.7145   20.2123 H         1 MOL     0.0377
     38 H          -7.2157  -10.0025   21.8697 H         1 MOL     0.0377
     39 H          -4.7334  -10.0974   22.1573 H         1 MOL     0.0629
     40 H          -2.1329  -10.7961   24.5832 H         1 MOL     0.0480
     41 H          -0.9540  -10.2221   23.3462 H         1 MOL     0.0480
     42 H           0.0249  -12.0606   24.9795 H         1 MOL     0.0480
     43 H           0.0788  -12.4705   23.2283 H         1 MOL     0.0480
     44 H          -2.9298  -14.7525   23.6313 H         1 MOL     0.0480
     45 H          -1.7711  -14.2019   22.3606 H         1 MOL     0.0480
     46 H          -3.9488  -12.4719   23.7574 H         1 MOL     0.0480
     47 H          -3.8958  -12.9188   22.0137 H         1 MOL     0.0480
     48 H          -1.0707  -13.4202   27.2890 H         1 MOL     0.0394
     49 H           1.4545  -13.1999   27.2753 H         1 MOL     0.0273
     50 H           1.4867  -13.8221   25.5345 H         1 MOL     0.0273
     51 H           0.4091  -15.2718   28.0591 H         1 MOL     0.0273
     52 H           0.4674  -15.9173   26.3349 H         1 MOL     0.0273
     53 H          -4.5200  -10.9621   17.2842 H         1 MOL     0.0646
     54 H          -6.6070  -10.0900   18.2981 H         1 MOL     0.0621
     55 H          -5.4553   -5.8798   23.0925 H         1 MOL     0.1921
@<TRIPOS>BOND
     1    1   17 am
     2    1   18 1 
     3    1   21 1 
     4    2   19 1 
     5    2   20 1 
     6    2   22 am
     7    3    4 ar
     8    3   12 ar
     9    4    5 ar
    10    4   55 1 
    11    5    6 ar
    12    5   29 2 
    13    6    7 ar
    14    6   11 ar
    15    7    8 ar
    16    7   33 1 
    17    8    9 ar
    18    8   34 1 
    19    9   10 ar
    20    9   35 1 
    21   10   11 ar
    22   10   36 1 
    23   11   12 ar
    24   12   13 1 
    25   13   14 1 
    26   13   37 1 
    27   13   38 1 
    28   14   15 ar
    29   14   28 ar
    30   15   16 ar
    31   15   39 1 
    32   16   17 1 
    33   16   26 ar
    34   17   31 2 
    35   18   19 1 
    36   18   40 1 
    37   18   41 1 
    38   19   42 1 
    39   19   43 1 
    40   20   21 1 
    41   20   44 1 
    42   20   45 1 
    43   21   46 1 
    44   21   47 1 
    45   22   23 1 
    46   22   30 2 
    47   23   24 1 
    48   23   25 1 
    49   23   48 1 
    50   24   25 1 
    51   24   49 1 
    52   24   50 1 
    53   25   51 1 
    54   25   52 1 
    55   26   27 ar
    56   26   32 1 
    57   27   28 ar
    58   27   53 1 
    59   28   54 1 
@<TRIPOS>SUBSTRUCTURE
1 MOL         1
@<TRIPOS>MOLECULE
query molecule
   55    59     1     0     0
SMALL
NO_CHARGE

@<TRIPOS>ATOM
      1 N          20.0557    8.8812    5.0526 N.am      1 MOL    -0.2945
      2 N          21.7591    7.4847    3.1959 N.am      1 MOL    -0.2983
      3 N          12.7949   10.7987    5.6564 N.ar      1 MOL    -0.1750
      4 N          11.6527   10.7952    4.9754 N.ar      1 MOL    -0.2425
      5 C          10.5696    9.9997    5.3992 C.ar      1 MOL     0.2725
      6 C          10.7155    9.2304    6.5701 C.ar      1 MOL     0.0496
      7 C           9.6430    8.5005    7.0929 C.ar      1 MOL     0.0138
      8 C           9.8209    7.7172    8.2294 C.ar      1 MOL     0.0008
      9 C          11.0766    7.6114    8.8218 C.ar      1 MOL     0.0007
     10 C          12.1443    8.3379    8.3019 C.ar      1 MOL     0.0103
     11 C          11.9832    9.2038    7.2152 C.ar      1 MOL     0.0106
     12 C          13.0275   10.0266    6.7572 C.ar      1 MOL     0.0736
     13 C          14.3771   10.0775    7.4275 C.3       1 MOL     0.0925
     14 C          15.4269    9.3271    6.6810 C.ar      1 MOL    -0.0406
     15 C          16.7727    9.7529    6.6655 C.ar      1 MOL     0.0196
     16 C          17.7526    9.0635    5.9109 C.ar      1 MOL     0.0723
     17 C          19.1859    9.4905    5.9135 C.2       1 MOL     0.2495
     18 C          21.2498    8.2097    5.5660 C.3       1 MOL     0.1268
     19 C          21.7157    7.0746    4.5941 C.3       1 MOL     0.1265
     20 C          20.7070    8.3758    2.6986 C.3       1 MOL     0.1265
     21 C          20.2669    9.4638    3.7262 C.3       1 MOL     0.1268
     22 C          22.6600    6.9846    2.2866 C.2       1 MOL     0.2187
     23 C          23.7083    6.0459    2.7729 C.3       1 MOL     0.0752
     24 C          24.9932    6.7563    3.0272 C.3       1 MOL     0.0134
     25 C          24.8484    5.8791    1.8269 C.3       1 MOL     0.0134
     26 C          17.3299    7.9590    5.1754 C.ar      1 MOL     0.1355
     27 C          16.0127    7.5174    5.2092 C.ar      1 MOL     0.0392
     28 C          15.0703    8.1764    5.9646 C.ar      1 MOL     0.0066
     29 O           9.5437    9.9880    4.6937 O.2       1 MOL    -0.2658
     30 O          22.6021    7.2509    1.0825 O.2       1 MOL    -0.2753
     31 O          19.5535   10.3162    6.7578 O.2       1 MOL    -0.2699
     32 F          18.1939    7.2692    4.3985 F         1 MOL    -0.2047
     33 H           8.6747    8.5360    6.6133 H         1 MOL     0.0625
     34 H           8.9880    7.1635    8.6368 H         1 MOL     0.0618
     35 H          11.2201    6.9699    9.6780 H         1 MOL     0.0618
     36 H          13.1169    8.2527    8.7717 H         1 MOL     0.0624
     37 H          14.2852    9.6390    8.4384 H         1 MOL     0.0377
     38 H          14.6894   11.1367    7.4967 H         1 MOL     0.0377
     39 H          17.0633   10.6256    7.2356 H         1 MOL     0.0629
     40 H          21.0353    7.7992    6.5782 H         1 MOL     0.0480
     41 H          22.0599    8.9716    5.6685 H         1 MOL     0.0480
     42 H          20.9776    6.2366    4.6719 H         1 MOL     0.0480
     43 H          22.7113    6.6721    4.8917 H         1 MOL     0.0480
     44 H          19.8181    7.7421    2.4571 H         1 MOL     0.0480
     45 H          21.0518    8.8459    1.7470 H         1 MOL     0.0480
     46 H          19.3386    9.9763    3.3916 H         1 MOL     0.0480
     47 H          21.0728   10.2342    3.8145 H         1 MOL     0.0480
     48 H          23.3829    5.2528    3.3985 H         1 MOL     0.0394
     49 H          25.6182    6.3701    3.8261 H         1 MOL     0.0273
     50 H          25.0288    7.8222    2.8455 H         1 MOL     0.0273
     51 H          25.3672    4.9218    1.8526 H         1 MOL     0.0273
     52 H          24.7756    6.3747    0.8709 H         1 MOL     0.0273
     53 H          15.7253    6.6518    4.6295 H         1 MOL     0.0646
     54 H          14.0521    7.8171    5.9924 H         1 MOL     0.0621
     55 H          11.5161   11.3454    4.1471 H         1 MOL     0.1921
@<TRIPOS>BOND
     1    1   17 am
     2    1   18 1 
     3    1   21 1 
     4    2   19 1 
     5    2   20 1 
     6    2   22 am
     7    3    4 ar
     8    3   12 ar
     9    4    5 ar
    10    4   55 1 
    11    5    6 ar
    12    5   29 2 
    13    6    7 ar
    14    6   11 ar
    15    7    8 ar
    16    7   33 1 
    17    8    9 ar
    18    8   34 1 
    19    9   10 ar
    20    9   35 1 
    21   10   11 ar
    22   10   36 1 
    23   11   12 ar
    24   12   13 1 
    25   13   14 1 
    26   13   37 1 
    27   13   38 1 
    28   14   15 ar
    29   14   28 ar
    30   15   16 ar
    31   15   39 1 
    32   16   17 1 
    33   16   26 ar
    34   17   31 2 
    35   18   19 1 
    36   18   40 1 
    37   18   41 1 
    38   19   42 1 
    39   19   43 1 
    40   20   21 1 
    41   20   44 1 
    42   20   45 1 
    43   21   46 1 
    44   21   47 1 
    45   22   23 1 
    46   22   30 2 
    47   23   24 1 
    48   23   25 1 
    49   23   48 1 
    50   24   25 1 
    51   24   49 1 
    52   24   50 1 
    53   25   51 1 
    54   25   52 1 
    55   26   27 ar
    56   26   32 1 
    57   27   28 ar
    58   27   53 1 
    59   28   54 1 
@<TRIPOS>SUBSTRUCTURE
1 MOL         1
@<TRIPOS>MOLECULE
query molecule
   55    59     1     0     0
SMALL
NO_CHARGE

@<TRIPOS>ATOM
      1 N          -1.8905    7.1119    8.5330 N.am      1 MOL    -0.2945
      2 N          -2.4653    8.9337   10.6513 N.am      1 MOL    -0.2983
      3 N          -2.2005    1.6985    5.1440 N.ar      1 MOL    -0.1750
      4 N          -2.0082    0.5879    5.8412 N.ar      1 MOL    -0.2425
      5 C          -3.0191   -0.3891    5.9392 C.ar      1 MOL     0.2725
      6 C          -4.2305   -0.1741    5.2500 C.ar      1 MOL     0.0496
      7 C          -5.2376   -1.1433    5.2296 C.ar      1 MOL     0.0138
      8 C          -6.4413   -0.8943    4.5722 C.ar      1 MOL     0.0008
      9 C          -6.6426    0.3282    3.9292 C.ar      1 MOL     0.0007
     10 C          -5.6367    1.2958    3.9276 C.ar      1 MOL     0.0103
     11 C          -4.4124    1.0610    4.5665 C.ar      1 MOL     0.0106
     12 C          -3.3796    2.0047    4.5452 C.ar      1 MOL     0.0736
     13 C          -3.4953    3.3339    3.8919 C.3       1 MOL     0.0925
     14 C          -3.7075    4.4130    4.8894 C.ar      1 MOL    -0.0406
     15 C          -2.6834    4.8114    5.7506 C.ar      1 MOL     0.0196
     16 C          -2.8513    5.8859    6.6448 C.ar      1 MOL     0.0723
     17 C          -1.6822    6.2843    7.4735 C.2       1 MOL     0.2495
     18 C          -0.9016    8.1388    8.8472 C.3       1 MOL     0.1268
     19 C          -1.5537    9.3407    9.5917 C.3       1 MOL     0.1265
     20 C          -3.2962    7.7410   10.4653 C.3       1 MOL     0.1265
     21 C          -2.5971    6.5904    9.7026 C.3       1 MOL     0.1268
     22 C          -2.7041    9.6821   11.7685 C.2       1 MOL     0.2187
     23 C          -2.2163   11.0808   11.8157 C.3       1 MOL     0.0752
     24 C          -0.7879   11.2270   12.1981 C.3       1 MOL     0.0134
     25 C          -1.8681   11.5323   13.1950 C.3       1 MOL     0.0134
     26 C          -4.0855    6.5331    6.6706 C.ar      1 MOL     0.1355
     27 C          -5.1316    6.1222    5.8387 C.ar      1 MOL     0.0392
     28 C          -4.9431    5.0641    4.9490 C.ar      1 MOL     0.0066
     29 O          -2.8070   -1.3788    6.6537 O.2       1 MOL    -0.2658
     30 O          -3.4104    9.2569   12.6948 O.2       1 MOL    -0.2753
     31 O          -0.5541    5.9464    7.0880 O.2       1 MOL    -0.2699
     32 F          -4.3153    7.5918    7.4818 F         1 MOL    -0.2047
     33 H          -5.0889   -2.0874    5.7375 H         1 MOL     0.0625
     34 H          -7.2175   -1.6448    4.5576 H         1 MOL     0.0618
     35 H          -7.5773    0.5273    3.4258 H         1 MOL     0.0618
     36 H          -5.7982    2.2387    3.4236 H         1 MOL     0.0624
     37 H          -4.3499    3.3155    3.1952 H         1 MOL     0.0377
     38 H          -2.5524    3.5381    3.3514 H         1 MOL     0.0377
     39 H          -1.7337    4.2929    5.7229 H         1 MOL     0.0629
     40 H          -0.3991    8.4719    7.9116 H         1 MOL     0.0480
     41 H          -0.1249    7.6771    9.5052 H         1 MOL     0.0480
     42 H          -2.1258    9.9546    8.8537 H         1 MOL     0.0480
     43 H          -0.7628    9.9966   10.0279 H         1 MOL     0.0480
     44 H          -4.1833    8.0509    9.8552 H         1 MOL     0.0480
     45 H          -3.6771    7.3967   11.4529 H         1 MOL     0.0480
     46 H          -3.3384    5.8258    9.3778 H         1 MOL     0.0480
     47 H          -1.8552    6.0861   10.3670 H         1 MOL     0.0480
     48 H          -2.6881   11.7513   11.1370 H         1 MOL     0.0394
     49 H          -0.2686   12.0916   11.7968 H         1 MOL     0.0273
     50 H          -0.2069   10.3342   12.3786 H         1 MOL     0.0273
     51 H          -2.0558   12.5755   13.4206 H         1 MOL     0.0273
     52 H          -1.9788   10.8223   14.0052 H         1 MOL     0.0273
     53 H          -6.0831    6.6314    5.8783 H         1 MOL     0.0646
     54 H          -5.7483    4.7537    4.3000 H         1 MOL     0.0621
     55 H          -1.2246    0.5191    6.4694 H         1 MOL     0.1921
@<TRIPOS>BOND
     1    1   17 am
     2    1   18 1 
     3    1   21 1 
     4    2   19 1 
     5    2   20 1 
     6    2   22 am
     7    3    4 ar
     8    3   12 ar
     9    4    5 ar
    10    4   55 1 
    11    5    6 ar
    12    5   29 2 
    13    6    7 ar
    14    6   11 ar
    15    7    8 ar
    16    7   33 1 
    17    8    9 ar
    18    8   34 1 
    19    9   10 ar
    20    9   35 1 
    21   10   11 ar
    22   10   36 1 
    23   11   12 ar
    24   12   13 1 
    25   13   14 1 
    26   13   37 1 
    27   13   38 1 
    28   14   15 ar
    29   14   28 ar
    30   15   16 ar
    31   15   39 1 
    32   16   17 1 
    33   16   26 ar
    34   17   31 2 
    35   18   19 1 
    36   18   40 1 
    37   18   41 1 
    38   19   42 1 
    39   19   43 1 
    40   20   21 1 
    41   20   44 1 
    42   20   45 1 
    43   21   46 1 
    44   21   47 1 
    45   22   23 1 
    46   22   30 2 
    47   23   24 1 
    48   23   25 1 
    49   23   48 1 
    50   24   25 1 
    51   24   49 1 
    52   24   50 1 
    53   25   51 1 
    54   25   52 1 
    55   26   27 ar
    56   26   32 1 
    57   27   28 ar
    58   27   53 1 
    59   28   54 1 
@<TRIPOS>SUBSTRUCTURE
1 MOL         1
@<TRIPOS>MOLECULE
query molecule
   55    59     1     0     0
SMALL
NO_CHARGE

@<TRIPOS>ATOM
      1 N          -1.9406   14.3866   31.7027 N.am      1 MOL    -0.2945
      2 N          -2.9027   12.9080   33.9479 N.am      1 MOL    -0.2983
      3 N           1.0693   13.6930   26.5427 N.ar      1 MOL    -0.1750
      4 N           2.2965   13.4162   26.9571 N.ar      1 MOL    -0.2425
      5 C           3.3171   14.3873   26.8983 C.ar      1 MOL     0.2725
      6 C           3.0014   15.6486   26.3447 C.ar      1 MOL     0.0496
      7 C           3.9631   16.6560   26.2449 C.ar      1 MOL     0.0138
      8 C           3.6544   17.8826   25.6615 C.ar      1 MOL     0.0008
      9 C           2.3679   18.1189   25.1772 C.ar      1 MOL     0.0007
     10 C           1.3857   17.1327   25.2907 C.ar      1 MOL     0.0103
     11 C           1.6754   15.8919   25.8800 C.ar      1 MOL     0.0106
     12 C           0.6954   14.9015   26.0369 C.ar      1 MOL     0.0736
     13 C          -0.7467   15.1329   25.7009 C.3       1 MOL     0.0925
     14 C          -1.6236   14.7812   26.8584 C.ar      1 MOL    -0.0406
     15 C          -1.2701   15.1137   28.1728 C.ar      1 MOL     0.0196
     16 C          -2.0663   14.7436   29.2702 C.ar      1 MOL     0.0723
     17 C          -1.5679   15.1144   30.6176 C.2       1 MOL     0.2495
     18 C          -1.8538   15.0014   33.0280 C.3       1 MOL     0.1268
     19 C          -2.8765   14.3617   34.0133 C.3       1 MOL     0.1265
     20 C          -2.7680   12.2561   32.6467 C.3       1 MOL     0.1265
     21 C          -1.7357   12.9407   31.7158 C.3       1 MOL     0.1268
     22 C          -3.1494   12.0985   35.0148 C.2       1 MOL     0.2187
     23 C          -3.6244   12.6946   36.2874 C.3       1 MOL     0.0752
     24 C          -4.7369   11.8837   36.8708 C.3       1 MOL     0.0134
     25 C          -5.0339   13.1750   36.1689 C.3       1 MOL     0.0134
     26 C          -3.2593   14.0708   29.0210 C.ar      1 MOL     0.1355
     27 C          -3.6402   13.7461   27.7138 C.ar      1 MOL     0.0392
     28 C          -2.8223   14.0948   26.6348 C.ar      1 MOL     0.0066
     29 O           4.4405   14.0790   27.3304 O.2       1 MOL    -0.2658
     30 O          -2.9956   10.8671   34.9726 O.2       1 MOL    -0.2753
     31 O          -0.8899   16.1481   30.7045 O.2       1 MOL    -0.2699
     32 F          -4.0881   13.7185   30.0333 F         1 MOL    -0.2047
     33 H           4.9606   16.4764   26.6217 H         1 MOL     0.0625
     34 H           4.4123   18.6480   25.5867 H         1 MOL     0.0618
     35 H           2.1333   19.0680   24.7181 H         1 MOL     0.0618
     36 H           0.3889   17.3320   24.9217 H         1 MOL     0.0624
     37 H          -1.0217   14.5050   24.8369 H         1 MOL     0.0377
     38 H          -0.8868   16.2039   25.4646 H         1 MOL     0.0377
     39 H          -0.3504   15.6583   28.3486 H         1 MOL     0.0629
     40 H          -2.0301   16.0979   32.9368 H         1 MOL     0.0480
     41 H          -0.8144   14.8549   33.4095 H         1 MOL     0.0480
     42 H          -3.8975   14.7339   33.7552 H         1 MOL     0.0480
     43 H          -2.6582   14.6751   35.0610 H         1 MOL     0.0480
     44 H          -3.7668   12.3141   32.1438 H         1 MOL     0.0480
     45 H          -2.5301   11.1789   32.7982 H         1 MOL     0.0480
     46 H          -1.8215   12.5487   30.6770 H         1 MOL     0.0480
     47 H          -0.7001   12.7378   32.0781 H         1 MOL     0.0480
     48 H          -2.9066   13.1799   36.8901 H         1 MOL     0.0394
     49 H          -4.8438   11.8838   37.9480 H         1 MOL     0.0273
     50 H          -5.0068   10.9763   36.3434 H         1 MOL     0.0273
     51 H          -5.3306   14.0054   36.7981 H         1 MOL     0.0273
     52 H          -5.4914   13.1055   35.1892 H         1 MOL     0.0273
     53 H          -4.5689   13.2240   27.5369 H         1 MOL     0.0646
     54 H          -3.1134   13.8361   25.6275 H         1 MOL     0.0621
     55 H           2.5408   12.5142   27.3296 H         1 MOL     0.1921
@<TRIPOS>BOND
     1    1   17 am
     2    1   18 1 
     3    1   21 1 
     4    2   19 1 
     5    2   20 1 
     6    2   22 am
     7    3    4 ar
     8    3   12 ar
     9    4    5 ar
    10    4   55 1 
    11    5    6 ar
    12    5   29 2 
    13    6    7 ar
    14    6   11 ar
    15    7    8 ar
    16    7   33 1 
    17    8    9 ar
    18    8   34 1 
    19    9   10 ar
    20    9   35 1 
    21   10   11 ar
    22   10   36 1 
    23   11   12 ar
    24   12   13 1 
    25   13   14 1 
    26   13   37 1 
    27   13   38 1 
    28   14   15 ar
    29   14   28 ar
    30   15   16 ar
    31   15   39 1 
    32   16   17 1 
    33   16   26 ar
    34   17   31 2 
    35   18   19 1 
    36   18   40 1 
    37   18   41 1 
    38   19   42 1 
    39   19   43 1 
    40   20   21 1 
    41   20   44 1 
    42   20   45 1 
    43   21   46 1 
    44   21   47 1 
    45   22   23 1 
    46   22   30 2 
    47   23   24 1 
    48   23   25 1 
    49   23   48 1 
    50   24   25 1 
    51   24   49 1 
    52   24   50 1 
    53   25   51 1 
    54   25   52 1 
    55   26   27 ar
    56   26   32 1 
    57   27   28 ar
    58   27   53 1 
    59   28   54 1 
@<TRIPOS>SUBSTRUCTURE
1 MOL         1
@<TRIPOS>MOLECULE
query molecule
   55    59     1     0     0
SMALL
NO_CHARGE

@<TRIPOS>ATOM
      1 N         -11.1796   -7.7173    1.7113 N.am      1 MOL    -0.2945
      2 N         -13.8523   -7.4081    2.5965 N.am      1 MOL    -0.2983
      3 N          -5.4430   -7.1306   -1.5078 N.ar      1 MOL    -0.1750
      4 N          -4.3532   -7.6713   -0.9819 N.ar      1 MOL    -0.2425
      5 C          -3.9373   -8.9648   -1.3602 C.ar      1 MOL     0.2725
      6 C          -4.7041   -9.6656   -2.3160 C.ar      1 MOL     0.0496
      7 C          -4.3292  -10.9392   -2.7571 C.ar      1 MOL     0.0138
      8 C          -5.1063  -11.6155   -3.7002 C.ar      1 MOL     0.0008
      9 C          -6.2626  -11.0262   -4.2117 C.ar      1 MOL     0.0007
     10 C          -6.6456   -9.7557   -3.7807 C.ar      1 MOL     0.0103
     11 C          -5.8806   -9.0509   -2.8392 C.ar      1 MOL     0.0106
     12 C          -6.2401   -7.7572   -2.4216 C.ar      1 MOL     0.0736
     13 C          -7.4671   -7.0671   -2.9143 C.3       1 MOL     0.0925
     14 C          -8.2689   -6.5055   -1.7967 C.ar      1 MOL    -0.0406
     15 C          -8.6869   -7.3005   -0.7248 C.ar      1 MOL     0.0196
     16 C          -9.4186   -6.7509    0.3319 C.ar      1 MOL     0.0723
     17 C          -9.8499   -7.6183    1.4568 C.2       1 MOL     0.2495
     18 C         -11.6075   -8.4387    2.9032 C.3       1 MOL     0.1268
     19 C         -12.8021   -7.6982    3.5588 C.3       1 MOL     0.1265
     20 C         -13.4729   -6.8396    1.3070 C.3       1 MOL     0.1265
     21 C         -12.2063   -7.4927    0.7060 C.3       1 MOL     0.1268
     22 C         -15.1779   -7.5403    2.8756 C.2       1 MOL     0.2187
     23 C         -15.5883   -7.6460    4.2992 C.3       1 MOL     0.0752
     24 C         -16.8120   -6.8519    4.5991 C.3       1 MOL     0.0134
     25 C         -15.4623   -6.3007    4.9500 C.3       1 MOL     0.0134
     26 C          -9.7401   -5.3920    0.2971 C.ar      1 MOL     0.1355
     27 C          -9.3362   -4.5877   -0.7694 C.ar      1 MOL     0.0392
     28 C          -8.6022   -5.1454   -1.8191 C.ar      1 MOL     0.0066
     29 O          -2.9248   -9.4259   -0.8145 O.2       1 MOL    -0.2658
     30 O         -16.0485   -7.5571    1.9924 O.2       1 MOL    -0.2753
     31 O          -8.9975   -8.1660    2.1600 O.2       1 MOL    -0.2699
     32 F         -10.4577   -4.8314    1.2997 F         1 MOL    -0.2047
     33 H          -3.4331  -11.4027   -2.3714 H         1 MOL     0.0625
     34 H          -4.8122  -12.5982   -4.0393 H         1 MOL     0.0618
     35 H          -6.8583  -11.5526   -4.9441 H         1 MOL     0.0618
     36 H          -7.5428   -9.3088   -4.1880 H         1 MOL     0.0624
     37 H          -8.0897   -7.7797   -3.4816 H         1 MOL     0.0377
     38 H          -7.1430   -6.2333   -3.5644 H         1 MOL     0.0377
     39 H          -8.4360   -8.3519   -0.7161 H         1 MOL     0.0629
     40 H         -10.7485   -8.5228    3.6066 H         1 MOL     0.0480
     41 H         -11.9103   -9.4683    2.5980 H         1 MOL     0.0480
     42 H         -12.4390   -6.7323    3.9805 H         1 MOL     0.0480
     43 H         -13.2289   -8.2995    4.3956 H         1 MOL     0.0480
     44 H         -13.2520   -5.7546    1.4743 H         1 MOL     0.0480
     45 H         -14.3368   -6.9013    0.6068 H         1 MOL     0.0480
     46 H         -11.7909   -6.8626   -0.1154 H         1 MOL     0.0480
     47 H         -12.4794   -8.4837    0.2635 H         1 MOL     0.0480
     48 H         -15.3320   -8.5318    4.8112 H         1 MOL     0.0394
     49 H         -17.4252   -7.1666    5.4338 H         1 MOL     0.0273
     50 H         -17.3164   -6.4072    3.7488 H         1 MOL     0.0273
     51 H         -15.2033   -6.2679    5.9989 H         1 MOL     0.0273
     52 H         -15.0955   -5.4964    4.3205 H         1 MOL     0.0273
     53 H          -9.5892   -3.5382   -0.7850 H         1 MOL     0.0646
     54 H          -8.2893   -4.5244   -2.6460 H         1 MOL     0.0621
     55 H          -3.8094   -7.2012   -0.2804 H         1 MOL     0.1921
@<TRIPOS>BOND
     1    1   17 am
     2    1   18 1 
     3    1   21 1 
     4    2   19 1 
     5    2   20 1 
     6    2   22 am
     7    3    4 ar
     8    3   12 ar
     9    4    5 ar
    10    4   55 1 
    11    5    6 ar
    12    5   29 2 
    13    6    7 ar
    14    6   11 ar
    15    7    8 ar
    16    7   33 1 
    17    8    9 ar
    18    8   34 1 
    19    9   10 ar
    20    9   35 1 
    21   10   11 ar
    22   10   36 1 
    23   11   12 ar
    24   12   13 1 
    25   13   14 1 
    26   13   37 1 
    27   13   38 1 
    28   14   15 ar
    29   14   28 ar
    30   15   16 ar
    31   15   39 1 
    32   16   17 1 
    33   16   26 ar
    34   17   31 2 
    35   18   19 1 
    36   18   40 1 
    37   18   41 1 
    38   19   42 1 
    39   19   43 1 
    40   20   21 1 
    41   20   44 1 
    42   20   45 1 
    43   21   46 1 
    44   21   47 1 
    45   22   23 1 
    46   22   30 2 
    47   23   24 1 
    48   23   25 1 
    49   23   48 1 
    50   24   25 1 
    51   24   49 1 
    52   24   50 1 
    53   25   51 1 
    54   25   52 1 
    55   26   27 ar
    56   26   32 1 
    57   27   28 ar
    58   27   53 1 
    59   28   54 1 
@<TRIPOS>SUBSTRUCTURE
1 MOL         1
@<TRIPOS>MOLECULE
query molecule
   55    59     1     0     0
SMALL
NO_CHARGE

@<TRIPOS>ATOM
      1 N          17.4635  -15.0515    7.5206 N.am      1 MOL    -0.2945
      2 N          19.8988  -16.2847    8.3244 N.am      1 MOL    -0.2983
      3 N          16.2682  -10.7923   11.3067 N.ar      1 MOL    -0.1750
      4 N          17.0565  -10.4247   12.3126 N.ar      1 MOL    -0.2425
      5 C          17.1888   -9.0650   12.6656 C.ar      1 MOL     0.2725
      6 C          16.4634   -8.1089   11.9318 C.ar      1 MOL     0.0496
      7 C          16.5020   -6.7601   12.2918 C.ar      1 MOL     0.0138
      8 C          15.7754   -5.8260   11.5653 C.ar      1 MOL     0.0008
      9 C          15.0342   -6.2364   10.4646 C.ar      1 MOL     0.0007
     10 C          14.9902   -7.5737   10.0853 C.ar      1 MOL     0.0103
     11 C          15.6728   -8.5410   10.8330 C.ar      1 MOL     0.0106
     12 C          15.5628   -9.9108   10.5405 C.ar      1 MOL     0.0736
     13 C          14.6522  -10.3991    9.4512 C.3       1 MOL     0.0925
     14 C          15.4217  -11.0075    8.3475 C.ar      1 MOL    -0.0406
     15 C          15.4494  -12.4011    8.2303 C.ar      1 MOL     0.0196
     16 C          16.2221  -13.0043    7.2324 C.ar      1 MOL     0.0723
     17 C          16.2764  -14.4830    7.1764 C.2       1 MOL     0.2495
     18 C          18.0867  -16.0034    6.6054 C.3       1 MOL     0.1268
     19 C          19.6135  -16.1074    6.9041 C.3       1 MOL     0.1265
     20 C          19.1368  -15.5009    9.2967 C.3       1 MOL     0.1265
     21 C          17.6309  -15.3956    8.9354 C.3       1 MOL     0.1268
     22 C          20.9002  -17.0789    8.8003 C.2       1 MOL     0.2187
     23 C          21.8727  -17.6397    7.8336 C.3       1 MOL     0.0752
     24 C          22.9464  -18.4665    8.4433 C.3       1 MOL     0.0134
     25 C          23.2164  -17.0342    8.0976 C.3       1 MOL     0.0134
     26 C          16.9278  -12.2090    6.3296 C.ar      1 MOL     0.1355
     27 C          16.8770  -10.8158    6.4228 C.ar      1 MOL     0.0392
     28 C          16.1237  -10.2130    7.4347 C.ar      1 MOL     0.0066
     29 O          17.9391   -8.7789   13.6092 O.2       1 MOL    -0.2658
     30 O          21.0225  -17.3511   10.0039 O.2       1 MOL    -0.2753
     31 O          15.2911  -15.1195    6.7972 O.2       1 MOL    -0.2699
     32 F          17.6664  -12.7772    5.3476 F         1 MOL    -0.2047
     33 H          17.0962   -6.4389   13.1330 H         1 MOL     0.0625
     34 H          15.7897   -4.7833   11.8377 H         1 MOL     0.0618
     35 H          14.4720   -5.5107    9.8915 H         1 MOL     0.0618
     36 H          14.4071   -7.8728    9.2242 H         1 MOL     0.0624
     37 H          14.0740   -9.5440    9.0590 H         1 MOL     0.0377
     38 H          13.9720  -11.1615    9.8743 H         1 MOL     0.0377
     39 H          14.8870  -13.0107    8.9221 H         1 MOL     0.0629
     40 H          17.9031  -15.6774    5.5571 H         1 MOL     0.0480
     41 H          17.6008  -16.9975    6.7511 H         1 MOL     0.0480
     42 H          20.0891  -15.1484    6.5810 H         1 MOL     0.0480
     43 H          20.0881  -16.9325    6.3254 H         1 MOL     0.0480
     44 H          19.5583  -14.4636    9.2976 H         1 MOL     0.0480
     45 H          19.2894  -15.9247   10.3141 H         1 MOL     0.0480
     46 H          17.1190  -14.6372    9.5685 H         1 MOL     0.0480
     47 H          17.1388  -16.3821    9.1157 H         1 MOL     0.0480
     48 H          21.5228  -17.7833    6.8450 H         1 MOL     0.0394
     49 H          23.4162  -19.2052    7.8033 H         1 MOL     0.0273
     50 H          22.8533  -18.7052    9.4951 H         1 MOL     0.0273
     51 H          23.8432  -16.8473    7.2359 H         1 MOL     0.0273
     52 H          23.2902  -16.3427    8.9293 H         1 MOL     0.0273
     53 H          17.4208  -10.2054    5.7187 H         1 MOL     0.0646
     54 H          16.0842   -9.1373    7.5177 H         1 MOL     0.0621
     55 H          17.5727  -11.0777   12.8803 H         1 MOL     0.1921
@<TRIPOS>BOND
     1    1   17 am
     2    1   18 1 
     3    1   21 1 
     4    2   19 1 
     5    2   20 1 
     6    2   22 am
     7    3    4 ar
     8    3   12 ar
     9    4    5 ar
    10    4   55 1 
    11    5    6 ar
    12    5   29 2 
    13    6    7 ar
    14    6   11 ar
    15    7    8 ar
    16    7   33 1 
    17    8    9 ar
    18    8   34 1 
    19    9   10 ar
    20    9   35 1 
    21   10   11 ar
    22   10   36 1 
    23   11   12 ar
    24   12   13 1 
    25   13   14 1 
    26   13   37 1 
    27   13   38 1 
    28   14   15 ar
    29   14   28 ar
    30   15   16 ar
    31   15   39 1 
    32   16   17 1 
    33   16   26 ar
    34   17   31 2 
    35   18   19 1 
    36   18   40 1 
    37   18   41 1 
    38   19   42 1 
    39   19   43 1 
    40   20   21 1 
    41   20   44 1 
    42   20   45 1 
    43   21   46 1 
    44   21   47 1 
    45   22   23 1 
    46   22   30 2 
    47   23   24 1 
    48   23   25 1 
    49   23   48 1 
    50   24   25 1 
    51   24   49 1 
    52   24   50 1 
    53   25   51 1 
    54   25   52 1 
    55   26   27 ar
    56   26   32 1 
    57   27   28 ar
    58   27   53 1 
    59   28   54 1 
@<TRIPOS>SUBSTRUCTURE
1 MOL         1
@<TRIPOS>MOLECULE
query molecule
   55    59     1     0     0
SMALL
NO_CHARGE

@<TRIPOS>ATOM
      1 N          12.1704    9.1205    6.9768 N.am      1 MOL    -0.2945
      2 N          14.9552    9.5999    7.1901 N.am      1 MOL    -0.2983
      3 N          11.8937    9.9964    0.7722 N.ar      1 MOL    -0.1750
      4 N          12.0227    9.5293   -0.4568 N.ar      1 MOL    -0.2425
      5 C          11.6763   10.3530   -1.5404 C.ar      1 MOL     0.2725
      6 C          11.2087   11.6581   -1.2760 C.ar      1 MOL     0.0496
      7 C          10.8509   12.5072   -2.3276 C.ar      1 MOL     0.0138
      8 C          10.4106   13.8036   -2.0620 C.ar      1 MOL     0.0008
      9 C          10.3246   14.2571   -0.7441 C.ar      1 MOL     0.0007
     10 C          10.6693   13.4129    0.3143 C.ar      1 MOL     0.0103
     11 C          11.1093   12.1038    0.0734 C.ar      1 MOL     0.0106
     12 C          11.4518   11.2335    1.1147 C.ar      1 MOL     0.0736
     13 C          11.3556   11.6082    2.5564 C.3       1 MOL     0.0925
     14 C          10.5729   10.6293    3.3568 C.ar      1 MOL    -0.0406
     15 C          11.0528   10.2104    4.6017 C.ar      1 MOL     0.0196
     16 C          10.3240    9.3146    5.4062 C.ar      1 MOL     0.0723
     17 C          10.8551    8.8723    6.7294 C.2       1 MOL     0.2495
     18 C          13.0069    8.0427    7.4923 C.3       1 MOL     0.1268
     19 C          14.4702    8.2394    6.9911 C.3       1 MOL     0.1265
     20 C          14.0500   10.7273    6.9527 C.3       1 MOL     0.1265
     21 C          12.5863   10.4553    7.3916 C.3       1 MOL     0.1268
     22 C          16.2520    9.9078    7.4926 C.2       1 MOL     0.2187
     23 C          17.2594    8.8276    7.4586 C.3       1 MOL     0.0752
     24 C          18.6682    9.2818    7.3534 C.3       1 MOL     0.0134
     25 C          17.9499    8.7737    6.1353 C.3       1 MOL     0.0134
     26 C           9.1019    8.8411    4.9234 C.ar      1 MOL     0.1355
     27 C           8.6329    9.2162    3.6698 C.ar      1 MOL     0.0392
     28 C           9.3584   10.1178    2.8965 C.ar      1 MOL     0.0066
     29 O          11.8125    9.8939   -2.6821 O.2       1 MOL    -0.2658
     30 O          16.6071   11.0558    7.8024 O.2       1 MOL    -0.2753
     31 O          10.1574    8.1860    7.4860 O.2       1 MOL    -0.2699
     32 F           8.3249    8.0078    5.6554 F         1 MOL    -0.2047
     33 H          10.9193   12.1574   -3.3475 H         1 MOL     0.0625
     34 H          10.1377   14.4551   -2.8794 H         1 MOL     0.0618
     35 H           9.9895   15.2646   -0.5456 H         1 MOL     0.0618
     36 H          10.5967   13.7747    1.3302 H         1 MOL     0.0624
     37 H          10.8609   12.5944    2.6299 H         1 MOL     0.0377
     38 H          12.3801   11.6599    2.9707 H         1 MOL     0.0377
     39 H          12.0040   10.5861    4.9577 H         1 MOL     0.0629
     40 H          12.5955    7.0631    7.1591 H         1 MOL     0.0480
     41 H          12.9656    8.0721    8.6070 H         1 MOL     0.0480
     42 H          14.5021    8.0105    5.8978 H         1 MOL     0.0480
     43 H          15.1576    7.5264    7.5043 H         1 MOL     0.0480
     44 H          14.0530   10.9338    5.8531 H         1 MOL     0.0480
     45 H          14.4557   11.6306    7.4642 H         1 MOL     0.0480
     46 H          11.8906   11.2106    6.9647 H         1 MOL     0.0480
     47 H          12.5158   10.5049    8.5047 H         1 MOL     0.0480
     48 H          16.9938    7.9274    7.9581 H         1 MOL     0.0394
     49 H          19.4301    8.6279    7.7634 H         1 MOL     0.0273
     50 H          18.8444   10.3479    7.4183 H         1 MOL     0.0273
     51 H          18.2810    7.8067    5.7738 H         1 MOL     0.0273
     52 H          17.6855    9.5179    5.3946 H         1 MOL     0.0273
     53 H           7.7002    8.8173    3.2985 H         1 MOL     0.0646
     54 H           8.9821   10.4222    1.9295 H         1 MOL     0.0621
     55 H          12.2963    8.5806   -0.6498 H         1 MOL     0.1921
@<TRIPOS>BOND
     1    1   17 am
     2    1   18 1 
     3    1   21 1 
     4    2   19 1 
     5    2   20 1 
     6    2   22 am
     7    3    4 ar
     8    3   12 ar
     9    4    5 ar
    10    4   55 1 
    11    5    6 ar
    12    5   29 2 
    13    6    7 ar
    14    6   11 ar
    15    7    8 ar
    16    7   33 1 
    17    8    9 ar
    18    8   34 1 
    19    9   10 ar
    20    9   35 1 
    21   10   11 ar
    22   10   36 1 
    23   11   12 ar
    24   12   13 1 
    25   13   14 1 
    26   13   37 1 
    27   13   38 1 
    28   14   15 ar
    29   14   28 ar
    30   15   16 ar
    31   15   39 1 
    32   16   17 1 
    33   16   26 ar
    34   17   31 2 
    35   18   19 1 
    36   18   40 1 
    37   18   41 1 
    38   19   42 1 
    39   19   43 1 
    40   20   21 1 
    41   20   44 1 
    42   20   45 1 
    43   21   46 1 
    44   21   47 1 
    45   22   23 1 
    46   22   30 2 
    47   23   24 1 
    48   23   25 1 
    49   23   48 1 
    50   24   25 1 
    51   24   49 1 
    52   24   50 1 
    53   25   51 1 
    54   25   52 1 
    55   26   27 ar
    56   26   32 1 
    57   27   28 ar
    58   27   53 1 
    59   28   54 1 
@<TRIPOS>SUBSTRUCTURE
1 MOL         1
@<TRIPOS>MOLECULE
query molecule
   55    59     1     0     0
SMALL
NO_CHARGE

@<TRIPOS>ATOM
      1 N           1.3831   -4.5602   -1.3844 N.am      1 MOL    -0.2945
      2 N           3.1228   -3.0060   -3.0488 N.am      1 MOL    -0.2983
      3 N          -0.4118   -0.1828    1.8002 N.ar      1 MOL    -0.1750
      4 N          -0.4234    1.0982    1.4522 N.ar      1 MOL    -0.2425
      5 C          -1.1453    2.0465    2.2025 C.ar      1 MOL     0.2725
      6 C          -1.8699    1.5963    3.3280 C.ar      1 MOL     0.0496
      7 C          -2.5651    2.5007    4.1372 C.ar      1 MOL     0.0138
      8 C          -3.2900    2.0434    5.2344 C.ar      1 MOL     0.0008
      9 C          -3.3235    0.6781    5.5333 C.ar      1 MOL     0.0007
     10 C          -2.6203   -0.2354    4.7337 C.ar      1 MOL     0.0103
     11 C          -1.8815    0.2040    3.6285 C.ar      1 MOL     0.0106
     12 C          -1.1560   -0.6933    2.8223 C.ar      1 MOL     0.0736
     13 C          -1.1623   -2.1597    3.1007 C.3       1 MOL     0.0925
     14 C          -1.3902   -2.9979    1.9021 C.ar      1 MOL    -0.0406
     15 C          -0.3039   -3.5959    1.2582 C.ar      1 MOL     0.0196
     16 C          -0.4919   -4.4822    0.1898 C.ar      1 MOL     0.0723
     17 C           0.6859   -5.1645   -0.3927 C.2       1 MOL     0.2495
     18 C           2.6239   -5.1660   -1.8633 C.3       1 MOL     0.1268
     19 C           3.6759   -4.0790   -2.2342 C.3       1 MOL     0.1265
     20 C           1.7886   -2.4953   -2.7189 C.3       1 MOL     0.1265
     21 C           0.7830   -3.6099   -2.3091 C.3       1 MOL     0.1268
     22 C           3.8279   -2.3672   -4.0299 C.2       1 MOL     0.2187
     23 C           5.2224   -2.7980   -4.3058 C.3       1 MOL     0.0752
     24 C           5.6867   -2.3998   -5.6666 C.3       1 MOL     0.0134
     25 C           5.2891   -3.8213   -5.3881 C.3       1 MOL     0.0134
     26 C          -1.7840   -4.7173   -0.2739 C.ar      1 MOL     0.1355
     27 C          -2.8783   -4.0933    0.3326 C.ar      1 MOL     0.0392
     28 C          -2.6818   -3.2383    1.4250 C.ar      1 MOL     0.0066
     29 O          -1.1180    3.2283    1.8260 O.2       1 MOL    -0.2658
     30 O           3.3599   -1.4021   -4.6565 O.2       1 MOL    -0.2753
     31 O           1.0225   -6.2309    0.1335 O.2       1 MOL    -0.2699
     32 F          -1.9913   -5.5493   -1.3222 F         1 MOL    -0.2047
     33 H          -2.5377    3.5568    3.9095 H         1 MOL     0.0625
     34 H          -3.8223    2.7483    5.8584 H         1 MOL     0.0618
     35 H          -3.8949    0.3319    6.3841 H         1 MOL     0.0618
     36 H          -2.6627   -1.2845    4.9798 H         1 MOL     0.0624
     37 H          -1.9757   -2.3650    3.8241 H         1 MOL     0.0377
     38 H          -0.1859   -2.4375    3.5426 H         1 MOL     0.0377
     39 H           0.7017   -3.4038    1.6112 H         1 MOL     0.0629
     40 H           2.3823   -5.7763   -2.7672 H         1 MOL     0.0480
     41 H           3.0241   -5.8549   -1.0846 H         1 MOL     0.0480
     42 H           4.5429   -4.5301   -2.7688 H         1 MOL     0.0480
     43 H           4.0604   -3.6259   -1.2863 H         1 MOL     0.0480
     44 H           1.3942   -1.9233   -3.5930 H         1 MOL     0.0480
     45 H           1.8965   -1.7763   -1.8699 H         1 MOL     0.0480
     46 H           0.4753   -4.1747   -3.2235 H         1 MOL     0.0480
     47 H          -0.1350   -3.1778   -1.8514 H         1 MOL     0.0480
     48 H           5.8861   -2.8032   -3.4813 H         1 MOL     0.0394
     49 H           6.7423   -2.1982   -5.7909 H         1 MOL     0.0273
     50 H           4.9951   -1.8103   -6.2589 H         1 MOL     0.0273
     51 H           6.0990   -4.5401   -5.3427 H         1 MOL     0.0273
     52 H           4.3459   -4.1570   -5.8014 H         1 MOL     0.0273
     53 H          -3.8765   -4.2710   -0.0398 H         1 MOL     0.0646
     54 H          -3.5286   -2.7660    1.9003 H         1 MOL     0.0621
     55 H           0.0965    1.4434    0.6641 H         1 MOL     0.1921
@<TRIPOS>BOND
     1    1   17 am
     2    1   18 1 
     3    1   21 1 
     4    2   19 1 
     5    2   20 1 
     6    2   22 am
     7    3    4 ar
     8    3   12 ar
     9    4    5 ar
    10    4   55 1 
    11    5    6 ar
    12    5   29 2 
    13    6    7 ar
    14    6   11 ar
    15    7    8 ar
    16    7   33 1 
    17    8    9 ar
    18    8   34 1 
    19    9   10 ar
    20    9   35 1 
    21   10   11 ar
    22   10   36 1 
    23   11   12 ar
    24   12   13 1 
    25   13   14 1 
    26   13   37 1 
    27   13   38 1 
    28   14   15 ar
    29   14   28 ar
    30   15   16 ar
    31   15   39 1 
    32   16   17 1 
    33   16   26 ar
    34   17   31 2 
    35   18   19 1 
    36   18   40 1 
    37   18   41 1 
    38   19   42 1 
    39   19   43 1 
    40   20   21 1 
    41   20   44 1 
    42   20   45 1 
    43   21   46 1 
    44   21   47 1 
    45   22   23 1 
    46   22   30 2 
    47   23   24 1 
    48   23   25 1 
    49   23   48 1 
    50   24   25 1 
    51   24   49 1 
    52   24   50 1 
    53   25   51 1 
    54   25   52 1 
    55   26   27 ar
    56   26   32 1 
    57   27   28 ar
    58   27   53 1 
    59   28   54 1 
@<TRIPOS>SUBSTRUCTURE
1 MOL         1
@<TRIPOS>MOLECULE
query molecule
   55    59     1     0     0
SMALL
NO_CHARGE

@<TRIPOS>ATOM
      1 N          29.0171    9.1348   20.6568 N.am      1 MOL    -0.2945
      2 N          26.3849    9.4713   21.7447 N.am      1 MOL    -0.2983
      3 N          30.3114    3.5476   16.9440 N.ar      1 MOL    -0.1750
      4 N          29.8136    2.3776   16.5532 N.ar      1 MOL    -0.2425
      5 C          30.6232    1.2205   16.5058 C.ar      1 MOL     0.2725
      6 C          31.9745    1.3396   16.8955 C.ar      1 MOL     0.0496
      7 C          32.8185    0.2276   16.8944 C.ar      1 MOL     0.0138
      8 C          34.1564    0.3611   17.2664 C.ar      1 MOL     0.0008
      9 C          34.6605    1.6113   17.6253 C.ar      1 MOL     0.0007
     10 C          33.8265    2.7322   17.6189 C.ar      1 MOL     0.0103
     11 C          32.4702    2.6251   17.2714 C.ar      1 MOL     0.0106
     12 C          31.6156    3.7447   17.2895 C.ar      1 MOL     0.0736
     13 C          32.0969    5.1164   17.6158 C.3       1 MOL     0.0925
     14 C          31.7434    5.6862   18.9359 C.ar      1 MOL    -0.0406
     15 C          31.1508    6.9637   18.9874 C.ar      1 MOL     0.0196
     16 C          30.8771    7.6004   20.2199 C.ar      1 MOL     0.0723
     17 C          30.2757    8.9617   20.1687 C.2       1 MOL     0.2495
     18 C          28.0609    9.9929   19.9532 C.3       1 MOL     0.1268
     19 C          26.5814    9.6084   20.3151 C.3       1 MOL     0.1265
     20 C          27.3993    8.7350   22.4617 C.3       1 MOL     0.1265
     21 C          28.8336    9.1751   22.0993 C.3       1 MOL     0.1268
     22 C          25.3296    9.9093   22.4766 C.2       1 MOL     0.2187
     23 C          24.3508   10.7826   21.7953 C.3       1 MOL     0.0752
     24 C          23.0070   10.7077   22.4178 C.3       1 MOL     0.0134
     25 C          23.2704   10.0229   21.1089 C.3       1 MOL     0.0134
     26 C          31.2028    6.9317   21.3964 C.ar      1 MOL     0.1355
     27 C          31.7644    5.6517   21.3621 C.ar      1 MOL     0.0392
     28 C          32.0321    5.0357   20.1376 C.ar      1 MOL     0.0066
     29 O          30.1046    0.1639   16.1054 O.2       1 MOL    -0.2658
     30 O          25.2116    9.6643   23.6907 O.2       1 MOL    -0.2753
     31 O          30.8782    9.8320   19.5305 O.2       1 MOL    -0.2699
     32 F          31.0109    7.4912   22.6145 F         1 MOL    -0.2047
     33 H          32.4347   -0.7416   16.6075 H         1 MOL     0.0625
     34 H          34.8024   -0.5042   17.2807 H         1 MOL     0.0618
     35 H          35.6950    1.7106   17.9215 H         1 MOL     0.0618
     36 H          34.2289    3.6951   17.9061 H         1 MOL     0.0624
     37 H          31.6883    5.8006   16.8409 H         1 MOL     0.0377
     38 H          33.2053    5.1093   17.5430 H         1 MOL     0.0377
     39 H          30.9091    7.4713   18.0614 H         1 MOL     0.0629
     40 H          28.2400    9.9190   18.8579 H         1 MOL     0.0480
     41 H          28.2532   11.0477   20.2666 H         1 MOL     0.0480
     42 H          26.3664    8.6130   19.8478 H         1 MOL     0.0480
     43 H          25.8512   10.3426   19.9105 H         1 MOL     0.0480
     44 H          27.2885    7.6562   22.1739 H         1 MOL     0.0480
     45 H          27.2074    8.7973   23.5550 H         1 MOL     0.0480
     46 H          29.5825    8.5037   22.5772 H         1 MOL     0.0480
     47 H          29.0066   10.2110   22.4652 H         1 MOL     0.0480
     48 H          24.7341   11.6855   21.3936 H         1 MOL     0.0394
     49 H          22.4173   11.6157   22.3850 H         1 MOL     0.0273
     50 H          22.8941   10.0659   23.2804 H         1 MOL     0.0273
     51 H          22.8354   10.4894   20.2302 H         1 MOL     0.0273
     52 H          23.3099    8.9420   21.1292 H         1 MOL     0.0273
     53 H          31.9930    5.1522   22.2919 H         1 MOL     0.0646
     54 H          32.4774    4.0518   20.1264 H         1 MOL     0.0621
     55 H          28.8484    2.2604   16.2982 H         1 MOL     0.1921
@<TRIPOS>BOND
     1    1   17 am
     2    1   18 1 
     3    1   21 1 
     4    2   19 1 
     5    2   20 1 
     6    2   22 am
     7    3    4 ar
     8    3   12 ar
     9    4    5 ar
    10    4   55 1 
    11    5    6 ar
    12    5   29 2 
    13    6    7 ar
    14    6   11 ar
    15    7    8 ar
    16    7   33 1 
    17    8    9 ar
    18    8   34 1 
    19    9   10 ar
    20    9   35 1 
    21   10   11 ar
    22   10   36 1 
    23   11   12 ar
    24   12   13 1 
    25   13   14 1 
    26   13   37 1 
    27   13   38 1 
    28   14   15 ar
    29   14   28 ar
    30   15   16 ar
    31   15   39 1 
    32   16   17 1 
    33   16   26 ar
    34   17   31 2 
    35   18   19 1 
    36   18   40 1 
    37   18   41 1 
    38   19   42 1 
    39   19   43 1 
    40   20   21 1 
    41   20   44 1 
    42   20   45 1 
    43   21   46 1 
    44   21   47 1 
    45   22   23 1 
    46   22   30 2 
    47   23   24 1 
    48   23   25 1 
    49   23   48 1 
    50   24   25 1 
    51   24   49 1 
    52   24   50 1 
    53   25   51 1 
    54   25   52 1 
    55   26   27 ar
    56   26   32 1 
    57   27   28 ar
    58   27   53 1 
    59   28   54 1 
@<TRIPOS>SUBSTRUCTURE
1 MOL         1
@<TRIPOS>MOLECULE
query molecule
   55    59     1     0     0
SMALL
NO_CHARGE

@<TRIPOS>ATOM
      1 N          22.1305    6.5773   38.8030 N.am      1 MOL    -0.2945
      2 N          21.6309    4.7963   36.7600 N.am      1 MOL    -0.2983
      3 N          26.9662   11.4575   40.9440 N.ar      1 MOL    -0.1750
      4 N          28.1865   11.8661   40.6167 N.ar      1 MOL    -0.2425
      5 C          28.4216   13.1901   40.1800 C.ar      1 MOL     0.2725
      6 C          27.3263   14.0818   40.1282 C.ar      1 MOL     0.0496
      7 C          27.4880   15.4041   39.7069 C.ar      1 MOL     0.0138
      8 C          26.3907   16.2657   39.6537 C.ar      1 MOL     0.0008
      9 C          25.1265   15.8162   40.0369 C.ar      1 MOL     0.0007
     10 C          24.9527   14.4994   40.4616 C.ar      1 MOL     0.0103
     11 C          26.0361   13.6089   40.5028 C.ar      1 MOL     0.0106
     12 C          25.8707   12.2669   40.8850 C.ar      1 MOL     0.0736
     13 C          24.5254   11.7017   41.2141 C.3       1 MOL     0.0925
     14 C          23.9700   10.9118   40.0865 C.ar      1 MOL    -0.0406
     15 C          23.4334    9.6498   40.3460 C.ar      1 MOL     0.0196
     16 C          22.8927    8.8638   39.3087 C.ar      1 MOL     0.0723
     17 C          22.2661    7.5848   39.7089 C.2       1 MOL     0.2495
     18 C          21.0641    5.6078   39.0605 C.3       1 MOL     0.1268
     19 C          21.0112    4.4577   38.0288 C.3       1 MOL     0.1265
     20 C          22.9341    5.4561   36.7423 C.3       1 MOL     0.1265
     21 C          23.3175    6.0826   38.1117 C.3       1 MOL     0.1268
     22 C          21.0729    4.4415   35.5675 C.2       1 MOL     0.2187
     23 C          19.6246    4.1226   35.5560 C.3       1 MOL     0.0752
     24 C          18.9255    4.2444   34.2583 C.3       1 MOL     0.0134
     25 C          18.8562    5.3696   35.2172 C.3       1 MOL     0.0134
     26 C          22.9433    9.3535   38.0107 C.ar      1 MOL     0.1355
     27 C          23.4451   10.6248   37.7393 C.ar      1 MOL     0.0392
     28 C          23.9522   11.3952   38.7801 C.ar      1 MOL     0.0066
     29 O          29.5794   13.4978   39.8564 O.2       1 MOL    -0.2658
     30 O          21.7545    4.3494   34.5366 O.2       1 MOL    -0.2753
     31 O          21.7703    7.5503   40.8415 O.2       1 MOL    -0.2699
     32 F          22.5157    8.6228   36.9626 F         1 MOL    -0.2047
     33 H          28.4654   15.7586   39.4146 H         1 MOL     0.0625
     34 H          26.5199   17.2837   39.3167 H         1 MOL     0.0618
     35 H          24.2811   16.4876   40.0070 H         1 MOL     0.0618
     36 H          23.9704   14.1591   40.7590 H         1 MOL     0.0624
     37 H          23.8348   12.5337   41.4392 H         1 MOL     0.0377
     38 H          24.6277   11.0359   42.0910 H         1 MOL     0.0377
     39 H          23.4284    9.2740   41.3604 H         1 MOL     0.0629
     40 H          20.0929    6.1573   39.0806 H         1 MOL     0.0480
     41 H          21.2173    5.1623   40.0737 H         1 MOL     0.0480
     42 H          19.9711    4.1026   37.8595 H         1 MOL     0.0480
     43 H          21.5948    3.5991   38.4516 H         1 MOL     0.0480
     44 H          22.8960    6.2559   35.9610 H         1 MOL     0.0480
     45 H          23.7127    4.7223   36.4302 H         1 MOL     0.0480
     46 H          24.0517    6.9090   37.9900 H         1 MOL     0.0480
     47 H          23.7844    5.2989   38.7566 H         1 MOL     0.0480
     48 H          19.2833    3.4715   36.3265 H         1 MOL     0.0394
     49 H          18.0491    3.6192   34.1364 H         1 MOL     0.0273
     50 H          19.5672    4.3449   33.3943 H         1 MOL     0.0273
     51 H          17.8892    5.5110   35.6889 H         1 MOL     0.0273
     52 H          19.4270    6.2460   34.9436 H         1 MOL     0.0273
     53 H          23.4384   11.0078   36.7307 H         1 MOL     0.0646
     54 H          24.3407   12.3824   38.5719 H         1 MOL     0.0621
     55 H          28.9905   11.2652   40.6819 H         1 MOL     0.1921
@<TRIPOS>BOND
     1    1   17 am
     2    1   18 1 
     3    1   21 1 
     4    2   19 1 
     5    2   20 1 
     6    2   22 am
     7    3    4 ar
     8    3   12 ar
     9    4    5 ar
    10    4   55 1 
    11    5    6 ar
    12    5   29 2 
    13    6    7 ar
    14    6   11 ar
    15    7    8 ar
    16    7   33 1 
    17    8    9 ar
    18    8   34 1 
    19    9   10 ar
    20    9   35 1 
    21   10   11 ar
    22   10   36 1 
    23   11   12 ar
    24   12   13 1 
    25   13   14 1 
    26   13   37 1 
    27   13   38 1 
    28   14   15 ar
    29   14   28 ar
    30   15   16 ar
    31   15   39 1 
    32   16   17 1 
    33   16   26 ar
    34   17   31 2 
    35   18   19 1 
    36   18   40 1 
    37   18   41 1 
    38   19   42 1 
    39   19   43 1 
    40   20   21 1 
    41   20   44 1 
    42   20   45 1 
    43   21   46 1 
    44   21   47 1 
    45   22   23 1 
    46   22   30 2 
    47   23   24 1 
    48   23   25 1 
    49   23   48 1 
    50   24   25 1 
    51   24   49 1 
    52   24   50 1 
    53   25   51 1 
    54   25   52 1 
    55   26   27 ar
    56   26   32 1 
    57   27   28 ar
    58   27   53 1 
    59   28   54 1 
@<TRIPOS>SUBSTRUCTURE
1 MOL         1
@<TRIPOS>MOLECULE
query molecule
   55    59     1     0     0
SMALL
NO_CHARGE

@<TRIPOS>ATOM
      1 N          -2.8568    2.8301    4.0975 N.am      1 MOL    -0.2945
      2 N          -2.3231    0.0548    4.4752 N.am      1 MOL    -0.2983
      3 N          -2.8380    6.6445   10.0026 N.ar      1 MOL    -0.1750
      4 N          -3.3910    7.1308   11.1020 N.ar      1 MOL    -0.2425
      5 C          -2.9571    8.3461   11.6531 C.ar      1 MOL     0.2725
      6 C          -1.9038    9.0335   11.0213 C.ar      1 MOL     0.0496
      7 C          -1.3954   10.2129   11.5731 C.ar      1 MOL     0.0138
      8 C          -0.3512   10.8848   10.9406 C.ar      1 MOL     0.0008
      9 C           0.1796   10.3849    9.7502 C.ar      1 MOL     0.0007
     10 C          -0.3321    9.2097    9.1906 C.ar      1 MOL     0.0103
     11 C          -1.3720    8.5038    9.8109 C.ar      1 MOL     0.0106
     12 C          -1.8984    7.3120    9.2789 C.ar      1 MOL     0.0736
     13 C          -1.4647    6.7568    7.9599 C.3       1 MOL     0.0925
     14 C          -2.5805    6.2942    7.0840 C.ar      1 MOL    -0.0406
     15 C          -2.2835    5.4516    6.0011 C.ar      1 MOL     0.0196
     16 C          -3.2848    5.0089    5.1315 C.ar      1 MOL     0.0723
     17 C          -2.9253    4.1752    3.9665 C.2       1 MOL     0.2495
     18 C          -2.2795    2.0567    2.9978 C.3       1 MOL     0.1268
     19 C          -1.5185    0.8154    3.5364 C.3       1 MOL     0.1265
     20 C          -3.0020    0.7999    5.5319 C.3       1 MOL     0.1265
     21 C          -3.7142    2.0802    5.0050 C.3       1 MOL     0.1268
     22 C          -2.4054   -1.3048    4.4906 C.2       1 MOL     0.2187
     23 C          -1.6620   -2.0850    3.4716 C.3       1 MOL     0.0752
     24 C          -2.3138   -2.0193    2.1297 C.3       1 MOL     0.0134
     25 C          -2.4252   -3.2587    2.9652 C.3       1 MOL     0.0134
     26 C          -4.6038    5.3930    5.3572 C.ar      1 MOL     0.1355
     27 C          -4.9256    6.2199    6.4304 C.ar      1 MOL     0.0392
     28 C          -3.9178    6.6692    7.2775 C.ar      1 MOL     0.0066
     29 O          -3.5305    8.7540   12.6717 O.2       1 MOL    -0.2658
     30 O          -3.0304   -1.9095    5.3732 O.2       1 MOL    -0.2753
     31 O          -2.6032    4.7855    2.9410 O.2       1 MOL    -0.2699
     32 F          -5.5894    4.9731    4.5295 F         1 MOL    -0.2047
     33 H          -1.8118   10.6040   12.4896 H         1 MOL     0.0625
     34 H           0.0435   11.7935   11.3713 H         1 MOL     0.0618
     35 H           0.9861   10.9121    9.2611 H         1 MOL     0.0618
     36 H           0.0889    8.8381    8.2663 H         1 MOL     0.0624
     37 H          -0.7894    5.8996    8.1502 H         1 MOL     0.0377
     38 H          -0.9121    7.5537    7.4216 H         1 MOL     0.0377
     39 H          -1.2543    5.1528    5.8221 H         1 MOL     0.0629
     40 H          -1.6025    2.7090    2.4023 H         1 MOL     0.0480
     41 H          -3.1131    1.7237    2.3333 H         1 MOL     0.0480
     42 H          -0.6030    1.1611    4.0781 H         1 MOL     0.0480
     43 H          -1.1950    0.1443    2.7095 H         1 MOL     0.0480
     44 H          -2.2282    1.1105    6.2774 H         1 MOL     0.0480
     45 H          -3.7221    0.1307    6.0543 H         1 MOL     0.0480
     46 H          -4.0312    2.7396    5.8447 H         1 MOL     0.0480
     47 H          -4.6314    1.7788    4.4438 H         1 MOL     0.0480
     48 H          -0.6067   -2.0958    3.5712 H         1 MOL     0.0394
     49 H          -1.6642   -2.0706    1.2648 H         1 MOL     0.0273
     50 H          -3.2040   -1.4075    2.0486 H         1 MOL     0.0273
     51 H          -1.8490   -4.1124    2.6272 H         1 MOL     0.0273
     52 H          -3.3873   -3.4542    3.4199 H         1 MOL     0.0273
     53 H          -5.9486    6.5158    6.6057 H         1 MOL     0.0646
     54 H          -4.1664    7.3140    8.1121 H         1 MOL     0.0621
     55 H          -4.2209    6.7365   11.5063 H         1 MOL     0.1921
@<TRIPOS>BOND
     1    1   17 am
     2    1   18 1 
     3    1   21 1 
     4    2   19 1 
     5    2   20 1 
     6    2   22 am
     7    3    4 ar
     8    3   12 ar
     9    4    5 ar
    10    4   55 1 
    11    5    6 ar
    12    5   29 2 
    13    6    7 ar
    14    6   11 ar
    15    7    8 ar
    16    7   33 1 
    17    8    9 ar
    18    8   34 1 
    19    9   10 ar
    20    9   35 1 
    21   10   11 ar
    22   10   36 1 
    23   11   12 ar
    24   12   13 1 
    25   13   14 1 
    26   13   37 1 
    27   13   38 1 
    28   14   15 ar
    29   14   28 ar
    30   15   16 ar
    31   15   39 1 
    32   16   17 1 
    33   16   26 ar
    34   17   31 2 
    35   18   19 1 
    36   18   40 1 
    37   18   41 1 
    38   19   42 1 
    39   19   43 1 
    40   20   21 1 
    41   20   44 1 
    42   20   45 1 
    43   21   46 1 
    44   21   47 1 
    45   22   23 1 
    46   22   30 2 
    47   23   24 1 
    48   23   25 1 
    49   23   48 1 
    50   24   25 1 
    51   24   49 1 
    52   24   50 1 
    53   25   51 1 
    54   25   52 1 
    55   26   27 ar
    56   26   32 1 
    57   27   28 ar
    58   27   53 1 
    59   28   54 1 
@<TRIPOS>SUBSTRUCTURE
1 MOL         1
@<TRIPOS>MOLECULE
query molecule
   55    59     1     0     0
SMALL
NO_CHARGE

@<TRIPOS>ATOM
      1 N          27.6032    6.3382    1.1115 N.am      1 MOL    -0.2945
      2 N          29.9412    7.9520    0.9705 N.am      1 MOL    -0.2983
      3 N          21.6435    4.9292    3.9515 N.ar      1 MOL    -0.1750
      4 N          21.3512    4.1613    4.9944 N.ar      1 MOL    -0.2425
      5 C          20.9324    4.7205    6.2213 C.ar      1 MOL     0.2725
      6 C          20.7917    6.1175    6.3072 C.ar      1 MOL     0.0496
      7 C          20.3982    6.7265    7.4912 C.ar      1 MOL     0.0138
      8 C          20.1565    8.0963    7.5514 C.ar      1 MOL     0.0008
      9 C          20.3362    8.8789    6.4114 C.ar      1 MOL     0.0007
     10 C          20.7912    8.2902    5.2300 C.ar      1 MOL     0.0103
     11 C          21.0458    6.9097    5.1622 C.ar      1 MOL     0.0106
     12 C          21.5469    6.2905    4.0030 C.ar      1 MOL     0.0736
     13 C          21.9565    7.1508    2.8614 C.3       1 MOL     0.0925
     14 C          22.9903    6.5336    2.0182 C.ar      1 MOL    -0.0406
     15 C          24.3229    6.4259    2.4132 C.ar      1 MOL     0.0196
     16 C          25.2636    5.9038    1.5164 C.ar      1 MOL     0.0723
     17 C          26.6793    5.7834    1.9239 C.2       1 MOL     0.2495
     18 C          28.8783    5.6775    0.9245 C.3       1 MOL     0.1268
     19 C          30.0043    6.5895    1.4571 C.3       1 MOL     0.1265
     20 C          28.6277    8.5971    0.9612 C.3       1 MOL     0.1265
     21 C          27.4658    7.6583    0.5171 C.3       1 MOL     0.1268
     22 C          31.0501    8.6906    0.6628 C.2       1 MOL     0.2187
     23 C          32.3513    8.2706    1.2400 C.3       1 MOL     0.0752
     24 C          33.5286    8.8977    0.5853 C.3       1 MOL     0.0134
     25 C          33.2174    7.4482    0.3630 C.3       1 MOL     0.0134
     26 C          24.8642    5.4868    0.2385 C.ar      1 MOL     0.1355
     27 C          23.5239    5.5680   -0.1338 C.ar      1 MOL     0.0392
     28 C          22.5962    6.0716    0.7667 C.ar      1 MOL     0.0066
     29 O          20.6834    3.9506    7.1608 O.2       1 MOL    -0.2658
     30 O          30.9752    9.7577    0.0339 O.2       1 MOL    -0.2753
     31 O          26.9457    5.0706    2.8954 O.2       1 MOL    -0.2699
     32 F          25.7732    4.9803   -0.6223 F         1 MOL    -0.2047
     33 H          20.2515    6.1209    8.3759 H         1 MOL     0.0625
     34 H          19.8249    8.5469    8.4752 H         1 MOL     0.0618
     35 H          20.1289    9.9382    6.4460 H         1 MOL     0.0618
     36 H          20.9518    8.9075    4.3566 H         1 MOL     0.0624
     37 H          22.3687    8.0923    3.2764 H         1 MOL     0.0377
     38 H          21.0679    7.3657    2.2417 H         1 MOL     0.0377
     39 H          24.6270    6.7478    3.3975 H         1 MOL     0.0629
     40 H          29.0206    5.4929   -0.1670 H         1 MOL     0.0480
     41 H          28.8614    4.6929    1.4400 H         1 MOL     0.0480
     42 H          31.0144    6.1606    1.2498 H         1 MOL     0.0480
     43 H          29.8749    6.6317    2.5686 H         1 MOL     0.0480
     44 H          28.6717    9.5214    0.3440 H         1 MOL     0.0480
     45 H          28.4092    8.9068    2.0155 H         1 MOL     0.0480
     46 H          27.5060    7.5409   -0.5945 H         1 MOL     0.0480
     47 H          26.4711    8.0850    0.7738 H         1 MOL     0.0480
     48 H          32.3431    8.1207    2.2971 H         1 MOL     0.0394
     49 H          34.3670    9.1397    1.2259 H         1 MOL     0.0273
     50 H          33.3313    9.5733   -0.2342 H         1 MOL     0.0273
     51 H          33.8979    6.7606    0.8585 H         1 MOL     0.0273
     52 H          32.8461    7.1714   -0.6132 H         1 MOL     0.0273
     53 H          23.2049    5.2426   -1.1117 H         1 MOL     0.0646
     54 H          21.5517    6.1273    0.4920 H         1 MOL     0.0621
     55 H          21.3908    3.1557    4.9680 H         1 MOL     0.1921
@<TRIPOS>BOND
     1    1   17 am
     2    1   18 1 
     3    1   21 1 
     4    2   19 1 
     5    2   20 1 
     6    2   22 am
     7    3    4 ar
     8    3   12 ar
     9    4    5 ar
    10    4   55 1 
    11    5    6 ar
    12    5   29 2 
    13    6    7 ar
    14    6   11 ar
    15    7    8 ar
    16    7   33 1 
    17    8    9 ar
    18    8   34 1 
    19    9   10 ar
    20    9   35 1 
    21   10   11 ar
    22   10   36 1 
    23   11   12 ar
    24   12   13 1 
    25   13   14 1 
    26   13   37 1 
    27   13   38 1 
    28   14   15 ar
    29   14   28 ar
    30   15   16 ar
    31   15   39 1 
    32   16   17 1 
    33   16   26 ar
    34   17   31 2 
    35   18   19 1 
    36   18   40 1 
    37   18   41 1 
    38   19   42 1 
    39   19   43 1 
    40   20   21 1 
    41   20   44 1 
    42   20   45 1 
    43   21   46 1 
    44   21   47 1 
    45   22   23 1 
    46   22   30 2 
    47   23   24 1 
    48   23   25 1 
    49   23   48 1 
    50   24   25 1 
    51   24   49 1 
    52   24   50 1 
    53   25   51 1 
    54   25   52 1 
    55   26   27 ar
    56   26   32 1 
    57   27   28 ar
    58   27   53 1 
    59   28   54 1 
@<TRIPOS>SUBSTRUCTURE
1 MOL         1
@<TRIPOS>MOLECULE
query molecule
   55    59     1     0     0
SMALL
NO_CHARGE

@<TRIPOS>ATOM
      1 N         -12.5279   -5.5335   18.3643 N.am      1 MOL    -0.2945
      2 N         -10.2439   -6.7199   17.1411 N.am      1 MOL    -0.2983
      3 N          -9.9586   -3.5004   23.1623 N.ar      1 MOL    -0.1750
      4 N          -9.1107   -4.4683   23.4846 N.ar      1 MOL    -0.2425
      5 C          -8.1385   -4.9333   22.5649 C.ar      1 MOL     0.2725
      6 C          -8.1187   -4.3419   21.2792 C.ar      1 MOL     0.0496
      7 C          -7.2229   -4.7706   20.3020 C.ar      1 MOL     0.0138
      8 C          -7.2332   -4.1844   19.0363 C.ar      1 MOL     0.0008
      9 C          -8.1219   -3.1615   18.7377 C.ar      1 MOL     0.0007
     10 C          -9.0123   -2.7193   19.7039 C.ar      1 MOL     0.0103
     11 C          -9.0385   -3.2986   20.9799 C.ar      1 MOL     0.0106
     12 C          -9.9595   -2.8727   21.9517 C.ar      1 MOL     0.0736
     13 C         -10.9259   -1.7691   21.6831 C.3       1 MOL     0.0925
     14 C         -12.1969   -2.1903   21.0419 C.ar      1 MOL    -0.0406
     15 C         -12.3256   -3.3560   20.2856 C.ar      1 MOL     0.0196
     16 C         -13.5460   -3.7453   19.7157 C.ar      1 MOL     0.0723
     17 C         -13.6570   -5.0093   18.9302 C.2       1 MOL     0.2495
     18 C         -12.6550   -6.1326   17.0278 C.3       1 MOL     0.1268
     19 C         -11.2775   -6.1635   16.2893 C.3       1 MOL     0.1265
     20 C         -10.1310   -6.1719   18.4965 C.3       1 MOL     0.1265
     21 C         -11.5178   -6.1748   19.2095 C.3       1 MOL     0.1268
     22 C          -9.3537   -7.6860   16.7594 C.2       1 MOL     0.2187
     23 C          -9.4140   -8.1943   15.3621 C.3       1 MOL     0.0752
     24 C          -9.6898   -9.6614   15.3274 C.3       1 MOL     0.0134
     25 C          -8.3056   -9.1454   15.0447 C.3       1 MOL     0.0134
     26 C         -14.6544   -2.9065   19.9045 C.ar      1 MOL     0.1355
     27 C         -14.5431   -1.7186   20.6325 C.ar      1 MOL     0.0392
     28 C         -13.3179   -1.3621   21.1980 C.ar      1 MOL     0.0066
     29 O          -7.3600   -5.8202   22.9372 O.2       1 MOL    -0.2658
     30 O          -8.5093   -8.1218   17.5422 O.2       1 MOL    -0.2753
     31 O         -14.7825   -5.4707   18.7027 O.2       1 MOL    -0.2699
     32 F         -15.8651   -3.2175   19.3798 F         1 MOL    -0.2047
     33 H          -6.5194   -5.5617   20.5228 H         1 MOL     0.0625
     34 H          -6.5340   -4.5245   18.2852 H         1 MOL     0.0618
     35 H          -8.1082   -2.7064   17.7586 H         1 MOL     0.0618
     36 H          -9.6954   -1.9157   19.4672 H         1 MOL     0.0624
     37 H         -10.4284   -1.0450   21.0081 H         1 MOL     0.0377
     38 H         -11.1656   -1.2761   22.6475 H         1 MOL     0.0377
     39 H         -11.4562   -3.9868   20.1421 H         1 MOL     0.0629
     40 H         -13.4114   -5.5597   16.4448 H         1 MOL     0.0480
     41 H         -13.0315   -7.1763   17.1486 H         1 MOL     0.0480
     42 H         -10.9908   -5.1094   16.0390 H         1 MOL     0.0480
     43 H         -11.3315   -6.7342   15.3382 H         1 MOL     0.0480
     44 H          -9.7564   -5.1211   18.4287 H         1 MOL     0.0480
     45 H          -9.3834   -6.7656   19.0703 H         1 MOL     0.0480
     46 H         -11.4705   -5.6564   20.1919 H         1 MOL     0.0480
     47 H         -11.8374   -7.2299   19.3918 H         1 MOL     0.0480
     48 H          -9.8187   -7.5436   14.6321 H         1 MOL     0.0394
     49 H         -10.2157  -10.0645   14.4693 H         1 MOL     0.0273
     50 H          -9.8384  -10.1652   16.2747 H         1 MOL     0.0273
     51 H          -7.9631   -9.1911   14.0217 H         1 MOL     0.0273
     52 H          -7.5710   -9.2796   15.8324 H         1 MOL     0.0273
     53 H         -15.4032   -1.0782   20.7609 H         1 MOL     0.0646
     54 H         -13.2309   -0.4445   21.7620 H         1 MOL     0.0621
     55 H          -9.1494   -4.9459   24.3704 H         1 MOL     0.1921
@<TRIPOS>BOND
     1    1   17 am
     2    1   18 1 
     3    1   21 1 
     4    2   19 1 
     5    2   20 1 
     6    2   22 am
     7    3    4 ar
     8    3   12 ar
     9    4    5 ar
    10    4   55 1 
    11    5    6 ar
    12    5   29 2 
    13    6    7 ar
    14    6   11 ar
    15    7    8 ar
    16    7   33 1 
    17    8    9 ar
    18    8   34 1 
    19    9   10 ar
    20    9   35 1 
    21   10   11 ar
    22   10   36 1 
    23   11   12 ar
    24   12   13 1 
    25   13   14 1 
    26   13   37 1 
    27   13   38 1 
    28   14   15 ar
    29   14   28 ar
    30   15   16 ar
    31   15   39 1 
    32   16   17 1 
    33   16   26 ar
    34   17   31 2 
    35   18   19 1 
    36   18   40 1 
    37   18   41 1 
    38   19   42 1 
    39   19   43 1 
    40   20   21 1 
    41   20   44 1 
    42   20   45 1 
    43   21   46 1 
    44   21   47 1 
    45   22   23 1 
    46   22   30 2 
    47   23   24 1 
    48   23   25 1 
    49   23   48 1 
    50   24   25 1 
    51   24   49 1 
    52   24   50 1 
    53   25   51 1 
    54   25   52 1 
    55   26   27 ar
    56   26   32 1 
    57   27   28 ar
    58   27   53 1 
    59   28   54 1 
@<TRIPOS>SUBSTRUCTURE
1 MOL         1
@<TRIPOS>MOLECULE
query molecule
   55    59     1     0     0
SMALL
NO_CHARGE

@<TRIPOS>ATOM
      1 N          27.1843    4.3260   15.1643 N.am      1 MOL    -0.2945
      2 N          26.1199    1.7498   15.7777 N.am      1 MOL    -0.2983
      3 N          31.2536    4.7220   19.2016 N.ar      1 MOL    -0.1750
      4 N          31.3733    4.8983   20.5153 N.ar      1 MOL    -0.2425
      5 C          32.6440    5.0851   21.1011 C.ar      1 MOL     0.2725
      6 C          33.7591    5.1904   20.2425 C.ar      1 MOL     0.0496
      7 C          35.0275    5.4768   20.7573 C.ar      1 MOL     0.0138
      8 C          36.1209    5.5901   19.8982 C.ar      1 MOL     0.0008
      9 C          35.9519    5.4171   18.5233 C.ar      1 MOL     0.0007
     10 C          34.6900    5.1226   17.9997 C.ar      1 MOL     0.0103
     11 C          33.5729    4.9974   18.8392 C.ar      1 MOL     0.0106
     12 C          32.3008    4.6696   18.3331 C.ar      1 MOL     0.0736
     13 C          32.0923    4.2240   16.9291 C.3       1 MOL     0.0925
     14 C          31.3038    5.1055   16.0471 C.ar      1 MOL    -0.0406
     15 C          29.9120    4.9776   15.9524 C.ar      1 MOL     0.0196
     16 C          29.1648    5.7508   15.0437 C.ar      1 MOL     0.0723
     17 C          27.6910    5.5638   14.8877 C.2       1 MOL     0.2495
     18 C          26.2607    3.7096   14.2085 C.3       1 MOL     0.1268
     19 C          26.2375    2.1569   14.3850 C.3       1 MOL     0.1265
     20 C          26.9906    2.4285   16.7362 C.3       1 MOL     0.1265
     21 C          26.9146    3.9752   16.5571 C.3       1 MOL     0.1268
     22 C          25.3268    0.7422   16.2290 C.2       1 MOL     0.2187
     23 C          24.2310    0.2471   15.3579 C.3       1 MOL     0.0752
     24 C          22.9388    0.9358   15.6320 C.3       1 MOL     0.0134
     25 C          23.1902   -0.4393   16.1790 C.3       1 MOL     0.0134
     26 C          29.8473    6.6879   14.2568 C.ar      1 MOL     0.1355
     27 C          31.2333    6.8305   14.3445 C.ar      1 MOL     0.0392
     28 C          31.9593    6.0398   15.2368 C.ar      1 MOL     0.0066
     29 O          32.7242    5.0920   22.3399 O.2       1 MOL    -0.2658
     30 O          25.5056    0.1969   17.3322 O.2       1 MOL    -0.2753
     31 O          27.0021    6.4639   14.3910 O.2       1 MOL    -0.2699
     32 F          29.1824    7.4761   13.3784 F         1 MOL    -0.2047
     33 H          35.1610    5.6107   21.8213 H         1 MOL     0.0625
     34 H          37.1002    5.8106   20.2959 H         1 MOL     0.0618
     35 H          36.7985    5.5123   17.8586 H         1 MOL     0.0618
     36 H          34.5734    4.9866   16.9329 H         1 MOL     0.0624
     37 H          31.5787    3.2402   16.9622 H         1 MOL     0.0377
     38 H          33.0932    4.0971   16.4659 H         1 MOL     0.0377
     39 H          29.4039    4.2579   16.5809 H         1 MOL     0.0629
     40 H          26.5682    3.9841   13.1732 H         1 MOL     0.0480
     41 H          25.2417    4.1295   14.3843 H         1 MOL     0.0480
     42 H          27.2161    1.7662   14.0027 H         1 MOL     0.0480
     43 H          25.4299    1.6830   13.7856 H         1 MOL     0.0480
     44 H          28.0401    2.0924   16.5604 H         1 MOL     0.0480
     45 H          26.7009    2.1282   17.7684 H         1 MOL     0.0480
     46 H          27.6397    4.4990   17.2185 H         1 MOL     0.0480
     47 H          25.8899    4.3350   16.8166 H         1 MOL     0.0480
     48 H          24.4980   -0.0901   14.3928 H         1 MOL     0.0394
     49 H          22.2163    0.9987   14.8268 H         1 MOL     0.0273
     50 H          22.9588    1.7560   16.3402 H         1 MOL     0.0273
     51 H          22.6649   -1.2652   15.7179 H         1 MOL     0.0273
     52 H          23.3937   -0.5094   17.2424 H         1 MOL     0.0273
     53 H          31.7418    7.5474   13.7171 H         1 MOL     0.0646
     54 H          33.0332    6.1417   15.2920 H         1 MOL     0.0621
     55 H          30.5846    4.8755   21.1383 H         1 MOL     0.1921
@<TRIPOS>BOND
     1    1   17 am
     2    1   18 1 
     3    1   21 1 
     4    2   19 1 
     5    2   20 1 
     6    2   22 am
     7    3    4 ar
     8    3   12 ar
     9    4    5 ar
    10    4   55 1 
    11    5    6 ar
    12    5   29 2 
    13    6    7 ar
    14    6   11 ar
    15    7    8 ar
    16    7   33 1 
    17    8    9 ar
    18    8   34 1 
    19    9   10 ar
    20    9   35 1 
    21   10   11 ar
    22   10   36 1 
    23   11   12 ar
    24   12   13 1 
    25   13   14 1 
    26   13   37 1 
    27   13   38 1 
    28   14   15 ar
    29   14   28 ar
    30   15   16 ar
    31   15   39 1 
    32   16   17 1 
    33   16   26 ar
    34   17   31 2 
    35   18   19 1 
    36   18   40 1 
    37   18   41 1 
    38   19   42 1 
    39   19   43 1 
    40   20   21 1 
    41   20   44 1 
    42   20   45 1 
    43   21   46 1 
    44   21   47 1 
    45   22   23 1 
    46   22   30 2 
    47   23   24 1 
    48   23   25 1 
    49   23   48 1 
    50   24   25 1 
    51   24   49 1 
    52   24   50 1 
    53   25   51 1 
    54   25   52 1 
    55   26   27 ar
    56   26   32 1 
    57   27   28 ar
    58   27   53 1 
    59   28   54 1 
@<TRIPOS>SUBSTRUCTURE
1 MOL         1
@<TRIPOS>MOLECULE
query molecule
   55    59     1     0     0
SMALL
NO_CHARGE

@<TRIPOS>ATOM
      1 N          30.6929    9.6100   21.0655 N.am      1 MOL    -0.2945
      2 N          32.1426   12.0704   21.1201 N.am      1 MOL    -0.2983
      3 N          30.3411    3.3895   17.2639 N.ar      1 MOL    -0.1750
      4 N          29.9221    2.2089   16.8266 N.ar      1 MOL    -0.2425
      5 C          30.8276    1.1483   16.6010 C.ar      1 MOL     0.2725
      6 C          32.1905    1.3799   16.8741 C.ar      1 MOL     0.0496
      7 C          33.1370    0.3711   16.6735 C.ar      1 MOL     0.0138
      8 C          34.4784    0.6031   16.9764 C.ar      1 MOL     0.0008
      9 C          34.8773    1.8408   17.4845 C.ar      1 MOL     0.0007
     10 C          33.9421    2.8598   17.6704 C.ar      1 MOL     0.0103
     11 C          32.5875    2.6625   17.3629 C.ar      1 MOL     0.0106
     12 C          31.6422    3.6956   17.5218 C.ar      1 MOL     0.0736
     13 C          32.0233    5.0856   17.8997 C.3       1 MOL     0.0925
     14 C          31.7651    5.5297   19.2888 C.ar      1 MOL    -0.0406
     15 C          30.9933    6.6917   19.5056 C.ar      1 MOL     0.0196
     16 C          30.7897    7.1947   20.8013 C.ar      1 MOL     0.0723
     17 C          30.0023    8.4369   21.0222 C.2       1 MOL     0.2495
     18 C          30.3915   10.5765   22.1252 C.3       1 MOL     0.1268
     19 C          31.5960   11.5438   22.3558 C.3       1 MOL     0.1265
     20 C          32.3471   11.1260   20.0183 C.3       1 MOL     0.1265
     21 C          31.0946   10.2247   19.8011 C.3       1 MOL     0.1268
     22 C          32.5307   13.3636   20.9217 C.2       1 MOL     0.2187
     23 C          32.1408   14.3888   21.9210 C.3       1 MOL     0.0752
     24 C          33.0584   15.5713   21.8798 C.3       1 MOL     0.0134
     25 C          33.1651   14.5625   22.9898 C.3       1 MOL     0.0134
     26 C          31.3425    6.5105   21.8893 C.ar      1 MOL     0.1355
     27 C          32.0940    5.3514   21.6916 C.ar      1 MOL     0.0392
     28 C          32.3068    4.8718   20.3960 C.ar      1 MOL     0.0066
     29 O          30.3756    0.0785   16.1709 O.2       1 MOL    -0.2658
     30 O          33.1541   13.7130   19.9117 O.2       1 MOL    -0.2753
     31 O          28.8071    8.3390   21.3096 O.2       1 MOL    -0.2699
     32 F          31.1614    6.9570   23.1563 F         1 MOL    -0.2047
     33 H          32.8335   -0.5891   16.2827 H         1 MOL     0.0625
     34 H          35.2116   -0.1747   16.8209 H         1 MOL     0.0618
     35 H          35.9149    2.0125   17.7338 H         1 MOL     0.0618
     36 H          34.2650    3.8161   18.0585 H         1 MOL     0.0624
     37 H          31.4669    5.7721   17.2249 H         1 MOL     0.0377
     38 H          33.1107    5.1972   17.7093 H         1 MOL     0.0377
     39 H          30.5610    7.2123   18.6596 H         1 MOL     0.0629
     40 H          30.1468   10.0272   23.0639 H         1 MOL     0.0480
     41 H          29.4938   11.1659   21.8253 H         1 MOL     0.0480
     42 H          32.4134   10.9552   22.8439 H         1 MOL     0.0480
     43 H          31.3363   12.3828   23.0384 H         1 MOL     0.0480
     44 H          33.2172   10.4778   20.2747 H         1 MOL     0.0480
     45 H          32.6026   11.6928   19.0931 H         1 MOL     0.0480
     46 H          31.2729    9.4397   19.0362 H         1 MOL     0.0480
     47 H          30.2484   10.8653   19.4469 H         1 MOL     0.0480
     48 H          31.1056   14.4976   22.1021 H         1 MOL     0.0394
     49 H          32.6509   16.5391   22.1364 H         1 MOL     0.0273
     50 H          33.8340   15.5358   21.1204 H         1 MOL     0.0273
     51 H          32.8191   14.8976   23.9611 H         1 MOL     0.0273
     52 H          34.0041   13.8841   22.9588 H         1 MOL     0.0273
     53 H          32.5123    4.8301   22.5397 H         1 MOL     0.0646
     54 H          32.9051    3.9822   20.2488 H         1 MOL     0.0621
     55 H          28.9470    1.9947   16.6997 H         1 MOL     0.1921
@<TRIPOS>BOND
     1    1   17 am
     2    1   18 1 
     3    1   21 1 
     4    2   19 1 
     5    2   20 1 
     6    2   22 am
     7    3    4 ar
     8    3   12 ar
     9    4    5 ar
    10    4   55 1 
    11    5    6 ar
    12    5   29 2 
    13    6    7 ar
    14    6   11 ar
    15    7    8 ar
    16    7   33 1 
    17    8    9 ar
    18    8   34 1 
    19    9   10 ar
    20    9   35 1 
    21   10   11 ar
    22   10   36 1 
    23   11   12 ar
    24   12   13 1 
    25   13   14 1 
    26   13   37 1 
    27   13   38 1 
    28   14   15 ar
    29   14   28 ar
    30   15   16 ar
    31   15   39 1 
    32   16   17 1 
    33   16   26 ar
    34   17   31 2 
    35   18   19 1 
    36   18   40 1 
    37   18   41 1 
    38   19   42 1 
    39   19   43 1 
    40   20   21 1 
    41   20   44 1 
    42   20   45 1 
    43   21   46 1 
    44   21   47 1 
    45   22   23 1 
    46   22   30 2 
    47   23   24 1 
    48   23   25 1 
    49   23   48 1 
    50   24   25 1 
    51   24   49 1 
    52   24   50 1 
    53   25   51 1 
    54   25   52 1 
    55   26   27 ar
    56   26   32 1 
    57   27   28 ar
    58   27   53 1 
    59   28   54 1 
@<TRIPOS>SUBSTRUCTURE
1 MOL         1
@<TRIPOS>MOLECULE
query molecule
   55    59     1     0     0
SMALL
NO_CHARGE

@<TRIPOS>ATOM
      1 N          -1.0631    1.5793    1.2214 N.am      1 MOL    -0.2945
      2 N          -2.6304    3.1260    3.0254 N.am      1 MOL    -0.2983
      3 N          -1.8765   -1.9459    4.4999 N.ar      1 MOL    -0.1750
      4 N          -2.3881   -1.1391    5.4228 N.ar      1 MOL    -0.2425
      5 C          -3.7747   -0.8941    5.4906 C.ar      1 MOL     0.2725
      6 C          -4.6137   -1.5306    4.5518 C.ar      1 MOL     0.0496
      7 C          -6.0006   -1.3563    4.5845 C.ar      1 MOL     0.0138
      8 C          -6.8066   -1.9684    3.6237 C.ar      1 MOL     0.0008
      9 C          -6.2361   -2.7699    2.6333 C.ar      1 MOL     0.0007
     10 C          -4.8564   -2.9701    2.6059 C.ar      1 MOL     0.0103
     11 C          -4.0220   -2.3634    3.5563 C.ar      1 MOL     0.0106
     12 C          -2.6313   -2.5608    3.5466 C.ar      1 MOL     0.0736
     13 C          -1.9611   -3.4262    2.5327 C.3       1 MOL     0.0925
     14 C          -1.4255   -2.6943    1.3593 C.ar      1 MOL    -0.0406
     15 C          -1.1384   -1.3337    1.3843 C.ar      1 MOL     0.0196
     16 C          -0.6215   -0.6469    0.2795 C.ar      1 MOL     0.0723
     17 C          -0.3282    0.8156    0.3580 C.2       1 MOL     0.2495
     18 C          -1.3655    2.9639    0.8502 C.3       1 MOL     0.1268
     19 C          -2.6372    3.4711    1.6067 C.3       1 MOL     0.1265
     20 C          -2.1529    1.8096    3.4427 C.3       1 MOL     0.1265
     21 C          -0.8923    1.3807    2.6596 C.3       1 MOL     0.1268
     22 C          -3.1097    3.9544    4.0005 C.2       1 MOL     0.2187
     23 C          -4.0055    5.0646    3.5844 C.3       1 MOL     0.0752
     24 C          -4.8577    5.6174    4.6706 C.3       1 MOL     0.0134
     25 C          -5.4183    4.5935    3.7318 C.3       1 MOL     0.0134
     26 C          -0.3891   -1.3822   -0.8889 C.ar      1 MOL     0.1355
     27 C          -0.6750   -2.7505   -0.9469 C.ar      1 MOL     0.0392
     28 C          -1.1922   -3.4046    0.1745 C.ar      1 MOL     0.0066
     29 O          -4.1811   -0.1141    6.3671 O.2       1 MOL    -0.2658
     30 O          -2.8256    3.8045    5.1988 O.2       1 MOL    -0.2753
     31 O           0.4965    1.3115   -0.4213 O.2       1 MOL    -0.2699
     32 F           0.1111   -0.7835   -1.9969 F         1 MOL    -0.2047
     33 H          -6.4508   -0.7434    5.3516 H         1 MOL     0.0625
     34 H          -7.8766   -1.8216    3.6433 H         1 MOL     0.0618
     35 H          -6.8628   -3.2349    1.8867 H         1 MOL     0.0618
     36 H          -4.4243   -3.5987    1.8397 H         1 MOL     0.0624
     37 H          -2.7002   -4.1656    2.1685 H         1 MOL     0.0377
     38 H          -1.1172   -3.9462    3.0275 H         1 MOL     0.0377
     39 H          -1.3202   -0.7830    2.3010 H         1 MOL     0.0629
     40 H          -1.5216    3.0238   -0.2538 H         1 MOL     0.0480
     41 H          -0.4783    3.5935    1.1061 H         1 MOL     0.0480
     42 H          -3.5297    3.0021    1.1258 H         1 MOL     0.0480
     43 H          -2.7412    4.5785    1.5082 H         1 MOL     0.0480
     44 H          -2.9514    1.0581    3.2242 H         1 MOL     0.0480
     45 H          -1.9825    1.8127    4.5440 H         1 MOL     0.0480
     46 H          -0.6809    0.3012    2.8527 H         1 MOL     0.0480
     47 H          -0.0048    1.9710    2.9922 H         1 MOL     0.0480
     48 H          -3.7147    5.6223    2.7345 H         1 MOL     0.0394
     49 H          -5.2163    6.6331    4.5502 H         1 MOL     0.0273
     50 H          -4.6141    5.3057    5.6779 H         1 MOL     0.0273
     51 H          -6.1514    4.9386    3.0058 H         1 MOL     0.0273
     52 H          -5.5694    3.6031    4.1554 H         1 MOL     0.0273
     53 H          -0.4981   -3.3009   -1.8592 H         1 MOL     0.0646
     54 H          -1.4130   -4.4609    0.1277 H         1 MOL     0.0621
     55 H          -1.8219   -0.6971    6.1256 H         1 MOL     0.1921
@<TRIPOS>BOND
     1    1   17 am
     2    1   18 1 
     3    1   21 1 
     4    2   19 1 
     5    2   20 1 
     6    2   22 am
     7    3    4 ar
     8    3   12 ar
     9    4    5 ar
    10    4   55 1 
    11    5    6 ar
    12    5   29 2 
    13    6    7 ar
    14    6   11 ar
    15    7    8 ar
    16    7   33 1 
    17    8    9 ar
    18    8   34 1 
    19    9   10 ar
    20    9   35 1 
    21   10   11 ar
    22   10   36 1 
    23   11   12 ar
    24   12   13 1 
    25   13   14 1 
    26   13   37 1 
    27   13   38 1 
    28   14   15 ar
    29   14   28 ar
    30   15   16 ar
    31   15   39 1 
    32   16   17 1 
    33   16   26 ar
    34   17   31 2 
    35   18   19 1 
    36   18   40 1 
    37   18   41 1 
    38   19   42 1 
    39   19   43 1 
    40   20   21 1 
    41   20   44 1 
    42   20   45 1 
    43   21   46 1 
    44   21   47 1 
    45   22   23 1 
    46   22   30 2 
    47   23   24 1 
    48   23   25 1 
    49   23   48 1 
    50   24   25 1 
    51   24   49 1 
    52   24   50 1 
    53   25   51 1 
    54   25   52 1 
    55   26   27 ar
    56   26   32 1 
    57   27   28 ar
    58   27   53 1 
    59   28   54 1 
@<TRIPOS>SUBSTRUCTURE
1 MOL         1
@<TRIPOS>MOLECULE
query molecule
   55    59     1     0     0
SMALL
NO_CHARGE

@<TRIPOS>ATOM
      1 N          -3.6554   -5.9930   -2.0210 N.am      1 MOL    -0.2945
      2 N          -1.0548   -6.6826   -1.1431 N.am      1 MOL    -0.2983
      3 N          -9.0257   -7.6044    1.3795 N.ar      1 MOL    -0.1750
      4 N          -9.4882   -8.4037    2.3272 N.ar      1 MOL    -0.2425
      5 C         -10.8719   -8.5017    2.5794 C.ar      1 MOL     0.2725
      6 C         -11.7455   -7.6790    1.8458 C.ar      1 MOL     0.0496
      7 C         -13.1181   -7.6839    2.1037 C.ar      1 MOL     0.0138
      8 C         -13.9695   -6.8609    1.3671 C.ar      1 MOL     0.0008
      9 C         -13.4522   -6.0290    0.3720 C.ar      1 MOL     0.0007
     10 C         -12.0822   -6.0224    0.1060 C.ar      1 MOL     0.0103
     11 C         -11.2041   -6.8412    0.8304 C.ar      1 MOL     0.0106
     12 C          -9.8224   -6.8511    0.5747 C.ar      1 MOL     0.0736
     13 C          -9.2197   -6.0559   -0.5395 C.3       1 MOL     0.0925
     14 C          -8.1431   -6.7749   -1.2682 C.ar      1 MOL    -0.0406
     15 C          -6.9993   -6.0716   -1.6573 C.ar      1 MOL     0.0196
     16 C          -5.9592   -6.7261   -2.3254 C.ar      1 MOL     0.0723
     17 C          -4.7908   -5.9383   -2.7453 C.2       1 MOL     0.2495
     18 C          -2.5321   -5.1552   -2.4328 C.3       1 MOL     0.1268
     19 C          -1.2095   -5.9765   -2.4112 C.3       1 MOL     0.1265
     20 C          -2.1885   -7.5041   -0.7199 C.3       1 MOL     0.1265
     21 C          -3.5114   -6.6708   -0.7412 C.3       1 MOL     0.1268
     22 C           0.0730   -6.6292   -0.3818 C.2       1 MOL     0.2187
     23 C           1.1523   -5.6940   -0.7931 C.3       1 MOL     0.0752
     24 C           1.8405   -5.0281    0.3391 C.3       1 MOL     0.0134
     25 C           0.7571   -4.3041   -0.3962 C.3       1 MOL     0.0134
     26 C          -6.0492   -8.0849   -2.6010 C.ar      1 MOL     0.1355
     27 C          -7.1870   -8.7949   -2.2350 C.ar      1 MOL     0.0392
     28 C          -8.2307   -8.1314   -1.5818 C.ar      1 MOL     0.0066
     29 O         -11.2465   -9.3389    3.4107 O.2       1 MOL    -0.2658
     30 O           0.2367   -7.3348    0.6250 O.2       1 MOL    -0.2753
     31 O          -4.9234   -5.2681   -3.7741 O.2       1 MOL    -0.2699
     32 F          -5.0407   -8.7306   -3.2300 F         1 MOL    -0.2047
     33 H         -13.5224   -8.3248    2.8729 H         1 MOL     0.0625
     34 H         -15.0310   -6.8648    1.5663 H         1 MOL     0.0618
     35 H         -14.1131   -5.3872   -0.1926 H         1 MOL     0.0618
     36 H         -11.6920   -5.3743   -0.6669 H         1 MOL     0.0624
     37 H          -8.7932   -5.1276   -0.1156 H         1 MOL     0.0377
     38 H         -10.0218   -5.8130   -1.2633 H         1 MOL     0.0377
     39 H          -6.9196   -5.0157   -1.4438 H         1 MOL     0.0629
     40 H          -2.4538   -4.3017   -1.7159 H         1 MOL     0.0480
     41 H          -2.7344   -4.7332   -3.4427 H         1 MOL     0.0480
     42 H          -0.3364   -5.3011   -2.5616 H         1 MOL     0.0480
     43 H          -1.2157   -6.7247   -3.2390 H         1 MOL     0.0480
     44 H          -1.9878   -7.9215    0.2916 H         1 MOL     0.0480
     45 H          -2.2873   -8.3589   -1.4324 H         1 MOL     0.0480
     46 H          -3.4694   -5.8929    0.0602 H         1 MOL     0.0480
     47 H          -4.4045   -7.3067   -0.5557 H         1 MOL     0.0480
     48 H           1.6242   -5.8889   -1.7189 H         1 MOL     0.0394
     49 H           2.8440   -4.6531    0.1764 H         1 MOL     0.0273
     50 H           1.5972   -5.3764    1.3355 H         1 MOL     0.0273
     51 H           1.0425   -3.5029   -1.0636 H         1 MOL     0.0273
     52 H          -0.1979   -4.2144    0.1114 H         1 MOL     0.0273
     53 H          -7.2637   -9.8487   -2.4529 H         1 MOL     0.0646
     54 H          -9.1170   -8.6868   -1.3025 H         1 MOL     0.0621
     55 H          -8.8908   -9.0360    2.8279 H         1 MOL     0.1921
@<TRIPOS>BOND
     1    1   17 am
     2    1   18 1 
     3    1   21 1 
     4    2   19 1 
     5    2   20 1 
     6    2   22 am
     7    3    4 ar
     8    3   12 ar
     9    4    5 ar
    10    4   55 1 
    11    5    6 ar
    12    5   29 2 
    13    6    7 ar
    14    6   11 ar
    15    7    8 ar
    16    7   33 1 
    17    8    9 ar
    18    8   34 1 
    19    9   10 ar
    20    9   35 1 
    21   10   11 ar
    22   10   36 1 
    23   11   12 ar
    24   12   13 1 
    25   13   14 1 
    26   13   37 1 
    27   13   38 1 
    28   14   15 ar
    29   14   28 ar
    30   15   16 ar
    31   15   39 1 
    32   16   17 1 
    33   16   26 ar
    34   17   31 2 
    35   18   19 1 
    36   18   40 1 
    37   18   41 1 
    38   19   42 1 
    39   19   43 1 
    40   20   21 1 
    41   20   44 1 
    42   20   45 1 
    43   21   46 1 
    44   21   47 1 
    45   22   23 1 
    46   22   30 2 
    47   23   24 1 
    48   23   25 1 
    49   23   48 1 
    50   24   25 1 
    51   24   49 1 
    52   24   50 1 
    53   25   51 1 
    54   25   52 1 
    55   26   27 ar
    56   26   32 1 
    57   27   28 ar
    58   27   53 1 
    59   28   54 1 
@<TRIPOS>SUBSTRUCTURE
1 MOL         1
@<TRIPOS>MOLECULE
query molecule
   55    59     1     0     0
SMALL
NO_CHARGE

@<TRIPOS>ATOM
      1 N          -6.0847    9.9578   19.2480 N.am      1 MOL    -0.2945
      2 N          -5.4918   12.2078   20.9145 N.am      1 MOL    -0.2983
      3 N         -10.8962    6.0598   19.1752 N.ar      1 MOL    -0.1750
      4 N         -11.1837    4.7661   19.2749 N.ar      1 MOL    -0.2425
      5 C         -12.5294    4.3438   19.3212 C.ar      1 MOL     0.2725
      6 C         -13.5420    5.3234   19.3153 C.ar      1 MOL     0.0496
      7 C         -14.8901    4.9582   19.4253 C.ar      1 MOL     0.0138
      8 C         -15.8759    5.9407   19.4670 C.ar      1 MOL     0.0008
      9 C         -15.5276    7.2899   19.3762 C.ar      1 MOL     0.0007
     10 C         -14.1876    7.6633   19.2429 C.ar      1 MOL     0.0103
     11 C         -13.1717    6.6979   19.2179 C.ar      1 MOL     0.0106
     12 C         -11.8159    7.0640   19.1035 C.ar      1 MOL     0.0736
     13 C         -11.3615    8.4865   18.9586 C.3       1 MOL     0.0925
     14 C         -10.1697    8.6283   18.0724 C.ar      1 MOL    -0.0406
     15 C          -8.8943    8.8217   18.6256 C.ar      1 MOL     0.0196
     16 C          -7.7532    8.8667   17.8102 C.ar      1 MOL     0.0723
     17 C          -6.3746    8.9664   18.3655 C.2       1 MOL     0.2495
     18 C          -4.7900   10.6248   19.1005 C.3       1 MOL     0.1268
     19 C          -4.8713   12.0981   19.6016 C.3       1 MOL     0.1265
     20 C          -6.6562   11.3637   21.2079 C.3       1 MOL     0.1265
     21 C          -6.5545    9.9234   20.6286 C.3       1 MOL     0.1268
     22 C          -5.1473   13.1452   21.8480 C.2       1 MOL     0.2187
     23 C          -4.2907   14.2837   21.4328 C.3       1 MOL     0.0752
     24 C          -2.8384   14.0403   21.6756 C.3       1 MOL     0.0134
     25 C          -3.6129   14.9589   22.5744 C.3       1 MOL     0.0134
     26 C          -7.9191    8.7814   16.4192 C.ar      1 MOL     0.1355
     27 C          -9.1871    8.6395   15.8559 C.ar      1 MOL     0.0392
     28 C         -10.3130    8.5577   16.6813 C.ar      1 MOL     0.0066
     29 O         -12.7468    3.1214   19.2993 O.2       1 MOL    -0.2658
     30 O          -5.6177   13.1421   22.9989 O.2       1 MOL    -0.2753
     31 O          -5.5102    8.2301   17.8696 O.2       1 MOL    -0.2699
     32 F          -6.8467    8.8411   15.5907 F         1 MOL    -0.2047
     33 H         -15.1620    3.9156   19.4923 H         1 MOL     0.0625
     34 H         -16.9161    5.6597   19.5684 H         1 MOL     0.0618
     35 H         -16.2933    8.0515   19.4093 H         1 MOL     0.0618
     36 H         -13.9261    8.7083   19.1713 H         1 MOL     0.0624
     37 H         -11.0941    8.8663   19.9635 H         1 MOL     0.0377
     38 H         -12.1934    9.0799   18.5350 H         1 MOL     0.0377
     39 H          -8.7869    8.9173   19.6962 H         1 MOL     0.0629
     40 H          -4.4710   10.5786   18.0362 H         1 MOL     0.0480
     41 H          -4.0422   10.0622   19.7100 H         1 MOL     0.0480
     42 H          -5.4867   12.6873   18.8776 H         1 MOL     0.0480
     43 H          -3.8577   12.5612   19.6367 H         1 MOL     0.0480
     44 H          -7.5435   11.8549   20.7313 H         1 MOL     0.0480
     45 H          -6.8321   11.3574   22.3077 H         1 MOL     0.0480
     46 H          -7.5414    9.4087   20.6741 H         1 MOL     0.0480
     47 H          -5.8258    9.3333   21.2306 H         1 MOL     0.0480
     48 H          -4.6295   14.8270   20.5855 H         1 MOL     0.0394
     49 H          -2.1497   14.5045   20.9931 H         1 MOL     0.0273
     50 H          -2.5874   13.0639   22.0714 H         1 MOL     0.0273
     51 H          -3.3888   16.0151   22.4631 H         1 MOL     0.0273
     52 H          -3.8471   14.6019   23.5680 H         1 MOL     0.0273
     53 H          -9.2954    8.5923   14.7820 H         1 MOL     0.0646
     54 H         -11.2909    8.4378   16.2404 H         1 MOL     0.0621
     55 H         -10.4741    4.0771   19.4678 H         1 MOL     0.1921
@<TRIPOS>BOND
     1    1   17 am
     2    1   18 1 
     3    1   21 1 
     4    2   19 1 
     5    2   20 1 
     6    2   22 am
     7    3    4 ar
     8    3   12 ar
     9    4    5 ar
    10    4   55 1 
    11    5    6 ar
    12    5   29 2 
    13    6    7 ar
    14    6   11 ar
    15    7    8 ar
    16    7   33 1 
    17    8    9 ar
    18    8   34 1 
    19    9   10 ar
    20    9   35 1 
    21   10   11 ar
    22   10   36 1 
    23   11   12 ar
    24   12   13 1 
    25   13   14 1 
    26   13   37 1 
    27   13   38 1 
    28   14   15 ar
    29   14   28 ar
    30   15   16 ar
    31   15   39 1 
    32   16   17 1 
    33   16   26 ar
    34   17   31 2 
    35   18   19 1 
    36   18   40 1 
    37   18   41 1 
    38   19   42 1 
    39   19   43 1 
    40   20   21 1 
    41   20   44 1 
    42   20   45 1 
    43   21   46 1 
    44   21   47 1 
    45   22   23 1 
    46   22   30 2 
    47   23   24 1 
    48   23   25 1 
    49   23   48 1 
    50   24   25 1 
    51   24   49 1 
    52   24   50 1 
    53   25   51 1 
    54   25   52 1 
    55   26   27 ar
    56   26   32 1 
    57   27   28 ar
    58   27   53 1 
    59   28   54 1 
@<TRIPOS>SUBSTRUCTURE
1 MOL         1
@<TRIPOS>MOLECULE
query molecule
   55    59     1     0     0
SMALL
NO_CHARGE

@<TRIPOS>ATOM
      1 N          28.2091    9.7198   21.2540 N.am      1 MOL    -0.2945
      2 N          25.4411   10.4074   20.9969 N.am      1 MOL    -0.2983
      3 N          32.1978   12.5931   24.7167 N.ar      1 MOL    -0.1750
      4 N          32.9076   12.2119   25.7754 N.ar      1 MOL    -0.2425
      5 C          34.2379   12.6430   25.9713 C.ar      1 MOL     0.2725
      6 C          34.7725   13.5640   25.0523 C.ar      1 MOL     0.0496
      7 C          36.0380   14.1228   25.2397 C.ar      1 MOL     0.0138
      8 C          36.5558   15.0140   24.2987 C.ar      1 MOL     0.0008
      9 C          35.8123   15.3519   23.1682 C.ar      1 MOL     0.0007
     10 C          34.5368   14.8198   22.9830 C.ar      1 MOL     0.0103
     11 C          33.9880   13.9310   23.9196 C.ar      1 MOL     0.0106
     12 C          32.6969   13.4076   23.7532 C.ar      1 MOL     0.0736
     13 C          31.8495   13.7191   22.5640 C.3       1 MOL     0.0925
     14 C          31.6798   12.5217   21.7021 C.ar      1 MOL    -0.0406
     15 C          30.6916   11.5733   21.9902 C.ar      1 MOL     0.0196
     16 C          30.5481   10.4388   21.1827 C.ar      1 MOL     0.0723
     17 C          29.5099    9.4449   21.5237 C.2       1 MOL     0.2495
     18 C          27.1777    8.8229   21.7753 C.3       1 MOL     0.1268
     19 C          25.8766    9.6039   22.1277 C.3       1 MOL     0.1265
     20 C          26.4528   11.2871   20.4022 C.3       1 MOL     0.1265
     21 C          27.7987   10.5473   20.1234 C.3       1 MOL     0.1268
     22 C          24.1681   10.4455   20.5148 C.2       1 MOL     0.2187
     23 C          23.1252    9.6065   21.1559 C.3       1 MOL     0.0752
     24 C          23.0438    8.2371   20.5764 C.3       1 MOL     0.0134
     25 C          22.0184    9.2692   20.2067 C.3       1 MOL     0.0134
     26 C          31.3895   10.2596   20.0861 C.ar      1 MOL     0.1355
     27 C          32.3680   11.2087   19.7807 C.ar      1 MOL     0.0392
     28 C          32.5121   12.3400   20.5901 C.ar      1 MOL     0.0066
     29 O          34.8721   12.1457   26.9121 O.2       1 MOL    -0.2658
     30 O          23.8401   11.2012   19.5846 O.2       1 MOL    -0.2753
     31 O          29.8949    8.4441   22.1353 O.2       1 MOL    -0.2699
     32 F          31.2649    9.1651   19.2985 F         1 MOL    -0.2047
     33 H          36.6162   13.8702   26.1161 H         1 MOL     0.0625
     34 H          37.5345   15.4466   24.4453 H         1 MOL     0.0618
     35 H          36.2227   16.0278   22.4315 H         1 MOL     0.0618
     36 H          33.9663   15.0857   22.1045 H         1 MOL     0.0624
     37 H          32.3486   14.5090   21.9751 H         1 MOL     0.0377
     38 H          30.8574   14.0532   22.9115 H         1 MOL     0.0377
     39 H          30.0419   11.7134   22.8414 H         1 MOL     0.0629
     40 H          27.5785    8.2791   22.6620 H         1 MOL     0.0480
     41 H          26.9448    8.0642   20.9870 H         1 MOL     0.0480
     42 H          26.0943   10.2967   22.9784 H         1 MOL     0.0480
     43 H          25.0569    8.9225   22.4396 H         1 MOL     0.0480
     44 H          26.6485   12.1182   21.1254 H         1 MOL     0.0480
     45 H          26.0431   11.7435   19.4717 H         1 MOL     0.0480
     46 H          28.6093   11.2711   19.8798 H         1 MOL     0.0480
     47 H          27.6626    9.8788   19.2377 H         1 MOL     0.0480
     48 H          22.9338    9.7995   22.1798 H         1 MOL     0.0394
     49 H          22.6975    7.4480   21.2359 H         1 MOL     0.0273
     50 H          23.7648    7.9695   19.8163 H         1 MOL     0.0273
     51 H          21.0272    9.1508   20.6283 H         1 MOL     0.0273
     52 H          22.0864    9.6694   19.2025 H         1 MOL     0.0273
     53 H          33.0107   11.0687   18.9228 H         1 MOL     0.0646
     54 H          33.2701   13.0737   20.3570 H         1 MOL     0.0621
     55 H          32.5696   11.4740   26.3594 H         1 MOL     0.1921
@<TRIPOS>BOND
     1    1   17 am
     2    1   18 1 
     3    1   21 1 
     4    2   19 1 
     5    2   20 1 
     6    2   22 am
     7    3    4 ar
     8    3   12 ar
     9    4    5 ar
    10    4   55 1 
    11    5    6 ar
    12    5   29 2 
    13    6    7 ar
    14    6   11 ar
    15    7    8 ar
    16    7   33 1 
    17    8    9 ar
    18    8   34 1 
    19    9   10 ar
    20    9   35 1 
    21   10   11 ar
    22   10   36 1 
    23   11   12 ar
    24   12   13 1 
    25   13   14 1 
    26   13   37 1 
    27   13   38 1 
    28   14   15 ar
    29   14   28 ar
    30   15   16 ar
    31   15   39 1 
    32   16   17 1 
    33   16   26 ar
    34   17   31 2 
    35   18   19 1 
    36   18   40 1 
    37   18   41 1 
    38   19   42 1 
    39   19   43 1 
    40   20   21 1 
    41   20   44 1 
    42   20   45 1 
    43   21   46 1 
    44   21   47 1 
    45   22   23 1 
    46   22   30 2 
    47   23   24 1 
    48   23   25 1 
    49   23   48 1 
    50   24   25 1 
    51   24   49 1 
    52   24   50 1 
    53   25   51 1 
    54   25   52 1 
    55   26   27 ar
    56   26   32 1 
    57   27   28 ar
    58   27   53 1 
    59   28   54 1 
@<TRIPOS>SUBSTRUCTURE
1 MOL         1
@<TRIPOS>MOLECULE
query molecule
   55    59     1     0     0
SMALL
NO_CHARGE

@<TRIPOS>ATOM
      1 N          36.2944  -12.2976   22.6136 N.am      1 MOL    -0.2945
      2 N          37.3528   -9.6940   23.1564 N.am      1 MOL    -0.2983
      3 N          31.4191  -10.2854   19.4848 N.ar      1 MOL    -0.1750
      4 N          30.3611   -9.5371   19.7641 N.ar      1 MOL    -0.2425
      5 C          29.0805   -9.8800   19.2873 C.ar      1 MOL     0.2725
      6 C          28.9515  -11.0167   18.4671 C.ar      1 MOL     0.0496
      7 C          27.7131  -11.3732   17.9264 C.ar      1 MOL     0.0138
      8 C          27.6060  -12.4854   17.0908 C.ar      1 MOL     0.0008
      9 C          28.7374  -13.2484   16.7965 C.ar      1 MOL     0.0007
     10 C          29.9762  -12.9070   17.3448 C.ar      1 MOL     0.0103
     11 C          30.1097  -11.7946   18.1889 C.ar      1 MOL     0.0106
     12 C          31.3384  -11.4365   18.7656 C.ar      1 MOL     0.0736
     13 C          32.5654  -12.2761   18.6265 C.3       1 MOL     0.0925
     14 C          32.8629  -12.9885   19.9025 C.ar      1 MOL    -0.0406
     15 C          34.1487  -12.9029   20.4563 C.ar      1 MOL     0.0196
     16 C          34.4573  -13.5906   21.6376 C.ar      1 MOL     0.0723
     17 C          35.8155  -13.5088   22.2279 C.2       1 MOL     0.2495
     18 C          37.6671  -12.1844   23.1046 C.3       1 MOL     0.1268
     19 C          38.2701  -10.7706   22.8318 C.3       1 MOL     0.1265
     20 C          35.9412   -9.8701   22.8323 C.3       1 MOL     0.1265
     21 C          35.3882  -11.2762   23.1263 C.3       1 MOL     0.1268
     22 C          37.7166   -8.4595   23.6047 C.2       1 MOL     0.2187
     23 C          39.1377   -8.0574   23.5231 C.3       1 MOL     0.0752
     24 C          39.9702   -8.4955   24.6705 C.3       1 MOL     0.0134
     25 C          39.5140   -7.0689   24.5760 C.3       1 MOL     0.0134
     26 C          33.4726  -14.3603   22.2611 C.ar      1 MOL     0.1355
     27 C          32.1864  -14.4394   21.7274 C.ar      1 MOL     0.0392
     28 C          31.8830  -13.7548   20.5510 C.ar      1 MOL     0.0066
     29 O          28.1330   -9.1608   19.6223 O.2       1 MOL    -0.2658
     30 O          36.8771   -7.6205   23.9660 O.2       1 MOL    -0.2753
     31 O          36.4686  -14.5561   22.2864 O.2       1 MOL    -0.2699
     32 F          33.7534  -15.0289   23.4053 F         1 MOL    -0.2047
     33 H          26.8366  -10.7836   18.1515 H         1 MOL     0.0625
     34 H          26.6484  -12.7566   16.6712 H         1 MOL     0.0618
     35 H          28.6552  -14.1067   16.1453 H         1 MOL     0.0618
     36 H          30.8453  -13.5086   17.1158 H         1 MOL     0.0624
     37 H          33.4175  -11.6205   18.3763 H         1 MOL     0.0377
     38 H          32.3990  -13.0233   17.8306 H         1 MOL     0.0377
     39 H          34.9054  -12.3090   19.9642 H         1 MOL     0.0629
     40 H          38.2918  -12.9802   22.6405 H         1 MOL     0.0480
     41 H          37.6498  -12.3641   24.2078 H         1 MOL     0.0480
     42 H          38.5314  -10.6858   21.7487 H         1 MOL     0.0480
     43 H          39.2109  -10.6338   23.4153 H         1 MOL     0.0480
     44 H          35.8280   -9.6833   21.7354 H         1 MOL     0.0480
     45 H          35.3443   -9.0932   23.3645 H         1 MOL     0.0480
     46 H          34.3875  -11.4046   22.6513 H         1 MOL     0.0480
     47 H          35.2669  -11.4283   24.2236 H         1 MOL     0.0480
     48 H          39.5266   -7.9710   22.5381 H         1 MOL     0.0394
     49 H          41.0204   -8.6702   24.4590 H         1 MOL     0.0273
     50 H          39.5086   -9.0964   25.4411 H         1 MOL     0.0273
     51 H          40.2583   -6.3311   24.2992 H         1 MOL     0.0273
     52 H          38.7589   -6.7694   25.2918 H         1 MOL     0.0273
     53 H          31.4288  -15.0271   22.2233 H         1 MOL     0.0646
     54 H          30.8867  -13.8162   20.1364 H         1 MOL     0.0621
     55 H          30.4499   -8.6217   20.1801 H         1 MOL     0.1921
@<TRIPOS>BOND
     1    1   17 am
     2    1   18 1 
     3    1   21 1 
     4    2   19 1 
     5    2   20 1 
     6    2   22 am
     7    3    4 ar
     8    3   12 ar
     9    4    5 ar
    10    4   55 1 
    11    5    6 ar
    12    5   29 2 
    13    6    7 ar
    14    6   11 ar
    15    7    8 ar
    16    7   33 1 
    17    8    9 ar
    18    8   34 1 
    19    9   10 ar
    20    9   35 1 
    21   10   11 ar
    22   10   36 1 
    23   11   12 ar
    24   12   13 1 
    25   13   14 1 
    26   13   37 1 
    27   13   38 1 
    28   14   15 ar
    29   14   28 ar
    30   15   16 ar
    31   15   39 1 
    32   16   17 1 
    33   16   26 ar
    34   17   31 2 
    35   18   19 1 
    36   18   40 1 
    37   18   41 1 
    38   19   42 1 
    39   19   43 1 
    40   20   21 1 
    41   20   44 1 
    42   20   45 1 
    43   21   46 1 
    44   21   47 1 
    45   22   23 1 
    46   22   30 2 
    47   23   24 1 
    48   23   25 1 
    49   23   48 1 
    50   24   25 1 
    51   24   49 1 
    52   24   50 1 
    53   25   51 1 
    54   25   52 1 
    55   26   27 ar
    56   26   32 1 
    57   27   28 ar
    58   27   53 1 
    59   28   54 1 
@<TRIPOS>SUBSTRUCTURE
1 MOL         1
@<TRIPOS>MOLECULE
query molecule
   55    59     1     0     0
SMALL
NO_CHARGE

@<TRIPOS>ATOM
      1 N          11.5592  -15.3417    0.0798 N.am      1 MOL    -0.2945
      2 N           9.3850  -13.6208   -0.7285 N.am      1 MOL    -0.2983
      3 N          15.7242  -14.5038   -4.2638 N.ar      1 MOL    -0.1750
      4 N          16.7699  -13.6859   -4.2182 N.ar      1 MOL    -0.2425
      5 C          18.0759  -14.2039   -4.1888 C.ar      1 MOL     0.2725
      6 C          18.2477  -15.6006   -4.2309 C.ar      1 MOL     0.0496
      7 C          19.5226  -16.1736   -4.1800 C.ar      1 MOL     0.0138
      8 C          19.6708  -17.5606   -4.2118 C.ar      1 MOL     0.0008
      9 C          18.5481  -18.3852   -4.3130 C.ar      1 MOL     0.0007
     10 C          17.2724  -17.8239   -4.3727 C.ar      1 MOL     0.0103
     11 C          17.0900  -16.4347   -4.3164 C.ar      1 MOL     0.0106
     12 C          15.8111  -15.8573   -4.3332 C.ar      1 MOL     0.0736
     13 C          14.5512  -16.6488   -4.4377 C.3       1 MOL     0.0925
     14 C          14.0992  -17.1678   -3.1254 C.ar      1 MOL    -0.0406
     15 C          13.6329  -16.3177   -2.1214 C.ar      1 MOL     0.0196
     16 C          13.2233  -16.8391   -0.8868 C.ar      1 MOL     0.0723
     17 C          12.7966  -15.8900    0.1622 C.2       1 MOL     0.2495
     18 C          11.2506  -14.1614    0.8777 C.3       1 MOL     0.1268
     19 C          10.5162  -13.0876    0.0056 C.3       1 MOL     0.1265
     20 C           9.5796  -14.9197   -1.3775 C.3       1 MOL     0.1265
     21 C          10.3970  -15.9509   -0.5349 C.3       1 MOL     0.1268
     22 C           8.2529  -12.9091   -0.9604 C.2       1 MOL     0.2187
     23 C           8.2172  -11.4645   -0.5999 C.3       1 MOL     0.0752
     24 C           6.9569  -11.0011    0.0169 C.3       1 MOL     0.0134
     25 C           7.2303  -10.7164   -1.4312 C.3       1 MOL     0.0134
     26 C          13.2667  -18.2122   -0.6684 C.ar      1 MOL     0.1355
     27 C          13.7209  -19.0728   -1.6720 C.ar      1 MOL     0.0392
     28 C          14.1391  -18.5499   -2.8986 C.ar      1 MOL     0.0066
     29 O          19.0152  -13.3882   -4.1144 O.2       1 MOL    -0.2658
     30 O           7.2580  -13.4355   -1.5066 O.2       1 MOL    -0.2753
     31 O          13.6658  -15.5355    0.9535 O.2       1 MOL    -0.2699
     32 F          12.8671  -18.7343    0.5152 F         1 MOL    -0.2047
     33 H          20.3951  -15.5409   -4.1126 H         1 MOL     0.0625
     34 H          20.6562  -18.0004   -4.1590 H         1 MOL     0.0618
     35 H          18.6654  -19.4578   -4.3444 H         1 MOL     0.0618
     36 H          16.4088  -18.4693   -4.4558 H         1 MOL     0.0624
     37 H          14.7288  -17.5071   -5.1124 H         1 MOL     0.0377
     38 H          13.7594  -15.9961   -4.8496 H         1 MOL     0.0377
     39 H          13.5889  -15.2520   -2.2913 H         1 MOL     0.0629
     40 H          12.1953  -13.7539    1.3081 H         1 MOL     0.0480
     41 H          10.5946  -14.4761    1.7280 H         1 MOL     0.0480
     42 H          11.2635  -12.7090   -0.7366 H         1 MOL     0.0480
     43 H          10.1932  -12.2237    0.6271 H         1 MOL     0.0480
     44 H          10.1531  -14.7332   -2.3234 H         1 MOL     0.0480
     45 H           8.5850  -15.3255   -1.6742 H         1 MOL     0.0480
     46 H          10.7117  -16.8198   -1.1549 H         1 MOL     0.0480
     47 H           9.7397  -16.3368    0.2843 H         1 MOL     0.0480
     48 H           9.1606  -11.0255   -0.3692 H         1 MOL     0.0394
     49 H           7.0089  -10.1424    0.6785 H         1 MOL     0.0273
     50 H           6.2050  -11.7512    0.2374 H         1 MOL     0.0273
     51 H           7.4614   -9.6907   -1.6967 H         1 MOL     0.0273
     52 H           6.6492  -11.2908   -2.1509 H         1 MOL     0.0273
     53 H          13.7531  -20.1398   -1.5082 H         1 MOL     0.0646
     54 H          14.4958  -19.2095   -3.6767 H         1 MOL     0.0621
     55 H          16.6718  -12.6990   -4.3706 H         1 MOL     0.1921
@<TRIPOS>BOND
     1    1   17 am
     2    1   18 1 
     3    1   21 1 
     4    2   19 1 
     5    2   20 1 
     6    2   22 am
     7    3    4 ar
     8    3   12 ar
     9    4    5 ar
    10    4   55 1 
    11    5    6 ar
    12    5   29 2 
    13    6    7 ar
    14    6   11 ar
    15    7    8 ar
    16    7   33 1 
    17    8    9 ar
    18    8   34 1 
    19    9   10 ar
    20    9   35 1 
    21   10   11 ar
    22   10   36 1 
    23   11   12 ar
    24   12   13 1 
    25   13   14 1 
    26   13   37 1 
    27   13   38 1 
    28   14   15 ar
    29   14   28 ar
    30   15   16 ar
    31   15   39 1 
    32   16   17 1 
    33   16   26 ar
    34   17   31 2 
    35   18   19 1 
    36   18   40 1 
    37   18   41 1 
    38   19   42 1 
    39   19   43 1 
    40   20   21 1 
    41   20   44 1 
    42   20   45 1 
    43   21   46 1 
    44   21   47 1 
    45   22   23 1 
    46   22   30 2 
    47   23   24 1 
    48   23   25 1 
    49   23   48 1 
    50   24   25 1 
    51   24   49 1 
    52   24   50 1 
    53   25   51 1 
    54   25   52 1 
    55   26   27 ar
    56   26   32 1 
    57   27   28 ar
    58   27   53 1 
    59   28   54 1 
@<TRIPOS>SUBSTRUCTURE
1 MOL         1
@<TRIPOS>MOLECULE
query molecule
   55    59     1     0     0
SMALL
NO_CHARGE

@<TRIPOS>ATOM
      1 N          -5.7477   -6.5087   -2.5066 N.am      1 MOL    -0.2945
      2 N          -6.3641   -9.1692   -3.3186 N.am      1 MOL    -0.2983
      3 N          -2.4813   -3.4004    1.8623 N.ar      1 MOL    -0.1750
      4 N          -1.4491   -2.5674    1.7742 N.ar      1 MOL    -0.2425
      5 C          -1.3342   -1.4608    2.6444 C.ar      1 MOL     0.2725
      6 C          -2.3384   -1.2772    3.6212 C.ar      1 MOL     0.0496
      7 C          -2.2469   -0.2427    4.5580 C.ar      1 MOL     0.0138
      8 C          -3.2502   -0.0564    5.5072 C.ar      1 MOL     0.0008
      9 C          -4.3665   -0.8922    5.5120 C.ar      1 MOL     0.0007
     10 C          -4.4698   -1.9286    4.5835 C.ar      1 MOL     0.0103
     11 C          -3.4543   -2.1647    3.6426 C.ar      1 MOL     0.0106
     12 C          -3.5116   -3.2485    2.7442 C.ar      1 MOL     0.0736
     13 C          -4.6356   -4.2365    2.7559 C.3       1 MOL     0.0925
     14 C          -5.4736   -4.1920    1.5363 C.ar      1 MOL    -0.0406
     15 C          -5.0400   -4.7807    0.3414 C.ar      1 MOL     0.0196
     16 C          -5.8398   -4.7240   -0.8097 C.ar      1 MOL     0.0723
     17 C          -5.3262   -5.2870   -2.0788 C.2       1 MOL     0.2495
     18 C          -5.1339   -7.0625   -3.7205 C.3       1 MOL     0.1268
     19 C          -5.9926   -8.2077   -4.3415 C.3       1 MOL     0.1265
     20 C          -7.1146   -8.5967   -2.2076 C.3       1 MOL     0.1265
     21 C          -6.2522   -7.4821   -1.5566 C.3       1 MOL     0.1268
     22 C          -6.0783  -10.4968   -3.3252 C.2       1 MOL     0.2187
     23 C          -5.0235  -10.9669   -4.2617 C.3       1 MOL     0.0752
     24 C          -4.6780  -12.4022   -4.0934 C.3       1 MOL     0.0134
     25 C          -3.7827  -11.3406   -3.5121 C.3       1 MOL     0.0134
     26 C          -7.0909   -4.1100   -0.7466 C.ar      1 MOL     0.1355
     27 C          -7.5370   -3.5289    0.4429 C.ar      1 MOL     0.0392
     28 C          -6.7257   -3.5636    1.5821 C.ar      1 MOL     0.0066
     29 O          -0.3716   -0.6879    2.4912 O.2       1 MOL    -0.2658
     30 O          -6.6829  -11.3069   -2.6002 O.2       1 MOL    -0.2753
     31 O          -4.5476   -4.5681   -2.7120 O.2       1 MOL    -0.2699
     32 F          -7.8846   -4.0625   -1.8436 F         1 MOL    -0.2047
     33 H          -1.3894    0.4149    4.5448 H         1 MOL     0.0625
     34 H          -3.1649    0.7371    6.2348 H         1 MOL     0.0618
     35 H          -5.1508   -0.7394    6.2388 H         1 MOL     0.0618
     36 H          -5.3399   -2.5719    4.6011 H         1 MOL     0.0624
     37 H          -5.2838   -4.0180    3.6272 H         1 MOL     0.0377
     38 H          -4.2109   -5.2542    2.8477 H         1 MOL     0.0377
     39 H          -4.0821   -5.2781    0.3041 H         1 MOL     0.0629
     40 H          -4.1377   -7.4825   -3.4365 H         1 MOL     0.0480
     41 H          -4.9629   -6.2409   -4.4502 H         1 MOL     0.0480
     42 H          -5.4670   -8.7178   -5.1769 H         1 MOL     0.0480
     43 H          -6.9328   -7.7564   -4.7511 H         1 MOL     0.0480
     44 H          -7.3598   -9.3977   -1.4756 H         1 MOL     0.0480
     45 H          -8.0688   -8.1671   -2.5906 H         1 MOL     0.0480
     46 H          -5.3657   -7.9717   -1.0722 H         1 MOL     0.0480
     47 H          -6.8081   -6.9524   -0.7463 H         1 MOL     0.0480
     48 H          -4.9505  -10.4733   -5.2000 H         1 MOL     0.0394
     49 H          -4.3171  -12.9200   -4.9743 H         1 MOL     0.0273
     50 H          -5.2925  -12.9624   -3.4014 H         1 MOL     0.0273
     51 H          -2.8267  -11.2133   -4.0104 H         1 MOL     0.0273
     52 H          -3.7865  -11.2401   -2.4321 H         1 MOL     0.0273
     53 H          -8.5039   -3.0490    0.4812 H         1 MOL     0.0646
     54 H          -7.0681   -3.1046    2.4984 H         1 MOL     0.0621
     55 H          -0.7042   -2.7051    1.1131 H         1 MOL     0.1921
@<TRIPOS>BOND
     1    1   17 am
     2    1   18 1 
     3    1   21 1 
     4    2   19 1 
     5    2   20 1 
     6    2   22 am
     7    3    4 ar
     8    3   12 ar
     9    4    5 ar
    10    4   55 1 
    11    5    6 ar
    12    5   29 2 
    13    6    7 ar
    14    6   11 ar
    15    7    8 ar
    16    7   33 1 
    17    8    9 ar
    18    8   34 1 
    19    9   10 ar
    20    9   35 1 
    21   10   11 ar
    22   10   36 1 
    23   11   12 ar
    24   12   13 1 
    25   13   14 1 
    26   13   37 1 
    27   13   38 1 
    28   14   15 ar
    29   14   28 ar
    30   15   16 ar
    31   15   39 1 
    32   16   17 1 
    33   16   26 ar
    34   17   31 2 
    35   18   19 1 
    36   18   40 1 
    37   18   41 1 
    38   19   42 1 
    39   19   43 1 
    40   20   21 1 
    41   20   44 1 
    42   20   45 1 
    43   21   46 1 
    44   21   47 1 
    45   22   23 1 
    46   22   30 2 
    47   23   24 1 
    48   23   25 1 
    49   23   48 1 
    50   24   25 1 
    51   24   49 1 
    52   24   50 1 
    53   25   51 1 
    54   25   52 1 
    55   26   27 ar
    56   26   32 1 
    57   27   28 ar
    58   27   53 1 
    59   28   54 1 
@<TRIPOS>SUBSTRUCTURE
1 MOL         1
@<TRIPOS>MOLECULE
query molecule
   55    59     1     0     0
SMALL
NO_CHARGE

@<TRIPOS>ATOM
      1 N          27.6815    7.1068    2.0562 N.am      1 MOL    -0.2945
      2 N          25.2632    6.0036    1.5481 N.am      1 MOL    -0.2983
      3 N          30.7528   11.2547   -2.7045 N.ar      1 MOL    -0.1750
      4 N          30.4566   11.4638   -3.9755 N.ar      1 MOL    -0.2425
      5 C          30.9787   10.6029   -4.9617 C.ar      1 MOL     0.2725
      6 C          31.8616    9.5793   -4.5550 C.ar      1 MOL     0.0496
      7 C          32.4763    8.7483   -5.4936 C.ar      1 MOL     0.0138
      8 C          33.3623    7.7508   -5.0858 C.ar      1 MOL     0.0008
      9 C          33.6497    7.5843   -3.7320 C.ar      1 MOL     0.0007
     10 C          33.0401    8.4044   -2.7796 C.ar      1 MOL     0.0103
     11 C          32.1343    9.4058   -3.1642 C.ar      1 MOL     0.0106
     12 C          31.5002   10.2284   -2.2138 C.ar      1 MOL     0.0736
     13 C          31.6657   10.0211   -0.7392 C.3       1 MOL     0.0925
     14 C          30.4143   10.1569    0.0615 C.ar      1 MOL    -0.0406
     15 C          29.9808    9.1062    0.8938 C.ar      1 MOL     0.0196
     16 C          28.8180    9.2478    1.6686 C.ar      1 MOL     0.0723
     17 C          28.3408    8.1733    2.5723 C.2       1 MOL     0.2495
     18 C          27.3471    5.9848    2.9305 C.3       1 MOL     0.1268
     19 C          26.0667    5.2221    2.4758 C.3       1 MOL     0.1265
     20 C          25.9408    6.5194    0.3588 C.3       1 MOL     0.1265
     21 C          27.4076    6.9519    0.6419 C.3       1 MOL     0.1268
     22 C          23.9278    6.2597    1.6782 C.2       1 MOL     0.2187
     23 C          23.2615    5.8401    2.9425 C.3       1 MOL     0.0752
     24 C          21.7853    5.7093    2.7875 C.3       1 MOL     0.0134
     25 C          22.3725    6.8999    3.4929 C.3       1 MOL     0.0134
     26 C          28.0865   10.4366    1.6008 C.ar      1 MOL     0.1355
     27 C          28.5015   11.4818    0.7814 C.ar      1 MOL     0.0392
     28 C          29.6621   11.3412    0.0256 C.ar      1 MOL     0.0066
     29 O          30.6063   10.7844   -6.1313 O.2       1 MOL    -0.2658
     30 O          23.2680    6.8106    0.7763 O.2       1 MOL    -0.2753
     31 O          28.5492    8.3328    3.7829 O.2       1 MOL    -0.2699
     32 F          26.9584   10.5868    2.3352 F         1 MOL    -0.2047
     33 H          32.2670    8.8822   -6.5453 H         1 MOL     0.0625
     34 H          33.8265    7.1088   -5.8197 H         1 MOL     0.0618
     35 H          34.3389    6.8132   -3.4193 H         1 MOL     0.0618
     36 H          33.2681    8.2620   -1.7320 H         1 MOL     0.0624
     37 H          32.3931   10.7707   -0.3689 H         1 MOL     0.0377
     38 H          32.0673    9.0001   -0.5786 H         1 MOL     0.0377
     39 H          30.5511    8.1895    0.9422 H         1 MOL     0.0629
     40 H          27.2183    6.3794    3.9663 H         1 MOL     0.0480
     41 H          28.2089    5.2746    2.9453 H         1 MOL     0.0480
     42 H          25.4482    4.9044    3.3428 H         1 MOL     0.0480
     43 H          26.3932    4.2925    1.9390 H         1 MOL     0.0480
     44 H          25.3462    7.3898   -0.0124 H         1 MOL     0.0480
     45 H          25.9340    5.7431   -0.4426 H         1 MOL     0.0480
     46 H          27.6373    7.9091    0.1182 H         1 MOL     0.0480
     47 H          28.1003    6.1729    0.2415 H         1 MOL     0.0480
     48 H          23.8109    5.1931    3.5794 H         1 MOL     0.0394
     49 H          21.2776    4.9763    3.3993 H         1 MOL     0.0273
     50 H          21.4004    5.8829    1.7878 H         1 MOL     0.0273
     51 H          22.2170    6.9249    4.5653 H         1 MOL     0.0273
     52 H          22.3495    7.8469    2.9687 H         1 MOL     0.0273
     53 H          27.9303   12.3959    0.7305 H         1 MOL     0.0646
     54 H          29.9871   12.1545   -0.6095 H         1 MOL     0.0621
     55 H          29.9678   12.2819   -4.2920 H         1 MOL     0.1921
@<TRIPOS>BOND
     1    1   17 am
     2    1   18 1 
     3    1   21 1 
     4    2   19 1 
     5    2   20 1 
     6    2   22 am
     7    3    4 ar
     8    3   12 ar
     9    4    5 ar
    10    4   55 1 
    11    5    6 ar
    12    5   29 2 
    13    6    7 ar
    14    6   11 ar
    15    7    8 ar
    16    7   33 1 
    17    8    9 ar
    18    8   34 1 
    19    9   10 ar
    20    9   35 1 
    21   10   11 ar
    22   10   36 1 
    23   11   12 ar
    24   12   13 1 
    25   13   14 1 
    26   13   37 1 
    27   13   38 1 
    28   14   15 ar
    29   14   28 ar
    30   15   16 ar
    31   15   39 1 
    32   16   17 1 
    33   16   26 ar
    34   17   31 2 
    35   18   19 1 
    36   18   40 1 
    37   18   41 1 
    38   19   42 1 
    39   19   43 1 
    40   20   21 1 
    41   20   44 1 
    42   20   45 1 
    43   21   46 1 
    44   21   47 1 
    45   22   23 1 
    46   22   30 2 
    47   23   24 1 
    48   23   25 1 
    49   23   48 1 
    50   24   25 1 
    51   24   49 1 
    52   24   50 1 
    53   25   51 1 
    54   25   52 1 
    55   26   27 ar
    56   26   32 1 
    57   27   28 ar
    58   27   53 1 
    59   28   54 1 
@<TRIPOS>SUBSTRUCTURE
1 MOL         1
@<TRIPOS>MOLECULE
query molecule
   55    59     1     0     0
SMALL
NO_CHARGE

@<TRIPOS>ATOM
      1 N          -0.1767   15.6472   30.7230 N.am      1 MOL    -0.2945
      2 N           2.6714   15.6959   31.0466 N.am      1 MOL    -0.2983
      3 N           0.9542   13.6030   26.5604 N.ar      1 MOL    -0.1750
      4 N           2.2006   13.3861   26.9585 N.ar      1 MOL    -0.2425
      5 C           3.2054   14.3457   26.7053 C.ar      1 MOL     0.2725
      6 C           2.8409   15.5371   26.0417 C.ar      1 MOL     0.0496
      7 C           3.7819   16.5309   25.7670 C.ar      1 MOL     0.0138
      8 C           3.4137   17.7032   25.1089 C.ar      1 MOL     0.0008
      9 C           2.0885   17.8927   24.7101 C.ar      1 MOL     0.0007
     10 C           1.1322   16.9080   24.9818 C.ar      1 MOL     0.0103
     11 C           1.4823   15.7223   25.6466 C.ar      1 MOL     0.0106
     12 C           0.5280   14.7376   25.9338 C.ar      1 MOL     0.0736
     13 C          -0.9293   14.8977   25.6117 C.3       1 MOL     0.0925
     14 C          -1.7727   14.6415   26.8165 C.ar      1 MOL    -0.0406
     15 C          -1.3655   15.1405   28.0558 C.ar      1 MOL     0.0196
     16 C          -2.0393   14.8988   29.2553 C.ar      1 MOL     0.0723
     17 C          -1.5112   15.4275   30.5472 C.2       1 MOL     0.2495
     18 C           0.3790   15.6706   32.0810 C.3       1 MOL     0.1268
     19 C           1.8563   15.1489   32.1192 C.3       1 MOL     0.1265
     20 C           2.0743   15.8306   29.7176 C.3       1 MOL     0.1265
     21 C           0.6362   16.4045   29.7808 C.3       1 MOL     0.1268
     22 C           3.9912   16.0202   31.1239 C.2       1 MOL     0.2187
     23 C           4.7432   15.6368   32.3380 C.3       1 MOL     0.0752
     24 C           5.6180   16.7306   32.8496 C.3       1 MOL     0.0134
     25 C           6.2138   15.5970   32.0781 C.3       1 MOL     0.0134
     26 C          -3.2182   14.1423   29.1649 C.ar      1 MOL     0.1355
     27 C          -3.6791   13.6610   27.9337 C.ar      1 MOL     0.0392
     28 C          -2.9554   13.9048   26.7619 C.ar      1 MOL     0.0066
     29 O           4.3586   14.0843   27.0891 O.2       1 MOL    -0.2658
     30 O           4.5844   16.6035   30.1999 O.2       1 MOL    -0.2753
     31 O          -2.3193   15.5258   31.4781 O.2       1 MOL    -0.2699
     32 F          -3.9388   13.8493   30.2739 F         1 MOL    -0.2047
     33 H           4.8101   16.3950   26.0720 H         1 MOL     0.0625
     34 H           4.1522   18.4642   24.9018 H         1 MOL     0.0618
     35 H           1.8066   18.7957   24.1957 H         1 MOL     0.0618
     36 H           0.1116   17.0631   24.6600 H         1 MOL     0.0624
     37 H          -1.2086   14.1857   24.8229 H         1 MOL     0.0377
     38 H          -1.1064   15.9371   25.2839 H         1 MOL     0.0377
     39 H          -0.4585   15.7438   28.0899 H         1 MOL     0.0629
     40 H          -0.2745   15.0785   32.7569 H         1 MOL     0.0480
     41 H           0.3582   16.7306   32.4357 H         1 MOL     0.0480
     42 H           1.8424   14.0378   32.0077 H         1 MOL     0.0480
     43 H           2.3334   15.3873   33.0974 H         1 MOL     0.0480
     44 H           2.0460   14.8127   29.2504 H         1 MOL     0.0480
     45 H           2.7380   16.4719   29.0880 H         1 MOL     0.0480
     46 H           0.1784   16.3422   28.7651 H         1 MOL     0.0480
     47 H           0.6566   17.4731   30.0888 H         1 MOL     0.0480
     48 H           4.2814   14.9358   32.9839 H         1 MOL     0.0394
     49 H           5.8475   16.7467   33.9071 H         1 MOL     0.0273
     50 H           5.5477   17.6770   32.3317 H         1 MOL     0.0273
     51 H           6.8053   14.8808   32.6276 H         1 MOL     0.0273
     52 H           6.5102   15.7956   31.0565 H         1 MOL     0.0273
     53 H          -4.5890   13.0843   27.8891 H         1 MOL     0.0646
     54 H          -3.2965   13.5149   25.8164 H         1 MOL     0.0621
     55 H           2.4944   12.5057   27.3369 H         1 MOL     0.1921
@<TRIPOS>BOND
     1    1   17 am
     2    1   18 1 
     3    1   21 1 
     4    2   19 1 
     5    2   20 1 
     6    2   22 am
     7    3    4 ar
     8    3   12 ar
     9    4    5 ar
    10    4   55 1 
    11    5    6 ar
    12    5   29 2 
    13    6    7 ar
    14    6   11 ar
    15    7    8 ar
    16    7   33 1 
    17    8    9 ar
    18    8   34 1 
    19    9   10 ar
    20    9   35 1 
    21   10   11 ar
    22   10   36 1 
    23   11   12 ar
    24   12   13 1 
    25   13   14 1 
    26   13   37 1 
    27   13   38 1 
    28   14   15 ar
    29   14   28 ar
    30   15   16 ar
    31   15   39 1 
    32   16   17 1 
    33   16   26 ar
    34   17   31 2 
    35   18   19 1 
    36   18   40 1 
    37   18   41 1 
    38   19   42 1 
    39   19   43 1 
    40   20   21 1 
    41   20   44 1 
    42   20   45 1 
    43   21   46 1 
    44   21   47 1 
    45   22   23 1 
    46   22   30 2 
    47   23   24 1 
    48   23   25 1 
    49   23   48 1 
    50   24   25 1 
    51   24   49 1 
    52   24   50 1 
    53   25   51 1 
    54   25   52 1 
    55   26   27 ar
    56   26   32 1 
    57   27   28 ar
    58   27   53 1 
    59   28   54 1 
@<TRIPOS>SUBSTRUCTURE
1 MOL         1
@<TRIPOS>MOLECULE
query molecule
   55    59     1     0     0
SMALL
NO_CHARGE

@<TRIPOS>ATOM
      1 N          -3.2705    9.0701   10.8320 N.am      1 MOL    -0.2945
      2 N          -5.5198   10.8273   10.6856 N.am      1 MOL    -0.2983
      3 N           1.9761   10.8508    8.3990 N.ar      1 MOL    -0.1750
      4 N           2.9534   11.3411    9.1534 N.ar      1 MOL    -0.2425
      5 C           4.1472   10.6166    9.3529 C.ar      1 MOL     0.2725
      6 C           4.2726    9.3569    8.7296 C.ar      1 MOL     0.0496
      7 C           5.4085    8.5701    8.9351 C.ar      1 MOL     0.0138
      8 C           5.5339    7.3354    8.3011 C.ar      1 MOL     0.0008
      9 C           4.5246    6.8807    7.4533 C.ar      1 MOL     0.0007
     10 C           3.3794    7.6506    7.2413 C.ar      1 MOL     0.0103
     11 C           3.2172    8.8873    7.8896 C.ar      1 MOL     0.0106
     12 C           2.0483    9.6563    7.7427 C.ar      1 MOL     0.0736
     13 C           0.8828    9.2276    6.9055 C.3       1 MOL     0.0925
     14 C          -0.0972    8.3874    7.6477 C.ar      1 MOL    -0.0406
     15 C          -0.6507    8.7711    8.8790 C.ar      1 MOL     0.0196
     16 C          -1.5329    7.9183    9.5627 C.ar      1 MOL     0.0723
     17 C          -2.1161    8.3455   10.8659 C.2       1 MOL     0.2495
     18 C          -3.8577    9.5657   12.0741 C.3       1 MOL     0.1268
     19 C          -4.6630   10.8892   11.8573 C.3       1 MOL     0.1265
     20 C          -4.9768   10.2495    9.4581 C.3       1 MOL     0.1265
     21 C          -4.1892    8.9466    9.7059 C.3       1 MOL     0.1268
     22 C          -6.7717   11.3583   10.5998 C.2       1 MOL     0.2187
     23 C          -7.1741   12.3767   11.6012 C.3       1 MOL     0.0752
     24 C          -8.2781   13.2720   11.1715 C.3       1 MOL     0.0134
     25 C          -6.8534   13.7359   11.0532 C.3       1 MOL     0.0134
     26 C          -1.8718    6.6872    8.9939 C.ar      1 MOL     0.1355
     27 C          -1.3591    6.3121    7.7505 C.ar      1 MOL     0.0392
     28 C          -0.4709    7.1583    7.0830 C.ar      1 MOL     0.0066
     29 O           5.0306   11.1319   10.0603 O.2       1 MOL    -0.2658
     30 O          -7.5553   11.0452    9.6885 O.2       1 MOL    -0.2753
     31 O          -1.4988    8.0870   11.9073 O.2       1 MOL    -0.2699
     32 F          -2.7062    5.8405    9.6441 F         1 MOL    -0.2047
     33 H           6.1900    8.9218    9.5914 H         1 MOL     0.0625
     34 H           6.4147    6.7312    8.4666 H         1 MOL     0.0618
     35 H           4.6314    5.9281    6.9543 H         1 MOL     0.0618
     36 H           2.6045    7.2864    6.5784 H         1 MOL     0.0624
     37 H           1.2689    8.6412    6.0487 H         1 MOL     0.0377
     38 H           0.3633   10.1345    6.5416 H         1 MOL     0.0377
     39 H          -0.3892    9.7288    9.3075 H         1 MOL     0.0629
     40 H          -3.0493    9.7039   12.8279 H         1 MOL     0.0480
     41 H          -4.5480    8.7774   12.4632 H         1 MOL     0.0480
     42 H          -3.9439   11.7324   11.7166 H         1 MOL     0.0480
     43 H          -5.2838   11.1157   12.7555 H         1 MOL     0.0480
     44 H          -4.2861   11.0052    9.0088 H         1 MOL     0.0480
     45 H          -5.8104   10.0798    8.7377 H         1 MOL     0.0480
     46 H          -3.6175    8.6536    8.7962 H         1 MOL     0.0480
     47 H          -4.9089    8.1246    9.9400 H         1 MOL     0.0480
     48 H          -6.9563   12.1622   12.6134 H         1 MOL     0.0394
     49 H          -8.8688   13.7559   11.9402 H         1 MOL     0.0273
     50 H          -8.7842   12.9935   10.2556 H         1 MOL     0.0273
     51 H          -6.5547   14.5173   11.7387 H         1 MOL     0.0273
     52 H          -6.4506   13.7800   10.0470 H         1 MOL     0.0273
     53 H          -1.6413    5.3674    7.3093 H         1 MOL     0.0646
     54 H          -0.0631    6.8608    6.1241 H         1 MOL     0.0621
     55 H           2.8585   12.2045    9.6583 H         1 MOL     0.1921
@<TRIPOS>BOND
     1    1   17 am
     2    1   18 1 
     3    1   21 1 
     4    2   19 1 
     5    2   20 1 
     6    2   22 am
     7    3    4 ar
     8    3   12 ar
     9    4    5 ar
    10    4   55 1 
    11    5    6 ar
    12    5   29 2 
    13    6    7 ar
    14    6   11 ar
    15    7    8 ar
    16    7   33 1 
    17    8    9 ar
    18    8   34 1 
    19    9   10 ar
    20    9   35 1 
    21   10   11 ar
    22   10   36 1 
    23   11   12 ar
    24   12   13 1 
    25   13   14 1 
    26   13   37 1 
    27   13   38 1 
    28   14   15 ar
    29   14   28 ar
    30   15   16 ar
    31   15   39 1 
    32   16   17 1 
    33   16   26 ar
    34   17   31 2 
    35   18   19 1 
    36   18   40 1 
    37   18   41 1 
    38   19   42 1 
    39   19   43 1 
    40   20   21 1 
    41   20   44 1 
    42   20   45 1 
    43   21   46 1 
    44   21   47 1 
    45   22   23 1 
    46   22   30 2 
    47   23   24 1 
    48   23   25 1 
    49   23   48 1 
    50   24   25 1 
    51   24   49 1 
    52   24   50 1 
    53   25   51 1 
    54   25   52 1 
    55   26   27 ar
    56   26   32 1 
    57   27   28 ar
    58   27   53 1 
    59   28   54 1 
@<TRIPOS>SUBSTRUCTURE
1 MOL         1
@<TRIPOS>MOLECULE
query molecule
   55    59     1     0     0
SMALL
NO_CHARGE

@<TRIPOS>ATOM
      1 N          21.4035   10.0834   13.1271 N.am      1 MOL    -0.2945
      2 N          22.4692    7.4606   12.8240 N.am      1 MOL    -0.2983
      3 N          15.9972   11.0949    8.5566 N.ar      1 MOL    -0.1750
      4 N          15.2701   10.1475    7.9688 N.ar      1 MOL    -0.2425
      5 C          15.9122    9.1065    7.2639 C.ar      1 MOL     0.2725
      6 C          17.3248    9.0976    7.1993 C.ar      1 MOL     0.0496
      7 C          18.0045    8.0820    6.5214 C.ar      1 MOL     0.0138
      8 C          19.3985    8.0621    6.4857 C.ar      1 MOL     0.0008
      9 C          20.1252    9.0708    7.1197 C.ar      1 MOL     0.0007
     10 C          19.4573   10.0981    7.7898 C.ar      1 MOL     0.0103
     11 C          18.0551   10.1331    7.8458 C.ar      1 MOL     0.0106
     12 C          17.3604   11.1457    8.5285 C.ar      1 MOL     0.0736
     13 C          18.0636   12.2650    9.2321 C.3       1 MOL     0.0925
     14 C          18.1609   12.0159   10.6951 C.ar      1 MOL    -0.0406
     15 C          19.4207   11.7917   11.2723 C.ar      1 MOL     0.0196
     16 C          19.5313   11.5395   12.6435 C.ar      1 MOL     0.0723
     17 C          20.8564   11.3188   13.2695 C.2       1 MOL     0.2495
     18 C          21.8459    9.3777   14.3299 C.3       1 MOL     0.1268
     19 C          21.8238    7.8406   14.0790 C.3       1 MOL     0.1265
     20 C          22.2672    8.3040   11.6413 C.3       1 MOL     0.1265
     21 C          22.2579    9.8239   11.9694 C.3       1 MOL     0.1268
     22 C          23.1544    6.2896   12.6551 C.2       1 MOL     0.2187
     23 C          23.2530    5.3647   13.8117 C.3       1 MOL     0.0752
     24 C          24.5225    5.5847   14.5611 C.3       1 MOL     0.0134
     25 C          24.3450    4.3623   13.7083 C.3       1 MOL     0.0134
     26 C          18.3792   11.5055   13.4325 C.ar      1 MOL     0.1355
     27 C          17.1240   11.7398   12.8734 C.ar      1 MOL     0.0392
     28 C          17.0166   12.0025   11.5050 C.ar      1 MOL     0.0066
     29 O          15.2051    8.2281    6.7361 O.2       1 MOL    -0.2658
     30 O          23.6299    5.9508   11.5582 O.2       1 MOL    -0.2753
     31 O          21.3271   12.2004   13.9909 O.2       1 MOL    -0.2699
     32 F          18.4741   11.2435   14.7562 F         1 MOL    -0.2047
     33 H          17.4473    7.2987    6.0270 H         1 MOL     0.0625
     34 H          19.9167    7.2677    5.9686 H         1 MOL     0.0618
     35 H          21.2051    9.0573    7.0902 H         1 MOL     0.0618
     36 H          20.0312   10.8756    8.2754 H         1 MOL     0.0624
     37 H          17.4952   13.1977    9.0679 H         1 MOL     0.0377
     38 H          19.0850   12.3555    8.8198 H         1 MOL     0.0377
     39 H          20.3068   11.8127   10.6542 H         1 MOL     0.0629
     40 H          21.1929    9.6586   15.1856 H         1 MOL     0.0480
     41 H          22.8854    9.7112   14.5647 H         1 MOL     0.0480
     42 H          20.7542    7.5183   14.0218 H         1 MOL     0.0480
     43 H          22.2995    7.2864   14.9195 H         1 MOL     0.0480
     44 H          21.2637    8.0481   11.2154 H         1 MOL     0.0480
     45 H          23.0324    8.0526   10.8733 H         1 MOL     0.0480
     46 H          21.9064   10.4237   11.1017 H         1 MOL     0.0480
     47 H          23.2936   10.1573   12.2237 H         1 MOL     0.0480
     48 H          22.3417    5.1582   14.3126 H         1 MOL     0.0394
     49 H          24.4951    5.4270   15.6322 H         1 MOL     0.0273
     50 H          25.1991    6.3398   14.1819 H         1 MOL     0.0273
     51 H          24.1928    3.4243   14.2305 H         1 MOL     0.0273
     52 H          24.8872    4.3282   12.7709 H         1 MOL     0.0273
     53 H          16.2410   11.7159   13.4929 H         1 MOL     0.0646
     54 H          16.0470   12.1875   11.0661 H         1 MOL     0.0621
     55 H          14.2798   10.0596    8.1436 H         1 MOL     0.1921
@<TRIPOS>BOND
     1    1   17 am
     2    1   18 1 
     3    1   21 1 
     4    2   19 1 
     5    2   20 1 
     6    2   22 am
     7    3    4 ar
     8    3   12 ar
     9    4    5 ar
    10    4   55 1 
    11    5    6 ar
    12    5   29 2 
    13    6    7 ar
    14    6   11 ar
    15    7    8 ar
    16    7   33 1 
    17    8    9 ar
    18    8   34 1 
    19    9   10 ar
    20    9   35 1 
    21   10   11 ar
    22   10   36 1 
    23   11   12 ar
    24   12   13 1 
    25   13   14 1 
    26   13   37 1 
    27   13   38 1 
    28   14   15 ar
    29   14   28 ar
    30   15   16 ar
    31   15   39 1 
    32   16   17 1 
    33   16   26 ar
    34   17   31 2 
    35   18   19 1 
    36   18   40 1 
    37   18   41 1 
    38   19   42 1 
    39   19   43 1 
    40   20   21 1 
    41   20   44 1 
    42   20   45 1 
    43   21   46 1 
    44   21   47 1 
    45   22   23 1 
    46   22   30 2 
    47   23   24 1 
    48   23   25 1 
    49   23   48 1 
    50   24   25 1 
    51   24   49 1 
    52   24   50 1 
    53   25   51 1 
    54   25   52 1 
    55   26   27 ar
    56   26   32 1 
    57   27   28 ar
    58   27   53 1 
    59   28   54 1 
@<TRIPOS>SUBSTRUCTURE
1 MOL         1
@<TRIPOS>MOLECULE
query molecule
   55    59     1     0     0
SMALL
NO_CHARGE

@<TRIPOS>ATOM
      1 N         -14.7641    1.1176   20.4615 N.am      1 MOL    -0.2945
      2 N         -15.4416    3.6370   21.5779 N.am      1 MOL    -0.2983
      3 N          -9.8296   -3.3351   19.0747 N.ar      1 MOL    -0.1750
      4 N          -8.5631   -3.1663   18.7072 N.ar      1 MOL    -0.2425
      5 C          -7.4976   -3.7205   19.4449 C.ar      1 MOL     0.2725
      6 C          -7.7950   -4.4437   20.6143 C.ar      1 MOL     0.0496
      7 C          -6.7780   -5.0091   21.3855 C.ar      1 MOL     0.0138
      8 C          -7.0810   -5.7219   22.5427 C.ar      1 MOL     0.0008
      9 C          -8.4091   -5.8609   22.9474 C.ar      1 MOL     0.0007
     10 C          -9.4366   -5.3028   22.1816 C.ar      1 MOL     0.0103
     11 C          -9.1587   -4.5953   20.9990 C.ar      1 MOL     0.0106
     12 C         -10.1734   -4.0445   20.1903 C.ar      1 MOL     0.0736
     13 C         -11.6256   -4.2199   20.5167 C.3       1 MOL     0.0925
     14 C         -12.1959   -2.9682   21.0693 C.ar      1 MOL    -0.0406
     15 C         -13.0057   -2.1337   20.2953 C.ar      1 MOL     0.0196
     16 C         -13.5399   -0.9485   20.8402 C.ar      1 MOL     0.0723
     17 C         -14.3961   -0.0969   19.9731 C.2       1 MOL     0.2495
     18 C         -16.1792    1.4467   20.5825 C.3       1 MOL     0.1268
     19 C         -16.3786    2.5247   21.6884 C.3       1 MOL     0.1265
     20 C         -14.0451    3.3541   21.2332 C.3       1 MOL     0.1265
     21 C         -13.9009    2.2570   20.1452 C.3       1 MOL     0.1268
     22 C         -15.7707    4.9247   21.8970 C.2       1 MOL     0.2187
     23 C         -17.1559    5.2024   22.3573 C.3       1 MOL     0.0752
     24 C         -17.9740    5.7729   21.2482 C.3       1 MOL     0.0134
     25 C         -17.5089    6.6475   22.3780 C.3       1 MOL     0.0134
     26 C         -13.2488   -0.6314   22.1692 C.ar      1 MOL     0.1355
     27 C         -12.4412   -1.4633   22.9468 C.ar      1 MOL     0.0392
     28 C         -11.9188   -2.6298   22.3982 C.ar      1 MOL     0.0066
     29 O          -6.3421   -3.5463   19.0172 O.2       1 MOL    -0.2658
     30 O         -14.9400    5.8466   21.8686 O.2       1 MOL    -0.2753
     31 O         -14.7795   -0.5217   18.8786 O.2       1 MOL    -0.2699
     32 F         -13.7402    0.4821   22.7634 F         1 MOL    -0.2047
     33 H          -5.7476   -4.8966   21.0801 H         1 MOL     0.0625
     34 H          -6.2889   -6.1628   23.1300 H         1 MOL     0.0618
     35 H          -8.6411   -6.4021   23.8537 H         1 MOL     0.0618
     36 H         -10.4613   -5.4225   22.5081 H         1 MOL     0.0624
     37 H         -11.7221   -5.0115   21.2835 H         1 MOL     0.0377
     38 H         -12.1738   -4.4953   19.6011 H         1 MOL     0.0377
     39 H         -13.2259   -2.3959   19.2699 H         1 MOL     0.0629
     40 H         -16.7601    0.5254   20.8082 H         1 MOL     0.0480
     41 H         -16.5305    1.8440   19.5992 H         1 MOL     0.0480
     42 H         -16.2096    2.0348   22.6800 H         1 MOL     0.0480
     43 H         -17.4202    2.9203   21.6836 H         1 MOL     0.0480
     44 H         -13.5353    2.9889   22.1595 H         1 MOL     0.0480
     45 H         -13.5461    4.2998   20.9224 H         1 MOL     0.0480
     46 H         -12.8482    1.9114   20.0535 H         1 MOL     0.0480
     47 H         -14.2197    2.6649   19.1552 H         1 MOL     0.0480
     48 H         -17.5632    4.5176   23.0561 H         1 MOL     0.0394
     49 H         -19.0313    5.5381   21.2377 H         1 MOL     0.0273
     50 H         -17.4808    5.9173   20.2954 H         1 MOL     0.0273
     51 H         -18.2598    6.9586   23.0949 H         1 MOL     0.0273
     52 H         -16.7069    7.3449   22.1680 H         1 MOL     0.0273
     53 H         -12.2258   -1.2052   23.9727 H         1 MOL     0.0646
     54 H         -11.2986   -3.2783   22.9993 H         1 MOL     0.0621
     55 H          -8.3122   -2.6559   17.8791 H         1 MOL     0.1921
@<TRIPOS>BOND
     1    1   17 am
     2    1   18 1 
     3    1   21 1 
     4    2   19 1 
     5    2   20 1 
     6    2   22 am
     7    3    4 ar
     8    3   12 ar
     9    4    5 ar
    10    4   55 1 
    11    5    6 ar
    12    5   29 2 
    13    6    7 ar
    14    6   11 ar
    15    7    8 ar
    16    7   33 1 
    17    8    9 ar
    18    8   34 1 
    19    9   10 ar
    20    9   35 1 
    21   10   11 ar
    22   10   36 1 
    23   11   12 ar
    24   12   13 1 
    25   13   14 1 
    26   13   37 1 
    27   13   38 1 
    28   14   15 ar
    29   14   28 ar
    30   15   16 ar
    31   15   39 1 
    32   16   17 1 
    33   16   26 ar
    34   17   31 2 
    35   18   19 1 
    36   18   40 1 
    37   18   41 1 
    38   19   42 1 
    39   19   43 1 
    40   20   21 1 
    41   20   44 1 
    42   20   45 1 
    43   21   46 1 
    44   21   47 1 
    45   22   23 1 
    46   22   30 2 
    47   23   24 1 
    48   23   25 1 
    49   23   48 1 
    50   24   25 1 
    51   24   49 1 
    52   24   50 1 
    53   25   51 1 
    54   25   52 1 
    55   26   27 ar
    56   26   32 1 
    57   27   28 ar
    58   27   53 1 
    59   28   54 1 
@<TRIPOS>SUBSTRUCTURE
1 MOL         1
@<TRIPOS>MOLECULE
query molecule
   55    59     1     0     0
SMALL
NO_CHARGE

@<TRIPOS>ATOM
      1 N          24.7212   -2.4837   38.6734 N.am      1 MOL    -0.2945
      2 N          26.9785   -4.1424   38.0414 N.am      1 MOL    -0.2983
      3 N          21.1522    3.3279   35.5762 N.ar      1 MOL    -0.1750
      4 N          21.7542    4.3309   34.9620 N.ar      1 MOL    -0.2425
      5 C          22.2709    5.3991   35.7235 C.ar      1 MOL     0.2725
      6 C          21.9791    5.4444   37.1054 C.ar      1 MOL     0.0496
      7 C          22.3271    6.5575   37.8756 C.ar      1 MOL     0.0138
      8 C          22.0176    6.5924   39.2352 C.ar      1 MOL     0.0008
      9 C          21.3756    5.5074   39.8345 C.ar      1 MOL     0.0007
     10 C          21.0325    4.3859   39.0781 C.ar      1 MOL     0.0103
     11 C          21.3238    4.3331   37.7082 C.ar      1 MOL     0.0106
     12 C          21.0033    3.2148   36.9231 C.ar      1 MOL     0.0736
     13 C          20.5039    1.9277   37.5018 C.3       1 MOL     0.0925
     14 C          21.3835    0.7693   37.1455 C.ar      1 MOL    -0.0406
     15 C          22.0901    0.0810   38.1478 C.ar      1 MOL     0.0196
     16 C          22.8882   -1.0416   37.8433 C.ar      1 MOL     0.0723
     17 C          23.5912   -1.7704   38.9324 C.2       1 MOL     0.2495
     18 C          25.1357   -3.5231   39.6194 C.3       1 MOL     0.1268
     19 C          25.9194   -4.6606   38.8968 C.3       1 MOL     0.1265
     20 C          26.6122   -3.0490   37.1439 C.3       1 MOL     0.1265
     21 C          25.8291   -1.9246   37.8962 C.3       1 MOL     0.1268
     22 C          28.2368   -4.6583   37.9894 C.2       1 MOL     0.2187
     23 C          28.6037   -5.7387   38.9403 C.3       1 MOL     0.0752
     24 C          28.8191   -5.2235   40.3220 C.3       1 MOL     0.0134
     25 C          29.9935   -5.5782   39.4600 C.3       1 MOL     0.0134
     26 C          22.9572   -1.4503   36.5135 C.ar      1 MOL     0.1355
     27 C          22.3013   -0.7590   35.4988 C.ar      1 MOL     0.0392
     28 C          21.5088    0.3398   35.8168 C.ar      1 MOL     0.0066
     29 O          23.0186    6.2084   35.1564 O.2       1 MOL    -0.2658
     30 O          29.0798   -4.2922   37.1539 O.2       1 MOL    -0.2753
     31 O          23.0271   -1.7792   40.0352 O.2       1 MOL    -0.2699
     32 F          23.6514   -2.5642   36.1899 F         1 MOL    -0.2047
     33 H          22.8330    7.3946   37.4177 H         1 MOL     0.0625
     34 H          22.2737    7.4598   39.8259 H         1 MOL     0.0618
     35 H          21.1426    5.5378   40.8893 H         1 MOL     0.0618
     36 H          20.5369    3.5522   39.5555 H         1 MOL     0.0624
     37 H          19.4855    1.7263   37.1206 H         1 MOL     0.0377
     38 H          20.4831    2.0222   38.6048 H         1 MOL     0.0377
     39 H          22.0162    0.4147   39.1743 H         1 MOL     0.0629
     40 H          24.2435   -3.9217   40.1510 H         1 MOL     0.0480
     41 H          25.8052   -3.0509   40.3803 H         1 MOL     0.0480
     42 H          25.2107   -5.2399   38.2570 H         1 MOL     0.0480
     43 H          26.3641   -5.3674   39.6347 H         1 MOL     0.0480
     44 H          25.9559   -3.4682   36.3422 H         1 MOL     0.0480
     45 H          27.5305   -2.6485   36.6586 H         1 MOL     0.0480
     46 H          25.4312   -1.1698   37.1812 H         1 MOL     0.0480
     47 H          26.5199   -1.4006   38.6005 H         1 MOL     0.0480
     48 H          28.1878   -6.6929   38.7487 H         1 MOL     0.0394
     49 H          28.6039   -5.9023   41.1385 H         1 MOL     0.0273
     50 H          28.6395   -4.1687   40.4879 H         1 MOL     0.0273
     51 H          30.5299   -6.4846   39.7132 H         1 MOL     0.0273
     52 H          30.5729   -4.7532   39.0627 H         1 MOL     0.0273
     53 H          22.3987   -1.0834   34.4740 H         1 MOL     0.0646
     54 H          20.9895    0.8670   35.0290 H         1 MOL     0.0621
     55 H          21.8679    4.3338   33.9648 H         1 MOL     0.1921
@<TRIPOS>BOND
     1    1   17 am
     2    1   18 1 
     3    1   21 1 
     4    2   19 1 
     5    2   20 1 
     6    2   22 am
     7    3    4 ar
     8    3   12 ar
     9    4    5 ar
    10    4   55 1 
    11    5    6 ar
    12    5   29 2 
    13    6    7 ar
    14    6   11 ar
    15    7    8 ar
    16    7   33 1 
    17    8    9 ar
    18    8   34 1 
    19    9   10 ar
    20    9   35 1 
    21   10   11 ar
    22   10   36 1 
    23   11   12 ar
    24   12   13 1 
    25   13   14 1 
    26   13   37 1 
    27   13   38 1 
    28   14   15 ar
    29   14   28 ar
    30   15   16 ar
    31   15   39 1 
    32   16   17 1 
    33   16   26 ar
    34   17   31 2 
    35   18   19 1 
    36   18   40 1 
    37   18   41 1 
    38   19   42 1 
    39   19   43 1 
    40   20   21 1 
    41   20   44 1 
    42   20   45 1 
    43   21   46 1 
    44   21   47 1 
    45   22   23 1 
    46   22   30 2 
    47   23   24 1 
    48   23   25 1 
    49   23   48 1 
    50   24   25 1 
    51   24   49 1 
    52   24   50 1 
    53   25   51 1 
    54   25   52 1 
    55   26   27 ar
    56   26   32 1 
    57   27   28 ar
    58   27   53 1 
    59   28   54 1 
@<TRIPOS>SUBSTRUCTURE
1 MOL         1
@<TRIPOS>MOLECULE
query molecule
   55    59     1     0     0
SMALL
NO_CHARGE

@<TRIPOS>ATOM
      1 N          -7.9285   -4.2187   20.8513 N.am      1 MOL    -0.2945
      2 N          -7.4634   -6.9987   20.8524 N.am      1 MOL    -0.2983
      3 N         -14.5371   -4.5065   20.4575 N.ar      1 MOL    -0.1750
      4 N         -15.6920   -4.9924   20.8983 N.ar      1 MOL    -0.2425
      5 C         -16.8413   -4.1757   20.9857 C.ar      1 MOL     0.2725
      6 C         -16.7358   -2.8271   20.5811 C.ar      1 MOL     0.0496
      7 C         -17.8478   -1.9807   20.6024 C.ar      1 MOL     0.0138
      8 C         -17.7230   -0.6520   20.2074 C.ar      1 MOL     0.0008
      9 C         -16.4867   -0.1590   19.8049 C.ar      1 MOL     0.0007
     10 C         -15.3727   -0.9911   19.7651 C.ar      1 MOL     0.0103
     11 C         -15.4741   -2.3387   20.1367 C.ar      1 MOL     0.0106
     12 C         -14.3707   -3.2066   20.0837 C.ar      1 MOL     0.0736
     13 C         -13.0360   -2.7498   19.6130 C.3       1 MOL     0.0925
     14 C         -12.0345   -2.5379   20.6811 C.ar      1 MOL    -0.0406
     15 C         -10.6963   -2.8651   20.4061 C.ar      1 MOL     0.0196
     16 C          -9.6958   -2.6294   21.3496 C.ar      1 MOL     0.0723
     17 C          -8.2750   -2.9287   21.0668 C.2       1 MOL     0.2495
     18 C          -6.7442   -4.7176   21.5184 C.3       1 MOL     0.1268
     19 C          -6.9726   -6.1843   21.9610 C.3       1 MOL     0.1265
     20 C          -8.5362   -6.4559   20.0164 C.3       1 MOL     0.1265
     21 C          -8.3242   -4.9520   19.6623 C.3       1 MOL     0.1268
     22 C          -7.0164   -8.2656   20.6178 C.2       1 MOL     0.2187
     23 C          -6.0886   -8.8715   21.6074 C.3       1 MOL     0.0752
     24 C          -6.1765  -10.3482   21.7110 C.3       1 MOL     0.0134
     25 C          -6.9045   -9.4882   22.7021 C.3       1 MOL     0.0134
     26 C         -10.0438   -2.0829   22.5902 C.ar      1 MOL     0.1355
     27 C         -11.3717   -1.7724   22.8846 C.ar      1 MOL     0.0392
     28 C         -12.3636   -1.9948   21.9264 C.ar      1 MOL     0.0066
     29 O         -17.8853   -4.6845   21.4267 O.2       1 MOL    -0.2658
     30 O          -7.3434   -8.9132   19.6132 O.2       1 MOL    -0.2753
     31 O          -7.4495   -2.0414   21.2550 O.2       1 MOL    -0.2699
     32 F          -9.0933   -1.8543   23.5288 F         1 MOL    -0.2047
     33 H         -18.8080   -2.3584   20.9250 H         1 MOL     0.0625
     34 H         -18.5867   -0.0033   20.2135 H         1 MOL     0.0618
     35 H         -16.3924    0.8816   19.5193 H         1 MOL     0.0618
     36 H         -14.4209   -0.5932   19.4414 H         1 MOL     0.0624
     37 H         -13.1744   -1.7834   19.0870 H         1 MOL     0.0377
     38 H         -12.6382   -3.5070   18.9101 H         1 MOL     0.0377
     39 H         -10.4366   -3.2895   19.4461 H         1 MOL     0.0629
     40 H          -6.4989   -4.0659   22.3886 H         1 MOL     0.0480
     41 H          -5.8815   -4.6643   20.8028 H         1 MOL     0.0480
     42 H          -7.7432   -6.1942   22.7686 H         1 MOL     0.0480
     43 H          -6.0414   -6.6377   22.3667 H         1 MOL     0.0480
     44 H          -9.4905   -6.5368   20.5951 H         1 MOL     0.0480
     45 H          -8.6445   -7.0778   19.0993 H         1 MOL     0.0480
     46 H          -9.2482   -4.5009   19.2368 H         1 MOL     0.0480
     47 H          -7.5097   -4.8502   18.9049 H         1 MOL     0.0480
     48 H          -5.2164   -8.3191   21.8383 H         1 MOL     0.0394
     49 H          -5.3070  -10.8736   22.0884 H         1 MOL     0.0273
     50 H          -6.7767  -10.8537   20.9644 H         1 MOL     0.0273
     51 H          -6.5072   -9.4527   23.7077 H         1 MOL     0.0273
     52 H          -7.9834   -9.4552   22.5908 H         1 MOL     0.0273
     53 H         -11.6323   -1.3617   23.8488 H         1 MOL     0.0646
     54 H         -13.3907   -1.7450   22.1484 H         1 MOL     0.0621
     55 H         -15.8083   -5.9606   21.1448 H         1 MOL     0.1921
@<TRIPOS>BOND
     1    1   17 am
     2    1   18 1 
     3    1   21 1 
     4    2   19 1 
     5    2   20 1 
     6    2   22 am
     7    3    4 ar
     8    3   12 ar
     9    4    5 ar
    10    4   55 1 
    11    5    6 ar
    12    5   29 2 
    13    6    7 ar
    14    6   11 ar
    15    7    8 ar
    16    7   33 1 
    17    8    9 ar
    18    8   34 1 
    19    9   10 ar
    20    9   35 1 
    21   10   11 ar
    22   10   36 1 
    23   11   12 ar
    24   12   13 1 
    25   13   14 1 
    26   13   37 1 
    27   13   38 1 
    28   14   15 ar
    29   14   28 ar
    30   15   16 ar
    31   15   39 1 
    32   16   17 1 
    33   16   26 ar
    34   17   31 2 
    35   18   19 1 
    36   18   40 1 
    37   18   41 1 
    38   19   42 1 
    39   19   43 1 
    40   20   21 1 
    41   20   44 1 
    42   20   45 1 
    43   21   46 1 
    44   21   47 1 
    45   22   23 1 
    46   22   30 2 
    47   23   24 1 
    48   23   25 1 
    49   23   48 1 
    50   24   25 1 
    51   24   49 1 
    52   24   50 1 
    53   25   51 1 
    54   25   52 1 
    55   26   27 ar
    56   26   32 1 
    57   27   28 ar
    58   27   53 1 
    59   28   54 1 
@<TRIPOS>SUBSTRUCTURE
1 MOL         1
@<TRIPOS>MOLECULE
query molecule
   55    59     1     0     0
SMALL
NO_CHARGE

@<TRIPOS>ATOM
      1 N          12.0425  -12.0180   -8.1585 N.am      1 MOL    -0.2945
      2 N          13.7023   -9.7362   -8.6216 N.am      1 MOL    -0.2983
      3 N           7.8571  -13.7230   -2.3974 N.ar      1 MOL    -0.1750
      4 N           6.8572  -14.1267   -1.6216 N.ar      1 MOL    -0.2425
      5 C           6.2314  -13.2413   -0.7148 C.ar      1 MOL     0.2725
      6 C           6.7305  -11.9234   -0.6134 C.ar      1 MOL     0.0496
      7 C           6.2229  -11.0150    0.3206 C.ar      1 MOL     0.0138
      8 C           6.7412   -9.7238    0.4103 C.ar      1 MOL     0.0008
      9 C           7.7522   -9.3170   -0.4544 C.ar      1 MOL     0.0007
     10 C           8.2584  -10.2141   -1.3923 C.ar      1 MOL     0.0103
     11 C           7.7851  -11.5283   -1.4829 C.ar      1 MOL     0.0106
     12 C           8.3325  -12.4461   -2.3972 C.ar      1 MOL     0.0736
     13 C           9.4270  -12.0688   -3.3319 C.3       1 MOL     0.0925
     14 C           9.1014  -12.1502   -4.7751 C.ar      1 MOL    -0.0406
     15 C          10.1247  -12.5226   -5.6675 C.ar      1 MOL     0.0196
     16 C           9.9088  -12.5255   -7.0504 C.ar      1 MOL     0.0723
     17 C          10.9827  -12.8516   -8.0254 C.2       1 MOL     0.2495
     18 C          12.7974  -11.9567   -9.4093 C.3       1 MOL     0.1268
     19 C          13.1899  -10.4792   -9.7629 C.3       1 MOL     0.1265
     20 C          13.0874   -9.9517   -7.3199 C.3       1 MOL     0.1265
     21 C          12.7520  -11.4354   -7.0356 C.3       1 MOL     0.1268
     22 C          14.6445   -8.7553   -8.6728 C.2       1 MOL     0.2187
     23 C          14.9572   -8.1449   -9.9873 C.3       1 MOL     0.0752
     24 C          15.1991   -6.6788   -9.8856 C.3       1 MOL     0.0134
     25 C          13.8656   -7.1862  -10.3504 C.3       1 MOL     0.0134
     26 C           8.6297  -12.2068   -7.5296 C.ar      1 MOL     0.1355
     27 C           7.5977  -11.8632   -6.6550 C.ar      1 MOL     0.0392
     28 C           7.8385  -11.8255   -5.2808 C.ar      1 MOL     0.0066
     29 O           5.2550  -13.6663   -0.0732 O.2       1 MOL    -0.2658
     30 O          15.2321   -8.3375   -7.6613 O.2       1 MOL    -0.2753
     31 O          10.7590  -13.7929   -8.7958 O.2       1 MOL    -0.2699
     32 F           8.3757  -12.2194   -8.8614 F         1 MOL    -0.2047
     33 H           5.4252  -11.3216    0.9829 H         1 MOL     0.0625
     34 H           6.3506   -9.0351    1.1449 H         1 MOL     0.0618
     35 H           8.1438   -8.3130   -0.4025 H         1 MOL     0.0618
     36 H           9.0358   -9.8892   -2.0661 H         1 MOL     0.0624
     37 H          10.2961  -12.7289   -3.1396 H         1 MOL     0.0377
     38 H           9.7076  -11.0168   -3.1137 H         1 MOL     0.0377
     39 H          11.0970  -12.7945   -5.2790 H         1 MOL     0.0629
     40 H          12.2009  -12.4217  -10.2261 H         1 MOL     0.0480
     41 H          13.7246  -12.5671   -9.2757 H         1 MOL     0.0480
     42 H          12.2737   -9.9553  -10.1312 H         1 MOL     0.0480
     43 H          13.9434  -10.4569  -10.5843 H         1 MOL     0.0480
     44 H          12.1186   -9.3877   -7.3214 H         1 MOL     0.0480
     45 H          13.7294   -9.5060   -6.5285 H         1 MOL     0.0480
     46 H          12.1226  -11.5220   -6.1203 H         1 MOL     0.0480
     47 H          13.6897  -12.0144   -6.8701 H         1 MOL     0.0480
     48 H          15.4275   -8.7561  -10.7061 H         1 MOL     0.0394
     49 H          15.8214   -6.2161  -10.6413 H         1 MOL     0.0273
     50 H          15.2379   -6.2606   -8.8861 H         1 MOL     0.0273
     51 H          13.6353   -7.0619  -11.4000 H         1 MOL     0.0273
     52 H          13.0453   -7.0999   -9.6462 H         1 MOL     0.0273
     53 H           6.6180  -11.6218   -7.0403 H         1 MOL     0.0646
     54 H           7.0433  -11.5416   -4.6062 H         1 MOL     0.0621
     55 H           6.5581  -15.0870   -1.5919 H         1 MOL     0.1921
@<TRIPOS>BOND
     1    1   17 am
     2    1   18 1 
     3    1   21 1 
     4    2   19 1 
     5    2   20 1 
     6    2   22 am
     7    3    4 ar
     8    3   12 ar
     9    4    5 ar
    10    4   55 1 
    11    5    6 ar
    12    5   29 2 
    13    6    7 ar
    14    6   11 ar
    15    7    8 ar
    16    7   33 1 
    17    8    9 ar
    18    8   34 1 
    19    9   10 ar
    20    9   35 1 
    21   10   11 ar
    22   10   36 1 
    23   11   12 ar
    24   12   13 1 
    25   13   14 1 
    26   13   37 1 
    27   13   38 1 
    28   14   15 ar
    29   14   28 ar
    30   15   16 ar
    31   15   39 1 
    32   16   17 1 
    33   16   26 ar
    34   17   31 2 
    35   18   19 1 
    36   18   40 1 
    37   18   41 1 
    38   19   42 1 
    39   19   43 1 
    40   20   21 1 
    41   20   44 1 
    42   20   45 1 
    43   21   46 1 
    44   21   47 1 
    45   22   23 1 
    46   22   30 2 
    47   23   24 1 
    48   23   25 1 
    49   23   48 1 
    50   24   25 1 
    51   24   49 1 
    52   24   50 1 
    53   25   51 1 
    54   25   52 1 
    55   26   27 ar
    56   26   32 1 
    57   27   28 ar
    58   27   53 1 
    59   28   54 1 
@<TRIPOS>SUBSTRUCTURE
1 MOL         1
@<TRIPOS>MOLECULE
query molecule
   55    59     1     0     0
SMALL
NO_CHARGE

@<TRIPOS>ATOM
      1 N           6.3782   -1.8918   -5.9792 N.am      1 MOL    -0.2945
      2 N           6.2483    0.5399   -7.3756 N.am      1 MOL    -0.2983
      3 N           1.4635   -2.6419   -1.5377 N.ar      1 MOL    -0.1750
      4 N           0.2259   -2.1963   -1.3472 N.ar      1 MOL    -0.2425
      5 C          -0.7877   -3.0541   -0.8653 C.ar      1 MOL     0.2725
      6 C          -0.4605   -4.4030   -0.6022 C.ar      1 MOL     0.0496
      7 C          -1.4228   -5.3077   -0.1413 C.ar      1 MOL     0.0138
      8 C          -1.0812   -6.6412    0.0888 C.ar      1 MOL     0.0008
      9 C           0.2237   -7.0816   -0.1355 C.ar      1 MOL     0.0007
     10 C           1.1929   -6.1863   -0.5826 C.ar      1 MOL     0.0103
     11 C           0.8777   -4.8401   -0.8202 C.ar      1 MOL     0.0106
     12 C           1.8436   -3.9207   -1.2637 C.ar      1 MOL     0.0736
     13 C           3.2672   -4.3128   -1.4149 C.3       1 MOL     0.0925
     14 C           3.7260   -4.3755   -2.8117 C.ar      1 MOL    -0.0406
     15 C           4.6934   -3.4574   -3.2215 C.ar      1 MOL     0.0196
     16 C           5.2294   -3.5095   -4.5190 C.ar      1 MOL     0.0723
     17 C           6.3038   -2.5495   -4.8095 C.2       1 MOL     0.2495
     18 C           7.6234   -1.1915   -6.3047 C.3       1 MOL     0.1268
     19 C           7.3926    0.3319   -6.5105 C.3       1 MOL     0.1265
     20 C           5.0013   -0.0840   -6.9355 C.3       1 MOL     0.1265
     21 C           5.2186   -1.6201   -6.8111 C.3       1 MOL     0.1268
     22 C           6.2365    1.2488   -8.5272 C.2       1 MOL     0.2187
     23 C           7.5172    1.7286   -9.0869 C.3       1 MOL     0.0752
     24 C           7.4516    1.6201  -10.5807 C.3       1 MOL     0.0134
     25 C           8.3277    0.6965   -9.7877 C.3       1 MOL     0.0134
     26 C           4.7675   -4.4770   -5.4037 C.ar      1 MOL     0.1355
     27 C           3.7783   -5.3860   -5.0080 C.ar      1 MOL     0.0392
     28 C           3.2594   -5.3364   -3.7084 C.ar      1 MOL     0.0066
     29 O          -1.9238   -2.5741   -0.7001 O.2       1 MOL    -0.2658
     30 O           5.1784    1.5279   -9.1164 O.2       1 MOL    -0.2753
     31 O           7.1554   -2.4199   -3.9212 O.2       1 MOL    -0.2699
     32 F           5.2776   -4.5773   -6.6551 F         1 MOL    -0.2047
     33 H          -2.4350   -4.9715    0.0318 H         1 MOL     0.0625
     34 H          -1.8301   -7.3347    0.4432 H         1 MOL     0.0618
     35 H           0.4846   -8.1148    0.0395 H         1 MOL     0.0618
     36 H           2.2044   -6.5318   -0.7499 H         1 MOL     0.0624
     37 H           3.4004   -5.3129   -0.9591 H         1 MOL     0.0377
     38 H           3.8900   -3.5680   -0.8818 H         1 MOL     0.0377
     39 H           5.0448   -2.7072   -2.5274 H         1 MOL     0.0629
     40 H           8.0270   -1.6316   -7.2508 H         1 MOL     0.0480
     41 H           8.3732   -1.3794   -5.5033 H         1 MOL     0.0480
     42 H           8.2817    0.8462   -6.9308 H         1 MOL     0.0480
     43 H           7.1637    0.7901   -5.5154 H         1 MOL     0.0480
     44 H           4.1942    0.1547   -7.6617 H         1 MOL     0.0480
     45 H           4.7259    0.3464   -5.9442 H         1 MOL     0.0480
     46 H           5.4116   -2.0492   -7.8249 H         1 MOL     0.0480
     47 H           4.3279   -2.1276   -6.3816 H         1 MOL     0.0480
     48 H           7.9310    2.5868   -8.6258 H         1 MOL     0.0394
     49 H           7.9170    2.4177  -11.1422 H         1 MOL     0.0273
     50 H           6.5495    1.1748  -10.9877 H         1 MOL     0.0273
     51 H           9.3913    0.8845   -9.9003 H         1 MOL     0.0273
     52 H           8.0063   -0.3338   -9.7200 H         1 MOL     0.0273
     53 H           3.4201   -6.1335   -5.7010 H         1 MOL     0.0646
     54 H           2.5061   -6.0459   -3.3995 H         1 MOL     0.0621
     55 H          -0.0457   -1.2547   -1.5716 H         1 MOL     0.1921
@<TRIPOS>BOND
     1    1   17 am
     2    1   18 1 
     3    1   21 1 
     4    2   19 1 
     5    2   20 1 
     6    2   22 am
     7    3    4 ar
     8    3   12 ar
     9    4    5 ar
    10    4   55 1 
    11    5    6 ar
    12    5   29 2 
    13    6    7 ar
    14    6   11 ar
    15    7    8 ar
    16    7   33 1 
    17    8    9 ar
    18    8   34 1 
    19    9   10 ar
    20    9   35 1 
    21   10   11 ar
    22   10   36 1 
    23   11   12 ar
    24   12   13 1 
    25   13   14 1 
    26   13   37 1 
    27   13   38 1 
    28   14   15 ar
    29   14   28 ar
    30   15   16 ar
    31   15   39 1 
    32   16   17 1 
    33   16   26 ar
    34   17   31 2 
    35   18   19 1 
    36   18   40 1 
    37   18   41 1 
    38   19   42 1 
    39   19   43 1 
    40   20   21 1 
    41   20   44 1 
    42   20   45 1 
    43   21   46 1 
    44   21   47 1 
    45   22   23 1 
    46   22   30 2 
    47   23   24 1 
    48   23   25 1 
    49   23   48 1 
    50   24   25 1 
    51   24   49 1 
    52   24   50 1 
    53   25   51 1 
    54   25   52 1 
    55   26   27 ar
    56   26   32 1 
    57   27   28 ar
    58   27   53 1 
    59   28   54 1 
@<TRIPOS>SUBSTRUCTURE
1 MOL         1
@<TRIPOS>MOLECULE
query molecule
   55    59     1     0     0
SMALL
NO_CHARGE

@<TRIPOS>ATOM
      1 N          -7.8955   -0.0006   27.6223 N.am      1 MOL    -0.2945
      2 N          -7.1156    0.5215   30.3126 N.am      1 MOL    -0.2983
      3 N         -10.7668   -4.1633   22.6307 N.ar      1 MOL    -0.1750
      4 N         -11.6535   -3.9373   21.6678 N.ar      1 MOL    -0.2425
      5 C         -11.2338   -3.7276   20.3363 C.ar      1 MOL     0.2725
      6 C          -9.8503   -3.7580   20.0618 C.ar      1 MOL     0.0496
      7 C          -9.3789   -3.5782   18.7619 C.ar      1 MOL     0.0138
      8 C          -8.0170   -3.6200   18.4919 C.ar      1 MOL     0.0008
      9 C          -7.1156   -3.8321   19.5265 C.ar      1 MOL     0.0007
     10 C          -7.5638   -4.0131   20.8321 C.ar      1 MOL     0.0103
     11 C          -8.9346   -3.9862   21.1247 C.ar      1 MOL     0.0106
     12 C          -9.4180   -4.1901   22.4281 C.ar      1 MOL     0.0736
     13 C          -8.4813   -4.4620   23.5588 C.3       1 MOL     0.0925
     14 C          -8.8457   -3.7367   24.7964 C.ar      1 MOL    -0.0406
     15 C          -8.4807   -2.4013   24.9983 C.ar      1 MOL     0.0196
     16 C          -8.8108   -1.7533   26.1972 C.ar      1 MOL     0.0723
     17 C          -8.3884   -0.3436   26.4012 C.2       1 MOL     0.2495
     18 C          -7.9725    1.3733   28.1026 C.3       1 MOL     0.1268
     19 C          -8.0606    1.4203   29.6616 C.3       1 MOL     0.1265
     20 C          -6.9520   -0.8222   29.7558 C.3       1 MOL     0.1265
     21 C          -6.8281   -0.8099   28.2100 C.3       1 MOL     0.1268
     22 C          -6.4533    0.8010   31.4710 C.2       1 MOL     0.2187
     23 C          -6.7997    2.0424   32.2009 C.3       1 MOL     0.0752
     24 C          -6.0403    3.2145   31.6934 C.3       1 MOL     0.0134
     25 C          -5.6577    2.5753   32.9953 C.3       1 MOL     0.0134
     26 C          -9.5318   -2.4483   27.1734 C.ar      1 MOL     0.1355
     27 C          -9.9043   -3.7786   26.9744 C.ar      1 MOL     0.0392
     28 C          -9.5582   -4.4239   25.7872 C.ar      1 MOL     0.0066
     29 O         -12.1002   -3.5253   19.4720 O.2       1 MOL    -0.2658
     30 O          -5.6278    0.0193   31.9722 O.2       1 MOL    -0.2753
     31 O          -8.6003    0.4618   25.4918 O.2       1 MOL    -0.2699
     32 F          -9.8899   -1.8425   28.3313 F         1 MOL    -0.2047
     33 H         -10.0804   -3.4042   17.9585 H         1 MOL     0.0625
     34 H          -7.6614   -3.4821   17.4825 H         1 MOL     0.0618
     35 H          -6.0559   -3.8576   19.3159 H         1 MOL     0.0618
     36 H          -6.8499   -4.1810   21.6257 H         1 MOL     0.0624
     37 H          -7.4653   -4.1475   23.2555 H         1 MOL     0.0377
     38 H          -8.4976   -5.5476   23.7739 H         1 MOL     0.0377
     39 H          -7.9342   -1.8710   24.2323 H         1 MOL     0.0629
     40 H          -8.8452    1.8822   27.6351 H         1 MOL     0.0480
     41 H          -7.0475    1.9046   27.7688 H         1 MOL     0.0480
     42 H          -9.0903    1.1102   29.9671 H         1 MOL     0.0480
     43 H          -7.8963    2.4575   30.0360 H         1 MOL     0.0480
     44 H          -7.8614   -1.4126   30.0326 H         1 MOL     0.0480
     45 H          -6.0732   -1.3123   30.2320 H         1 MOL     0.0480
     46 H          -6.8863   -1.8450   27.8032 H         1 MOL     0.0480
     47 H          -5.8475   -0.3720   27.9096 H         1 MOL     0.0480
     48 H          -7.8004    2.1224   32.5398 H         1 MOL     0.0394
     49 H          -6.5258    4.1808   31.7669 H         1 MOL     0.0273
     50 H          -5.3655    3.0589   30.8623 H         1 MOL     0.0273
     51 H          -5.9073    3.1180   33.8999 H         1 MOL     0.0273
     52 H          -4.7432    1.9962   33.0007 H         1 MOL     0.0273
     53 H         -10.4591   -4.3054   27.7364 H         1 MOL     0.0646
     54 H          -9.8411   -5.4551   25.6329 H         1 MOL     0.0621
     55 H         -12.6448   -3.9383   21.8346 H         1 MOL     0.1921
@<TRIPOS>BOND
     1    1   17 am
     2    1   18 1 
     3    1   21 1 
     4    2   19 1 
     5    2   20 1 
     6    2   22 am
     7    3    4 ar
     8    3   12 ar
     9    4    5 ar
    10    4   55 1 
    11    5    6 ar
    12    5   29 2 
    13    6    7 ar
    14    6   11 ar
    15    7    8 ar
    16    7   33 1 
    17    8    9 ar
    18    8   34 1 
    19    9   10 ar
    20    9   35 1 
    21   10   11 ar
    22   10   36 1 
    23   11   12 ar
    24   12   13 1 
    25   13   14 1 
    26   13   37 1 
    27   13   38 1 
    28   14   15 ar
    29   14   28 ar
    30   15   16 ar
    31   15   39 1 
    32   16   17 1 
    33   16   26 ar
    34   17   31 2 
    35   18   19 1 
    36   18   40 1 
    37   18   41 1 
    38   19   42 1 
    39   19   43 1 
    40   20   21 1 
    41   20   44 1 
    42   20   45 1 
    43   21   46 1 
    44   21   47 1 
    45   22   23 1 
    46   22   30 2 
    47   23   24 1 
    48   23   25 1 
    49   23   48 1 
    50   24   25 1 
    51   24   49 1 
    52   24   50 1 
    53   25   51 1 
    54   25   52 1 
    55   26   27 ar
    56   26   32 1 
    57   27   28 ar
    58   27   53 1 
    59   28   54 1 
@<TRIPOS>SUBSTRUCTURE
1 MOL         1
@<TRIPOS>MOLECULE
query molecule
   55    59     1     0     0
SMALL
NO_CHARGE

@<TRIPOS>ATOM
      1 N          33.5855    8.6311   -2.6375 N.am      1 MOL    -0.2945
      2 N          34.7654    8.4147   -0.0408 N.am      1 MOL    -0.2983
      3 N          33.9777    4.9326   -6.9355 N.ar      1 MOL    -0.1750
      4 N          33.0904    3.9512   -6.9730 N.ar      1 MOL    -0.2425
      5 C          33.5215    2.6186   -6.8228 C.ar      1 MOL     0.2725
      6 C          34.8948    2.3735   -6.5895 C.ar      1 MOL     0.0496
      7 C          35.3774    1.0774   -6.4073 C.ar      1 MOL     0.0138
      8 C          36.7259    0.8645   -6.1089 C.ar      1 MOL     0.0008
      9 C          37.6079    1.9397   -6.0180 C.ar      1 MOL     0.0007
     10 C          37.1448    3.2368   -6.2344 C.ar      1 MOL     0.0103
     11 C          35.7920    3.4844   -6.5220 C.ar      1 MOL     0.0106
     12 C          35.3101    4.7868   -6.7282 C.ar      1 MOL     0.0736
     13 C          36.2172    5.9814   -6.7173 C.3       1 MOL     0.0925
     14 C          35.5074    7.2474   -6.3925 C.ar      1 MOL    -0.0406
     15 C          34.6707    7.3651   -5.2759 C.ar      1 MOL     0.0196
     16 C          33.9720    8.5552   -5.0409 C.ar      1 MOL     0.0723
     17 C          33.0570    8.6570   -3.8880 C.2       1 MOL     0.2495
     18 C          32.7144    8.4303   -1.4813 C.3       1 MOL     0.1268
     19 C          33.4875    7.7608   -0.3051 C.3       1 MOL     0.1265
     20 C          35.6051    8.7609   -1.1914 C.3       1 MOL     0.1265
     21 C          34.7980    9.3979   -2.3528 C.3       1 MOL     0.1268
     22 C          35.2692    8.6179    1.2080 C.2       1 MOL     0.2187
     23 C          34.4986    8.1023    2.3683 C.3       1 MOL     0.0752
     24 C          33.7479    9.1643    3.0916 C.3       1 MOL     0.0134
     25 C          35.0153    8.6002    3.6768 C.3       1 MOL     0.0134
     26 C          34.1382    9.6334   -5.9079 C.ar      1 MOL     0.1355
     27 C          34.9930    9.5396   -7.0041 C.ar      1 MOL     0.0392
     28 C          35.6771    8.3451   -7.2515 C.ar      1 MOL     0.0066
     29 O          32.6635    1.7326   -6.9032 O.2       1 MOL    -0.2658
     30 O          36.3773    9.1421    1.4003 O.2       1 MOL    -0.2753
     31 O          31.8491    8.6760   -4.1345 O.2       1 MOL    -0.2699
     32 F          33.4759   10.7931   -5.6855 F         1 MOL    -0.2047
     33 H          34.7058    0.2347   -6.4796 H         1 MOL     0.0625
     34 H          37.0907   -0.1386   -5.9482 H         1 MOL     0.0618
     35 H          38.6486    1.7697   -5.7825 H         1 MOL     0.0618
     36 H          37.8368    4.0666   -6.1758 H         1 MOL     0.0624
     37 H          36.6619    6.0829   -7.7279 H         1 MOL     0.0377
     38 H          37.0129    5.8178   -5.9665 H         1 MOL     0.0377
     39 H          34.5494    6.5257   -4.6076 H         1 MOL     0.0629
     40 H          31.8408    7.8075   -1.7833 H         1 MOL     0.0480
     41 H          32.3301    9.4285   -1.1598 H         1 MOL     0.0480
     42 H          33.7017    6.6986   -0.5818 H         1 MOL     0.0480
     43 H          32.8818    7.7557    0.6293 H         1 MOL     0.0480
     44 H          36.0802    7.8208   -1.5652 H         1 MOL     0.0480
     45 H          36.4210    9.4424   -0.8563 H         1 MOL     0.0480
     46 H          35.4133    9.4728   -3.2775 H         1 MOL     0.0480
     47 H          34.4870   10.4325   -2.0645 H         1 MOL     0.0480
     48 H          34.1319    7.1107    2.2683 H         1 MOL     0.0394
     49 H          32.8385    8.8543    3.5888 H         1 MOL     0.0273
     50 H          33.7908   10.1687    2.6960 H         1 MOL     0.0273
     51 H          34.9345    7.9210    4.5091 H         1 MOL     0.0273
     52 H          35.8889    9.2453    3.6413 H         1 MOL     0.0273
     53 H          35.1280   10.3862   -7.6601 H         1 MOL     0.0646
     54 H          36.3330    8.2683   -8.1036 H         1 MOL     0.0621
     55 H          32.1067    4.1341   -6.9230 H         1 MOL     0.1921
@<TRIPOS>BOND
     1    1   17 am
     2    1   18 1 
     3    1   21 1 
     4    2   19 1 
     5    2   20 1 
     6    2   22 am
     7    3    4 ar
     8    3   12 ar
     9    4    5 ar
    10    4   55 1 
    11    5    6 ar
    12    5   29 2 
    13    6    7 ar
    14    6   11 ar
    15    7    8 ar
    16    7   33 1 
    17    8    9 ar
    18    8   34 1 
    19    9   10 ar
    20    9   35 1 
    21   10   11 ar
    22   10   36 1 
    23   11   12 ar
    24   12   13 1 
    25   13   14 1 
    26   13   37 1 
    27   13   38 1 
    28   14   15 ar
    29   14   28 ar
    30   15   16 ar
    31   15   39 1 
    32   16   17 1 
    33   16   26 ar
    34   17   31 2 
    35   18   19 1 
    36   18   40 1 
    37   18   41 1 
    38   19   42 1 
    39   19   43 1 
    40   20   21 1 
    41   20   44 1 
    42   20   45 1 
    43   21   46 1 
    44   21   47 1 
    45   22   23 1 
    46   22   30 2 
    47   23   24 1 
    48   23   25 1 
    49   23   48 1 
    50   24   25 1 
    51   24   49 1 
    52   24   50 1 
    53   25   51 1 
    54   25   52 1 
    55   26   27 ar
    56   26   32 1 
    57   27   28 ar
    58   27   53 1 
    59   28   54 1 
@<TRIPOS>SUBSTRUCTURE
1 MOL         1
@<TRIPOS>MOLECULE
query molecule
   55    59     1     0     0
SMALL
NO_CHARGE

@<TRIPOS>ATOM
      1 N          18.8410   -0.1594   38.6585 N.am      1 MOL    -0.2945
      2 N          16.9834   -2.0078   39.8252 N.am      1 MOL    -0.2983
      3 N          22.1620   -4.2961   38.7956 N.ar      1 MOL    -0.1750
      4 N          21.4106   -5.0893   39.5495 N.ar      1 MOL    -0.2425
      5 C          21.3482   -4.9440   40.9507 C.ar      1 MOL     0.2725
      6 C          22.1060   -3.9160   41.5434 C.ar      1 MOL     0.0496
      7 C          22.0711   -3.7057   42.9252 C.ar      1 MOL     0.0138
      8 C          22.8401   -2.6934   43.5017 C.ar      1 MOL     0.0008
      9 C          23.6480   -1.8878   42.6947 C.ar      1 MOL     0.0007
     10 C          23.6805   -2.0834   41.3157 C.ar      1 MOL     0.0103
     11 C          22.9070   -3.0900   40.7062 C.ar      1 MOL     0.0106
     12 C          22.9150   -3.2846   39.3140 C.ar      1 MOL     0.0736
     13 C          23.7227   -2.4124   38.3986 C.3       1 MOL     0.0925
     14 C          22.8886   -1.4770   37.5986 C.ar      1 MOL    -0.0406
     15 C          21.7545   -0.8576   38.1276 C.ar      1 MOL     0.0196
     16 C          20.9422   -0.0103   37.3685 C.ar      1 MOL     0.0723
     17 C          19.6969    0.5987   37.9186 C.2       1 MOL     0.2495
     18 C          17.4225    0.2034   38.7005 C.3       1 MOL     0.1268
     19 C          16.5240   -1.0699   38.8094 C.3       1 MOL     0.1265
     20 C          18.4225   -2.2470   39.9489 C.3       1 MOL     0.1265
     21 C          19.2612   -0.9464   39.8089 C.3       1 MOL     0.1268
     22 C          16.1504   -2.7450   40.6162 C.2       1 MOL     0.2187
     23 C          14.6814   -2.5982   40.4493 C.3       1 MOL     0.0752
     24 C          13.9288   -3.8260   40.8329 C.3       1 MOL     0.0134
     25 C          14.1564   -3.5059   39.3860 C.3       1 MOL     0.0134
     26 C          21.3313    0.2472   36.0459 C.ar      1 MOL     0.1355
     27 C          22.4720   -0.3439   35.4980 C.ar      1 MOL     0.0392
     28 C          23.2498   -1.2060   36.2744 C.ar      1 MOL     0.0066
     29 O          20.6309   -5.7333   41.5870 O.2       1 MOL    -0.2658
     30 O          16.5811   -3.5146   41.4919 O.2       1 MOL    -0.2753
     31 O          19.4142    1.7444   37.5409 O.2       1 MOL    -0.2699
     32 F          20.5982    1.0739   35.2644 F         1 MOL    -0.2047
     33 H          21.4464   -4.3272   43.5505 H         1 MOL     0.0625
     34 H          22.8093   -2.5341   44.5700 H         1 MOL     0.0618
     35 H          24.2499   -1.1105   43.1495 H         1 MOL     0.0618
     36 H          24.3097   -1.4499   40.7061 H         1 MOL     0.0624
     37 H          24.2821   -3.0641   37.7010 H         1 MOL     0.0377
     38 H          24.4265   -1.8161   39.0104 H         1 MOL     0.0377
     39 H          21.4866   -1.0481   39.1600 H         1 MOL     0.0629
     40 H          17.1617    0.7920   37.7913 H         1 MOL     0.0480
     41 H          17.2645    0.8616   39.5892 H         1 MOL     0.0480
     42 H          16.5530   -1.5945   37.8228 H         1 MOL     0.0480
     43 H          15.4647   -0.7963   39.0190 H         1 MOL     0.0480
     44 H          18.7154   -2.9477   39.1252 H         1 MOL     0.0480
     45 H          18.6373   -2.7584   40.9134 H         1 MOL     0.0480
     46 H          20.3447   -1.1845   39.6991 H         1 MOL     0.0480
     47 H          19.1330   -0.3198   40.7221 H         1 MOL     0.0480
     48 H          14.2854   -1.6268   40.5978 H         1 MOL     0.0394
     49 H          12.9208   -3.7016   41.2060 H         1 MOL     0.0273
     50 H          14.5171   -4.6353   41.2490 H         1 MOL     0.0273
     51 H          13.2822   -3.1858   38.8318 H         1 MOL     0.0273
     52 H          14.8856   -4.1158   38.8648 H         1 MOL     0.0273
     53 H          22.7523   -0.1335   34.4763 H         1 MOL     0.0646
     54 H          24.1300   -1.6659   35.8497 H         1 MOL     0.0621
     55 H          20.8968   -5.8686   39.1745 H         1 MOL     0.1921
@<TRIPOS>BOND
     1    1   17 am
     2    1   18 1 
     3    1   21 1 
     4    2   19 1 
     5    2   20 1 
     6    2   22 am
     7    3    4 ar
     8    3   12 ar
     9    4    5 ar
    10    4   55 1 
    11    5    6 ar
    12    5   29 2 
    13    6    7 ar
    14    6   11 ar
    15    7    8 ar
    16    7   33 1 
    17    8    9 ar
    18    8   34 1 
    19    9   10 ar
    20    9   35 1 
    21   10   11 ar
    22   10   36 1 
    23   11   12 ar
    24   12   13 1 
    25   13   14 1 
    26   13   37 1 
    27   13   38 1 
    28   14   15 ar
    29   14   28 ar
    30   15   16 ar
    31   15   39 1 
    32   16   17 1 
    33   16   26 ar
    34   17   31 2 
    35   18   19 1 
    36   18   40 1 
    37   18   41 1 
    38   19   42 1 
    39   19   43 1 
    40   20   21 1 
    41   20   44 1 
    42   20   45 1 
    43   21   46 1 
    44   21   47 1 
    45   22   23 1 
    46   22   30 2 
    47   23   24 1 
    48   23   25 1 
    49   23   48 1 
    50   24   25 1 
    51   24   49 1 
    52   24   50 1 
    53   25   51 1 
    54   25   52 1 
    55   26   27 ar
    56   26   32 1 
    57   27   28 ar
    58   27   53 1 
    59   28   54 1 
@<TRIPOS>SUBSTRUCTURE
1 MOL         1
@<TRIPOS>MOLECULE
query molecule
   55    59     1     0     0
SMALL
NO_CHARGE

@<TRIPOS>ATOM
      1 N          -5.6977    4.0441    3.1387 N.am      1 MOL    -0.2945
      2 N          -6.9556    1.8791    4.4889 N.am      1 MOL    -0.2983
      3 N          -1.8789    1.8945    4.4514 N.ar      1 MOL    -0.1750
      4 N          -2.3938    1.2551    5.4919 N.ar      1 MOL    -0.2425
      5 C          -2.6344   -0.1347    5.4434 C.ar      1 MOL     0.2725
      6 C          -2.3312   -0.8156    4.2451 C.ar      1 MOL     0.0496
      7 C          -2.5573   -2.1863    4.1208 C.ar      1 MOL     0.0138
      8 C          -2.2374   -2.8520    2.9387 C.ar      1 MOL     0.0008
      9 C          -1.6840   -2.1488    1.8683 C.ar      1 MOL     0.0007
     10 C          -1.4599   -0.7770    1.9759 C.ar      1 MOL     0.0103
     11 C          -1.7828   -0.0853    3.1528 C.ar      1 MOL     0.0106
     12 C          -1.5649    1.2976    3.2659 C.ar      1 MOL     0.0736
     13 C          -0.9787    2.0893    2.1416 C.3       1 MOL     0.0925
     14 C          -1.7411    3.2861    1.7164 C.ar      1 MOL    -0.0406
     15 C          -3.0280    3.5652    2.1662 C.ar      1 MOL     0.0196
     16 C          -3.7352    4.7147    1.7944 C.ar      1 MOL     0.0723
     17 C          -5.0992    4.9744    2.3405 C.2       1 MOL     0.2495
     18 C          -7.1619    3.9608    3.1264 C.3       1 MOL     0.1268
     19 C          -7.6317    2.4891    3.3546 C.3       1 MOL     0.1265
     20 C          -5.5296    2.1206    4.6918 C.3       1 MOL     0.1265
     21 C          -5.1159    3.5899    4.4006 C.3       1 MOL     0.1268
     22 C          -7.5668    1.0020    5.3303 C.2       1 MOL     0.2187
     23 C          -8.6350    0.1314    4.7801 C.3       1 MOL     0.0752
     24 C          -8.5386   -1.2687    5.2791 C.3       1 MOL     0.0134
     25 C          -7.9792   -0.9167    3.9326 C.3       1 MOL     0.0134
     26 C          -3.1133    5.5942    0.8914 C.ar      1 MOL     0.1355
     27 C          -1.8233    5.3296    0.4074 C.ar      1 MOL     0.0392
     28 C          -1.1385    4.1835    0.8213 C.ar      1 MOL     0.0066
     29 O          -3.0958   -0.6826    6.4560 O.2       1 MOL    -0.2658
     30 O          -7.2337    0.8819    6.5165 O.2       1 MOL    -0.2753
     31 O          -5.7063    5.9788    1.9411 O.2       1 MOL    -0.2699
     32 F          -3.7411    6.7245    0.4555 F         1 MOL    -0.2047
     33 H          -2.9822   -2.7363    4.9483 H         1 MOL     0.0625
     34 H          -2.4183   -3.9125    2.8499 H         1 MOL     0.0618
     35 H          -1.4319   -2.6648    0.9537 H         1 MOL     0.0618
     36 H          -1.0330   -0.2368    1.1420 H         1 MOL     0.0624
     37 H          -0.8744    1.4175    1.2666 H         1 MOL     0.0377
     38 H           0.0281    2.4311    2.4646 H         1 MOL     0.0377
     39 H          -3.4985    2.8647    2.8475 H         1 MOL     0.0629
     40 H          -7.5482    4.3646    2.1640 H         1 MOL     0.0480
     41 H          -7.5465    4.6112    3.9501 H         1 MOL     0.0480
     42 H          -7.4048    1.8866    2.4441 H         1 MOL     0.0480
     43 H          -8.7333    2.4529    3.5240 H         1 MOL     0.0480
     44 H          -4.9824    1.4619    3.9686 H         1 MOL     0.0480
     45 H          -5.2429    1.7971    5.7170 H         1 MOL     0.0480
     46 H          -4.0070    3.6786    4.3491 H         1 MOL     0.0480
     47 H          -5.4833    4.2544    5.2166 H         1 MOL     0.0480
     48 H          -9.5386    0.5887    4.4911 H         1 MOL     0.0394
     49 H          -9.4371   -1.8691    5.2730 H         1 MOL     0.0273
     50 H          -7.8250   -1.4435    6.0767 H         1 MOL     0.0273
     51 H          -8.5196   -1.2953    3.0749 H         1 MOL     0.0273
     52 H          -6.8975   -0.8792    3.8629 H         1 MOL     0.0273
     53 H          -1.3589    6.0137   -0.2876 H         1 MOL     0.0646
     54 H          -0.1427    3.9883    0.4503 H         1 MOL     0.0621
     55 H          -2.5528    1.7142    6.3735 H         1 MOL     0.1921
@<TRIPOS>BOND
     1    1   17 am
     2    1   18 1 
     3    1   21 1 
     4    2   19 1 
     5    2   20 1 
     6    2   22 am
     7    3    4 ar
     8    3   12 ar
     9    4    5 ar
    10    4   55 1 
    11    5    6 ar
    12    5   29 2 
    13    6    7 ar
    14    6   11 ar
    15    7    8 ar
    16    7   33 1 
    17    8    9 ar
    18    8   34 1 
    19    9   10 ar
    20    9   35 1 
    21   10   11 ar
    22   10   36 1 
    23   11   12 ar
    24   12   13 1 
    25   13   14 1 
    26   13   37 1 
    27   13   38 1 
    28   14   15 ar
    29   14   28 ar
    30   15   16 ar
    31   15   39 1 
    32   16   17 1 
    33   16   26 ar
    34   17   31 2 
    35   18   19 1 
    36   18   40 1 
    37   18   41 1 
    38   19   42 1 
    39   19   43 1 
    40   20   21 1 
    41   20   44 1 
    42   20   45 1 
    43   21   46 1 
    44   21   47 1 
    45   22   23 1 
    46   22   30 2 
    47   23   24 1 
    48   23   25 1 
    49   23   48 1 
    50   24   25 1 
    51   24   49 1 
    52   24   50 1 
    53   25   51 1 
    54   25   52 1 
    55   26   27 ar
    56   26   32 1 
    57   27   28 ar
    58   27   53 1 
    59   28   54 1 
@<TRIPOS>SUBSTRUCTURE
1 MOL         1
@<TRIPOS>MOLECULE
query molecule
   55    59     1     0     0
SMALL
NO_CHARGE

@<TRIPOS>ATOM
      1 N          15.9961   12.7109    7.5430 N.am      1 MOL    -0.2945
      2 N          13.6209   11.3991    6.7494 N.am      1 MOL    -0.2983
      3 N          15.7310   11.8384   13.0953 N.ar      1 MOL    -0.1750
      4 N          14.8169   12.5387   13.7602 N.ar      1 MOL    -0.2425
      5 C          15.2010   13.4359   14.7760 C.ar      1 MOL     0.2725
      6 C          16.5684   13.5424   15.0957 C.ar      1 MOL     0.0496
      7 C          17.0379   14.3991   16.0869 C.ar      1 MOL     0.0138
      8 C          18.3930   14.4718   16.4059 C.ar      1 MOL     0.0008
      9 C          19.3153   13.6865   15.7206 C.ar      1 MOL     0.0007
     10 C          18.8730   12.8305   14.7160 C.ar      1 MOL     0.0103
     11 C          17.5106   12.7492   14.3859 C.ar      1 MOL     0.0106
     12 C          17.0614   11.9147   13.3590 C.ar      1 MOL     0.0736
     13 C          18.0269   11.1400   12.5419 C.3       1 MOL     0.0925
     14 C          18.3659   11.8587   11.2818 C.ar      1 MOL    -0.0406
     15 C          17.3875   12.3205   10.3899 C.ar      1 MOL     0.0196
     16 C          17.7526   13.0105    9.2288 C.ar      1 MOL     0.0723
     17 C          16.7448   13.5464    8.2907 C.2       1 MOL     0.2495
     18 C          15.2494   13.2466    6.4028 C.3       1 MOL     0.1268
     19 C          13.7537   12.8226    6.4845 C.3       1 MOL     0.1265
     20 C          14.4047   10.8676    7.8568 C.3       1 MOL     0.1265
     21 C          15.9026   11.2741    7.7341 C.3       1 MOL     0.1268
     22 C          12.8214   10.5519    6.0489 C.2       1 MOL     0.2187
     23 C          12.3200   11.0202    4.7396 C.3       1 MOL     0.0752
     24 C          11.0489   11.7790    4.8178 C.3       1 MOL     0.0134
     25 C          11.0550   10.3610    4.3252 C.3       1 MOL     0.0134
     26 C          19.1082   13.2209    8.9562 C.ar      1 MOL     0.1355
     27 C          20.0910   12.7536    9.8271 C.ar      1 MOL     0.0392
     28 C          19.7201   12.0742   10.9890 C.ar      1 MOL     0.0066
     29 O          14.2972   14.0942   15.3316 O.2       1 MOL    -0.2658
     30 O          12.6060    9.3855    6.4088 O.2       1 MOL    -0.2753
     31 O          16.6922   14.7787    8.1908 O.2       1 MOL    -0.2699
     32 F          19.4846   13.8842    7.8357 F         1 MOL    -0.2047
     33 H          16.3346   15.0164   16.6261 H         1 MOL     0.0625
     34 H          18.7291   15.1383   17.1868 H         1 MOL     0.0618
     35 H          20.3650   13.7410   15.9653 H         1 MOL     0.0618
     36 H          19.5890   12.2232   14.1793 H         1 MOL     0.0624
     37 H          17.5779   10.1648   12.2845 H         1 MOL     0.0377
     38 H          18.9538   10.9979   13.1267 H         1 MOL     0.0377
     39 H          16.3424   12.1492   10.6053 H         1 MOL     0.0629
     40 H          15.6952   12.8314    5.4664 H         1 MOL     0.0480
     41 H          15.3580   14.3532    6.3743 H         1 MOL     0.0480
     42 H          13.1914   13.0847    5.5627 H         1 MOL     0.0480
     43 H          13.2851   13.3735    7.3390 H         1 MOL     0.0480
     44 H          14.2756    9.7654    7.9142 H         1 MOL     0.0480
     45 H          14.0044   11.3073    8.8055 H         1 MOL     0.0480
     46 H          16.3548   10.7679    6.8480 H         1 MOL     0.0480
     47 H          16.4856   10.9814    8.6348 H         1 MOL     0.0480
     48 H          13.0770   11.2618    4.0340 H         1 MOL     0.0394
     49 H          10.9127   12.5506    4.0677 H         1 MOL     0.0273
     50 H          10.6297   11.9539    5.7990 H         1 MOL     0.0273
     51 H          10.9395   10.1965    3.2609 H         1 MOL     0.0273
     52 H          10.6478    9.6141    4.9949 H         1 MOL     0.0273
     53 H          21.1341   12.9191    9.6036 H         1 MOL     0.0646
     54 H          20.4815   11.7154   11.6662 H         1 MOL     0.0621
     55 H          13.8644   12.5869   13.4418 H         1 MOL     0.1921
@<TRIPOS>BOND
     1    1   17 am
     2    1   18 1 
     3    1   21 1 
     4    2   19 1 
     5    2   20 1 
     6    2   22 am
     7    3    4 ar
     8    3   12 ar
     9    4    5 ar
    10    4   55 1 
    11    5    6 ar
    12    5   29 2 
    13    6    7 ar
    14    6   11 ar
    15    7    8 ar
    16    7   33 1 
    17    8    9 ar
    18    8   34 1 
    19    9   10 ar
    20    9   35 1 
    21   10   11 ar
    22   10   36 1 
    23   11   12 ar
    24   12   13 1 
    25   13   14 1 
    26   13   37 1 
    27   13   38 1 
    28   14   15 ar
    29   14   28 ar
    30   15   16 ar
    31   15   39 1 
    32   16   17 1 
    33   16   26 ar
    34   17   31 2 
    35   18   19 1 
    36   18   40 1 
    37   18   41 1 
    38   19   42 1 
    39   19   43 1 
    40   20   21 1 
    41   20   44 1 
    42   20   45 1 
    43   21   46 1 
    44   21   47 1 
    45   22   23 1 
    46   22   30 2 
    47   23   24 1 
    48   23   25 1 
    49   23   48 1 
    50   24   25 1 
    51   24   49 1 
    52   24   50 1 
    53   25   51 1 
    54   25   52 1 
    55   26   27 ar
    56   26   32 1 
    57   27   28 ar
    58   27   53 1 
    59   28   54 1 
@<TRIPOS>SUBSTRUCTURE
1 MOL         1
@<TRIPOS>MOLECULE
query molecule
   55    59     1     0     0
SMALL
NO_CHARGE

@<TRIPOS>ATOM
      1 N         -15.5577   -6.3563   10.2294 N.am      1 MOL    -0.2945
      2 N         -16.9713   -4.1780    9.0619 N.am      1 MOL    -0.2983
      3 N         -11.3205  -10.3836   13.7066 N.ar      1 MOL    -0.1750
      4 N         -10.0112  -10.3779   13.4785 N.ar      1 MOL    -0.2425
      5 C          -9.1532   -9.5714   14.2574 C.ar      1 MOL     0.2725
      6 C          -9.7290   -8.7494   15.2527 C.ar      1 MOL     0.0496
      7 C          -8.9400   -7.8812   16.0045 C.ar      1 MOL     0.0138
      8 C          -9.4964   -7.1048   17.0187 C.ar      1 MOL     0.0008
      9 C         -10.8640   -7.1859   17.2807 C.ar      1 MOL     0.0007
     10 C         -11.6724   -8.0295   16.5170 C.ar      1 MOL     0.0103
     11 C         -11.1308   -8.8167   15.4883 C.ar      1 MOL     0.0106
     12 C         -11.9233   -9.6646   14.6971 C.ar      1 MOL     0.0736
     13 C         -13.3911   -9.8219   14.9043 C.3       1 MOL     0.0925
     14 C         -14.1908   -8.7481   14.2720 C.ar      1 MOL    -0.0406
     15 C         -14.2183   -8.5608   12.8900 C.ar      1 MOL     0.0196
     16 C         -14.9876   -7.5327   12.3014 C.ar      1 MOL     0.0723
     17 C         -14.9090   -7.3926   10.8236 C.2       1 MOL     0.2495
     18 C         -16.2157   -6.5740    8.9431 C.3       1 MOL     0.1268
     19 C         -17.3765   -5.5476    8.7709 C.3       1 MOL     0.1265
     20 C         -16.0555   -3.9379   10.1744 C.3       1 MOL     0.1265
     21 C         -14.9685   -5.0232   10.3476 C.3       1 MOL     0.1268
     22 C         -17.4950   -3.0743    8.4536 C.2       1 MOL     0.2187
     23 C         -18.6633   -3.2586    7.5601 C.3       1 MOL     0.0752
     24 C         -18.2850   -3.6091    6.1658 C.3       1 MOL     0.0134
     25 C         -18.7326   -2.2158    6.4987 C.3       1 MOL     0.0134
     26 C         -15.7549   -6.7267   13.1397 C.ar      1 MOL     0.1355
     27 C         -15.7343   -6.9111   14.5244 C.ar      1 MOL     0.0392
     28 C         -14.9516   -7.9100   15.0932 C.ar      1 MOL     0.0066
     29 O          -7.9322   -9.6444   14.0504 O.2       1 MOL    -0.2658
     30 O         -17.0960   -1.9249    8.6929 O.2       1 MOL    -0.2753
     31 O         -14.3240   -8.2662   10.1661 O.2       1 MOL    -0.2699
     32 F         -16.5494   -5.7405   12.6602 F         1 MOL    -0.2047
     33 H          -7.8798   -7.8110   15.8029 H         1 MOL     0.0625
     34 H          -8.8723   -6.4425   17.6012 H         1 MOL     0.0618
     35 H         -11.2938   -6.6017   18.0779 H         1 MOL     0.0618
     36 H         -12.7337   -8.0724   16.7221 H         1 MOL     0.0624
     37 H         -13.5912   -9.8071   15.9934 H         1 MOL     0.0377
     38 H         -13.7044  -10.7915   14.4744 H         1 MOL     0.0377
     39 H         -13.6300   -9.2127   12.2571 H         1 MOL     0.0629
     40 H         -16.5955   -7.6192    8.8966 H         1 MOL     0.0480
     41 H         -15.4553   -6.4442    8.1370 H         1 MOL     0.0480
     42 H         -18.1806   -5.8280    9.4966 H         1 MOL     0.0480
     43 H         -17.8128   -5.5967    7.7474 H         1 MOL     0.0480
     44 H         -16.6684   -3.9496   11.1128 H         1 MOL     0.0480
     45 H         -15.6145   -2.9213   10.0798 H         1 MOL     0.0480
     46 H         -14.4626   -4.9287   11.3343 H         1 MOL     0.0480
     47 H         -14.1924   -4.9147    9.5533 H         1 MOL     0.0480
     48 H         -19.5351   -3.6501    8.0203 H         1 MOL     0.0394
     49 H         -18.9892   -4.2175    5.6092 H         1 MOL     0.0273
     50 H         -17.2329   -3.7433    5.9530 H         1 MOL     0.0273
     51 H         -19.7251   -1.9190    6.1829 H         1 MOL     0.0273
     52 H         -17.9614   -1.4544    6.5150 H         1 MOL     0.0273
     53 H         -16.3274   -6.2682   15.1597 H         1 MOL     0.0646
     54 H         -14.9363   -8.0383   16.1648 H         1 MOL     0.0621
     55 H          -9.5946  -10.9219   12.7420 H         1 MOL     0.1921
@<TRIPOS>BOND
     1    1   17 am
     2    1   18 1 
     3    1   21 1 
     4    2   19 1 
     5    2   20 1 
     6    2   22 am
     7    3    4 ar
     8    3   12 ar
     9    4    5 ar
    10    4   55 1 
    11    5    6 ar
    12    5   29 2 
    13    6    7 ar
    14    6   11 ar
    15    7    8 ar
    16    7   33 1 
    17    8    9 ar
    18    8   34 1 
    19    9   10 ar
    20    9   35 1 
    21   10   11 ar
    22   10   36 1 
    23   11   12 ar
    24   12   13 1 
    25   13   14 1 
    26   13   37 1 
    27   13   38 1 
    28   14   15 ar
    29   14   28 ar
    30   15   16 ar
    31   15   39 1 
    32   16   17 1 
    33   16   26 ar
    34   17   31 2 
    35   18   19 1 
    36   18   40 1 
    37   18   41 1 
    38   19   42 1 
    39   19   43 1 
    40   20   21 1 
    41   20   44 1 
    42   20   45 1 
    43   21   46 1 
    44   21   47 1 
    45   22   23 1 
    46   22   30 2 
    47   23   24 1 
    48   23   25 1 
    49   23   48 1 
    50   24   25 1 
    51   24   49 1 
    52   24   50 1 
    53   25   51 1 
    54   25   52 1 
    55   26   27 ar
    56   26   32 1 
    57   27   28 ar
    58   27   53 1 
    59   28   54 1 
@<TRIPOS>SUBSTRUCTURE
1 MOL         1
@<TRIPOS>MOLECULE
query molecule
   55    59     1     0     0
SMALL
NO_CHARGE

@<TRIPOS>ATOM
      1 N          17.5070   13.2065   -2.3691 N.am      1 MOL    -0.2945
      2 N          17.1756   13.7646    0.4018 N.am      1 MOL    -0.2983
      3 N          15.4857    6.1127   -4.9539 N.ar      1 MOL    -0.1750
      4 N          15.1435    5.0415   -5.6650 N.ar      1 MOL    -0.2425
      5 C          14.3231    5.1118   -6.8006 C.ar      1 MOL     0.2725
      6 C          13.9093    6.3877   -7.2117 C.ar      1 MOL     0.0496
      7 C          13.1478    6.5467   -8.3688 C.ar      1 MOL     0.0138
      8 C          12.7495    7.8199   -8.7743 C.ar      1 MOL     0.0008
      9 C          13.1191    8.9410   -8.0297 C.ar      1 MOL     0.0007
     10 C          13.8809    8.7930   -6.8705 C.ar      1 MOL     0.0103
     11 C          14.2825    7.5227   -6.4293 C.ar      1 MOL     0.0106
     12 C          15.0139    7.3594   -5.2382 C.ar      1 MOL     0.0736
     13 C          15.2330    8.4707   -4.2749 C.3       1 MOL     0.0925
     14 C          16.4662    9.2567   -4.3771 C.ar      1 MOL    -0.0406
     15 C          16.3978   10.6061   -3.9765 C.ar      1 MOL     0.0196
     16 C          17.5239   11.4347   -4.0583 C.ar      1 MOL     0.0723
     17 C          17.4208   12.8600   -3.6749 C.2       1 MOL     0.2495
     18 C          17.1181   14.5576   -1.9612 C.3       1 MOL     0.1268
     19 C          16.4035   14.5253   -0.5736 C.3       1 MOL     0.1265
     20 C          17.6654   12.4475   -0.0092 C.3       1 MOL     0.1265
     21 C          18.3399   12.4875   -1.4122 C.3       1 MOL     0.1268
     22 C          17.4082   14.1952    1.6739 C.2       1 MOL     0.2187
     23 C          16.6489   15.3703    2.1723 C.3       1 MOL     0.0752
     24 C          16.3428   15.3300    3.6274 C.3       1 MOL     0.0134
     25 C          15.2937   14.9285    2.6330 C.3       1 MOL     0.0134
     26 C          18.7244   10.9087   -4.5281 C.ar      1 MOL     0.1355
     27 C          18.8018    9.5750   -4.9145 C.ar      1 MOL     0.0392
     28 C          17.6760    8.7461   -4.8360 C.ar      1 MOL     0.0066
     29 O          14.0026    4.0497   -7.3570 O.2       1 MOL    -0.2658
     30 O          18.2360   13.6500    2.4196 O.2       1 MOL    -0.2753
     31 O          17.1571   13.6563   -4.5824 O.2       1 MOL    -0.2699
     32 F          19.8262   11.6914   -4.6110 F         1 MOL    -0.2047
     33 H          12.8659    5.6820   -8.9523 H         1 MOL     0.0625
     34 H          12.1537    7.9406   -9.6672 H         1 MOL     0.0618
     35 H          12.8140    9.9267   -8.3495 H         1 MOL     0.0618
     36 H          14.1606    9.6686   -6.3004 H         1 MOL     0.0624
     37 H          15.1886    8.0450   -3.2497 H         1 MOL     0.0377
     38 H          14.3864    9.1823   -4.4021 H         1 MOL     0.0377
     39 H          15.4648   11.0120   -3.6105 H         1 MOL     0.0629
     40 H          16.4679   15.0097   -2.7428 H         1 MOL     0.0480
     41 H          18.0443   15.1793   -1.8861 H         1 MOL     0.0480
     42 H          15.4061   14.0376   -0.6880 H         1 MOL     0.0480
     43 H          16.2387   15.5573   -0.1867 H         1 MOL     0.0480
     44 H          16.7839   11.7617   -0.0660 H         1 MOL     0.0480
     45 H          18.3576   12.0520    0.7663 H         1 MOL     0.0480
     46 H          18.5509   11.4662   -1.7973 H         1 MOL     0.0480
     47 H          19.3136   13.0314   -1.3290 H         1 MOL     0.0480
     48 H          16.7744   16.2741    1.6364 H         1 MOL     0.0394
     49 H          16.1821   16.2818    4.1220 H         1 MOL     0.0273
     50 H          16.8059   14.5416    4.2068 H         1 MOL     0.0273
     51 H          14.4677   15.6133    2.4911 H         1 MOL     0.0273
     52 H          15.0748   13.8680    2.5805 H         1 MOL     0.0273
     53 H          19.7390    9.1745   -5.2761 H         1 MOL     0.0646
     54 H          17.7462    7.7108   -5.1356 H         1 MOL     0.0621
     55 H          15.4563    4.1123   -5.4359 H         1 MOL     0.1921
@<TRIPOS>BOND
     1    1   17 am
     2    1   18 1 
     3    1   21 1 
     4    2   19 1 
     5    2   20 1 
     6    2   22 am
     7    3    4 ar
     8    3   12 ar
     9    4    5 ar
    10    4   55 1 
    11    5    6 ar
    12    5   29 2 
    13    6    7 ar
    14    6   11 ar
    15    7    8 ar
    16    7   33 1 
    17    8    9 ar
    18    8   34 1 
    19    9   10 ar
    20    9   35 1 
    21   10   11 ar
    22   10   36 1 
    23   11   12 ar
    24   12   13 1 
    25   13   14 1 
    26   13   37 1 
    27   13   38 1 
    28   14   15 ar
    29   14   28 ar
    30   15   16 ar
    31   15   39 1 
    32   16   17 1 
    33   16   26 ar
    34   17   31 2 
    35   18   19 1 
    36   18   40 1 
    37   18   41 1 
    38   19   42 1 
    39   19   43 1 
    40   20   21 1 
    41   20   44 1 
    42   20   45 1 
    43   21   46 1 
    44   21   47 1 
    45   22   23 1 
    46   22   30 2 
    47   23   24 1 
    48   23   25 1 
    49   23   48 1 
    50   24   25 1 
    51   24   49 1 
    52   24   50 1 
    53   25   51 1 
    54   25   52 1 
    55   26   27 ar
    56   26   32 1 
    57   27   28 ar
    58   27   53 1 
    59   28   54 1 
@<TRIPOS>SUBSTRUCTURE
1 MOL         1
@<TRIPOS>MOLECULE
query molecule
   55    59     1     0     0
SMALL
NO_CHARGE

@<TRIPOS>ATOM
      1 N          21.1725    4.6573   37.9396 N.am      1 MOL    -0.2945
      2 N          22.6364    7.0856   37.8097 N.am      1 MOL    -0.2983
      3 N          22.2767   -2.8186   38.6235 N.ar      1 MOL    -0.1750
      4 N          22.3850   -4.0782   38.2445 N.ar      1 MOL    -0.2425
      5 C          23.6413   -4.6292   37.9671 C.ar      1 MOL     0.2725
      6 C          24.7983   -3.8620   38.1595 C.ar      1 MOL     0.0496
      7 C          26.0564   -4.4137   37.9079 C.ar      1 MOL     0.0138
      8 C          27.2065   -3.6648   38.1434 C.ar      1 MOL     0.0008
      9 C          27.0928   -2.3541   38.6114 C.ar      1 MOL     0.0007
     10 C          25.8307   -1.7849   38.8196 C.ar      1 MOL     0.0103
     11 C          24.6628   -2.5279   38.6049 C.ar      1 MOL     0.0106
     12 C          23.3694   -2.0180   38.7942 C.ar      1 MOL     0.0736
     13 C          23.1319   -0.6106   39.1681 C.3       1 MOL     0.0925
     14 C          22.4570    0.1694   38.1103 C.ar      1 MOL    -0.0406
     15 C          21.8856    1.3635   38.5518 C.ar      1 MOL     0.0196
     16 C          21.2154    2.2174   37.6718 C.ar      1 MOL     0.0723
     17 C          20.6930    3.4436   38.2882 C.2       1 MOL     0.2495
     18 C          20.6807    5.8182   38.6793 C.3       1 MOL     0.1268
     19 C          21.7886    6.8672   38.9665 C.3       1 MOL     0.1265
     20 C          23.0583    5.9474   36.9962 C.3       1 MOL     0.1265
     21 C          21.9141    4.9394   36.7274 C.3       1 MOL     0.1268
     22 C          23.1402    8.3057   37.4741 C.2       1 MOL     0.2187
     23 C          23.1270    9.3761   38.4954 C.3       1 MOL     0.0752
     24 C          22.9590   10.7344   37.9407 C.3       1 MOL     0.0134
     25 C          24.3235   10.2556   38.3452 C.3       1 MOL     0.0134
     26 C          21.0875    1.8490   36.3432 C.ar      1 MOL     0.1355
     27 C          21.6553    0.6555   35.8767 C.ar      1 MOL     0.0392
     28 C          22.3505   -0.1784   36.7636 C.ar      1 MOL     0.0066
     29 O          23.6636   -5.7857   37.5418 O.2       1 MOL    -0.2658
     30 O          23.6315    8.5132   36.3565 O.2       1 MOL    -0.2753
     31 O          19.8994    3.2654   39.2222 O.2       1 MOL    -0.2699
     32 F          20.4100    2.6442   35.4860 F         1 MOL    -0.2047
     33 H          26.1323   -5.4231   37.5325 H         1 MOL     0.0625
     34 H          28.1771   -4.1025   37.9644 H         1 MOL     0.0618
     35 H          27.9866   -1.7794   38.8105 H         1 MOL     0.0618
     36 H          25.7552   -0.7588   39.1505 H         1 MOL     0.0624
     37 H          24.1011   -0.1399   39.4036 H         1 MOL     0.0377
     38 H          22.4740   -0.6077   40.0611 H         1 MOL     0.0377
     39 H          21.9658    1.6338   39.5953 H         1 MOL     0.0629
     40 H          20.1976    5.4769   39.6245 H         1 MOL     0.0480
     41 H          19.8866    6.2982   38.0560 H         1 MOL     0.0480
     42 H          22.4232    6.5430   39.8233 H         1 MOL     0.0480
     43 H          21.3107    7.8382   39.2504 H         1 MOL     0.0480
     44 H          23.8709    5.4174   37.5541 H         1 MOL     0.0480
     45 H          23.4989    6.3183   36.0416 H         1 MOL     0.0480
     46 H          22.3347    3.9876   36.3254 H         1 MOL     0.0480
     47 H          21.2067    5.3516   35.9712 H         1 MOL     0.0480
     48 H          22.7739    9.1152   39.4602 H         1 MOL     0.0394
     49 H          22.5318   11.4969   38.5849 H         1 MOL     0.0273
     50 H          22.7681   10.8289   36.8806 H         1 MOL     0.0273
     51 H          24.7613   10.6709   39.2422 H         1 MOL     0.0273
     52 H          24.9943   10.0311   37.5218 H         1 MOL     0.0273
     53 H          21.5676    0.3781   34.8364 H         1 MOL     0.0646
     54 H          22.7995   -1.0941   36.4042 H         1 MOL     0.0621
     55 H          21.5961   -4.6541   37.9983 H         1 MOL     0.1921
@<TRIPOS>BOND
     1    1   17 am
     2    1   18 1 
     3    1   21 1 
     4    2   19 1 
     5    2   20 1 
     6    2   22 am
     7    3    4 ar
     8    3   12 ar
     9    4    5 ar
    10    4   55 1 
    11    5    6 ar
    12    5   29 2 
    13    6    7 ar
    14    6   11 ar
    15    7    8 ar
    16    7   33 1 
    17    8    9 ar
    18    8   34 1 
    19    9   10 ar
    20    9   35 1 
    21   10   11 ar
    22   10   36 1 
    23   11   12 ar
    24   12   13 1 
    25   13   14 1 
    26   13   37 1 
    27   13   38 1 
    28   14   15 ar
    29   14   28 ar
    30   15   16 ar
    31   15   39 1 
    32   16   17 1 
    33   16   26 ar
    34   17   31 2 
    35   18   19 1 
    36   18   40 1 
    37   18   41 1 
    38   19   42 1 
    39   19   43 1 
    40   20   21 1 
    41   20   44 1 
    42   20   45 1 
    43   21   46 1 
    44   21   47 1 
    45   22   23 1 
    46   22   30 2 
    47   23   24 1 
    48   23   25 1 
    49   23   48 1 
    50   24   25 1 
    51   24   49 1 
    52   24   50 1 
    53   25   51 1 
    54   25   52 1 
    55   26   27 ar
    56   26   32 1 
    57   27   28 ar
    58   27   53 1 
    59   28   54 1 
@<TRIPOS>SUBSTRUCTURE
1 MOL         1
@<TRIPOS>MOLECULE
query molecule
   55    59     1     0     0
SMALL
NO_CHARGE

@<TRIPOS>ATOM
      1 N          -1.1121   13.8943   32.7222 N.am      1 MOL    -0.2945
      2 N           1.6309   14.6914   32.9806 N.am      1 MOL    -0.2983
      3 N          -1.9148   10.9435   37.5726 N.ar      1 MOL    -0.1750
      4 N          -1.1414   10.9213   38.6524 N.ar      1 MOL    -0.2425
      5 C          -1.4282   10.0573   39.7257 C.ar      1 MOL     0.2725
      6 C          -2.5598    9.2207   39.6303 C.ar      1 MOL     0.0496
      7 C          -2.8858    8.3412   40.6660 C.ar      1 MOL     0.0138
      8 C          -4.0117    7.5211   40.5660 C.ar      1 MOL     0.0008
      9 C          -4.8181    7.5753   39.4247 C.ar      1 MOL     0.0007
     10 C          -4.4973    8.4494   38.3848 C.ar      1 MOL     0.0103
     11 C          -3.3711    9.2832   38.4597 C.ar      1 MOL     0.0106
     12 C          -3.0222   10.1680   37.4218 C.ar      1 MOL     0.0736
     13 C          -3.8269   10.2468   36.1747 C.3       1 MOL     0.0925
     14 C          -3.8677   11.5844   35.5519 C.ar      1 MOL    -0.0406
     15 C          -3.0696   11.8671   34.4350 C.ar      1 MOL     0.0196
     16 C          -3.1560   13.1219   33.8127 C.ar      1 MOL     0.0723
     17 C          -2.3656   13.3938   32.6003 C.2       1 MOL     0.2495
     18 C          -0.2884   13.9719   31.5179 C.3       1 MOL     0.1268
     19 C           1.2137   13.8414   31.8788 C.3       1 MOL     0.1265
     20 C           0.7330   14.8396   34.1237 C.3       1 MOL     0.1265
     21 C          -0.7724   14.8587   33.7611 C.3       1 MOL     0.1268
     22 C           2.8815   15.2322   33.0997 C.2       1 MOL     0.2187
     23 C           3.9084   14.8804   32.0956 C.3       1 MOL     0.0752
     24 C           5.0158   15.8773   32.0280 C.3       1 MOL     0.0134
     25 C           3.9857   15.8095   30.9429 C.3       1 MOL     0.0134
     26 C          -4.0272   14.0847   34.3199 C.ar      1 MOL     0.1355
     27 C          -4.8121   13.8103   35.4387 C.ar      1 MOL     0.0392
     28 C          -4.7352   12.5591   36.0551 C.ar      1 MOL     0.0066
     29 O          -0.6585   10.0749   40.7031 O.2       1 MOL    -0.2658
     30 O           3.2292   15.9024   34.0818 O.2       1 MOL    -0.2753
     31 O          -2.8815   13.0693   31.5271 O.2       1 MOL    -0.2699
     32 F          -4.1201   15.2992   33.7264 F         1 MOL    -0.2047
     33 H          -2.2638    8.3001   41.5490 H         1 MOL     0.0625
     34 H          -4.2565    6.8456   41.3760 H         1 MOL     0.0618
     35 H          -5.6872    6.9358   39.3570 H         1 MOL     0.0618
     36 H          -5.1287    8.4792   37.5098 H         1 MOL     0.0624
     37 H          -4.8668    9.9490   36.4204 H         1 MOL     0.0377
     38 H          -3.4025    9.5347   35.4390 H         1 MOL     0.0377
     39 H          -2.3963   11.1157   34.0499 H         1 MOL     0.0629
     40 H          -0.4949   14.9536   31.0257 H         1 MOL     0.0480
     41 H          -0.5974   13.1627   30.8143 H         1 MOL     0.0480
     42 H           1.8439   14.0745   30.9893 H         1 MOL     0.0480
     43 H           1.4140   12.7804   32.1703 H         1 MOL     0.0480
     44 H           1.0390   15.7316   34.7172 H         1 MOL     0.0480
     45 H           0.8858   13.9353   34.7705 H         1 MOL     0.0480
     46 H          -1.0508   15.8700   33.3815 H         1 MOL     0.0480
     47 H          -1.3862   14.6433   34.6681 H         1 MOL     0.0480
     48 H           4.1063   13.8411   32.0164 H         1 MOL     0.0394
     49 H           5.9995   15.4987   31.7680 H         1 MOL     0.0273
     50 H           4.9584   16.7399   32.6826 H         1 MOL     0.0273
     51 H           4.2639   15.3481   30.0026 H         1 MOL     0.0273
     52 H           3.2291   16.5814   30.9135 H         1 MOL     0.0273
     53 H          -5.4855   14.5597   35.8262 H         1 MOL     0.0646
     54 H          -5.3517   12.3390   36.9136 H         1 MOL     0.0621
     55 H          -0.3738   11.5569   38.7721 H         1 MOL     0.1921
@<TRIPOS>BOND
     1    1   17 am
     2    1   18 1 
     3    1   21 1 
     4    2   19 1 
     5    2   20 1 
     6    2   22 am
     7    3    4 ar
     8    3   12 ar
     9    4    5 ar
    10    4   55 1 
    11    5    6 ar
    12    5   29 2 
    13    6    7 ar
    14    6   11 ar
    15    7    8 ar
    16    7   33 1 
    17    8    9 ar
    18    8   34 1 
    19    9   10 ar
    20    9   35 1 
    21   10   11 ar
    22   10   36 1 
    23   11   12 ar
    24   12   13 1 
    25   13   14 1 
    26   13   37 1 
    27   13   38 1 
    28   14   15 ar
    29   14   28 ar
    30   15   16 ar
    31   15   39 1 
    32   16   17 1 
    33   16   26 ar
    34   17   31 2 
    35   18   19 1 
    36   18   40 1 
    37   18   41 1 
    38   19   42 1 
    39   19   43 1 
    40   20   21 1 
    41   20   44 1 
    42   20   45 1 
    43   21   46 1 
    44   21   47 1 
    45   22   23 1 
    46   22   30 2 
    47   23   24 1 
    48   23   25 1 
    49   23   48 1 
    50   24   25 1 
    51   24   49 1 
    52   24   50 1 
    53   25   51 1 
    54   25   52 1 
    55   26   27 ar
    56   26   32 1 
    57   27   28 ar
    58   27   53 1 
    59   28   54 1 
@<TRIPOS>SUBSTRUCTURE
1 MOL         1
@<TRIPOS>MOLECULE
query molecule
   55    59     1     0     0
SMALL
NO_CHARGE

@<TRIPOS>ATOM
      1 N         -15.2844   -5.7239   20.3021 N.am      1 MOL    -0.2945
      2 N         -15.6443   -7.2852   17.9617 N.am      1 MOL    -0.2983
      3 N         -10.4878   -3.1632   19.1286 N.ar      1 MOL    -0.1750
      4 N          -9.6083   -3.7736   18.3519 N.ar      1 MOL    -0.2425
      5 C          -8.4298   -4.3286   18.8874 C.ar      1 MOL     0.2725
      6 C          -8.2371   -4.2712   20.2799 C.ar      1 MOL     0.0496
      7 C          -7.1367   -4.8805   20.8859 C.ar      1 MOL     0.0138
      8 C          -6.9840   -4.8264   22.2677 C.ar      1 MOL     0.0008
      9 C          -7.9173   -4.1521   23.0555 C.ar      1 MOL     0.0007
     10 C          -9.0130   -3.5329   22.4631 C.ar      1 MOL     0.0103
     11 C          -9.2012   -3.5858   21.0735 C.ar      1 MOL     0.0106
     12 C         -10.3169   -2.9793   20.4679 C.ar      1 MOL     0.0736
     13 C         -11.2559   -2.1475   21.2763 C.3       1 MOL     0.0925
     14 C         -12.6672   -2.1885   20.8475 C.ar      1 MOL    -0.0406
     15 C         -13.4315   -3.3373   21.0491 C.ar      1 MOL     0.0196
     16 C         -14.7843   -3.3593   20.6930 C.ar      1 MOL     0.0723
     17 C         -15.5991   -4.5692   20.9257 C.2       1 MOL     0.2495
     18 C         -16.2152   -6.8469   20.3683 C.3       1 MOL     0.1268
     19 C         -16.7201   -7.2138   18.9419 C.3       1 MOL     0.1265
     20 C         -14.6019   -6.2564   18.0014 C.3       1 MOL     0.1265
     21 C         -14.1359   -5.9276   19.4392 C.3       1 MOL     0.1268
     22 C         -15.5830   -8.1977   16.9551 C.2       1 MOL     0.2187
     23 C         -16.7082   -9.1445   16.7598 C.3       1 MOL     0.0752
     24 C         -17.1024   -9.1776   15.3166 C.3       1 MOL     0.0134
     25 C         -17.9789   -8.4988   16.3237 C.3       1 MOL     0.0134
     26 C         -15.3692   -2.2228   20.1293 C.ar      1 MOL     0.1355
     27 C         -14.6105   -1.0745   19.9063 C.ar      1 MOL     0.0392
     28 C         -13.2608   -1.0609   20.2679 C.ar      1 MOL     0.0066
     29 O          -7.6189   -4.8217   18.0911 O.2       1 MOL    -0.2658
     30 O         -14.5959   -8.2929   16.2047 O.2       1 MOL    -0.2753
     31 O         -16.5858   -4.4380   21.6598 O.2       1 MOL    -0.2699
     32 F         -16.6811   -2.2261   19.7937 F         1 MOL    -0.2047
     33 H          -6.4038   -5.4010   20.2866 H         1 MOL     0.0625
     34 H          -6.1351   -5.3036   22.7374 H         1 MOL     0.0618
     35 H          -7.7903   -4.1098   24.1277 H         1 MOL     0.0618
     36 H          -9.7318   -3.0122   23.0813 H         1 MOL     0.0624
     37 H         -10.9097   -1.0956   21.2212 H         1 MOL     0.0377
     38 H         -11.2047   -2.5023   22.3252 H         1 MOL     0.0377
     39 H         -12.9753   -4.2136   21.4875 H         1 MOL     0.0629
     40 H         -17.0643   -6.5835   21.0383 H         1 MOL     0.0480
     41 H         -15.6782   -7.7165   20.8163 H         1 MOL     0.0480
     42 H         -17.4300   -6.4169   18.6076 H         1 MOL     0.0480
     43 H         -17.2756   -8.1792   18.9496 H         1 MOL     0.0480
     44 H         -15.0446   -5.3194   17.5761 H         1 MOL     0.0480
     45 H         -13.7582   -6.5565   17.3440 H         1 MOL     0.0480
     46 H         -13.5023   -5.0120   19.4498 H         1 MOL     0.0480
     47 H         -13.5329   -6.7713   19.8493 H         1 MOL     0.0480
     48 H         -16.6826  -10.0282   17.3419 H         1 MOL     0.0394
     49 H         -17.4470  -10.1255   14.9239 H         1 MOL     0.0273
     50 H         -16.5544   -8.5276   14.6447 H         1 MOL     0.0273
     51 H         -18.8995   -9.0142   16.5747 H         1 MOL     0.0273
     52 H         -18.0021   -7.4169   16.3116 H         1 MOL     0.0273
     53 H         -15.0629   -0.2014   19.4624 H         1 MOL     0.0646
     54 H         -12.6702   -0.1707   20.1027 H         1 MOL     0.0621
     55 H          -9.7388   -3.8936   17.3603 H         1 MOL     0.1921
@<TRIPOS>BOND
     1    1   17 am
     2    1   18 1 
     3    1   21 1 
     4    2   19 1 
     5    2   20 1 
     6    2   22 am
     7    3    4 ar
     8    3   12 ar
     9    4    5 ar
    10    4   55 1 
    11    5    6 ar
    12    5   29 2 
    13    6    7 ar
    14    6   11 ar
    15    7    8 ar
    16    7   33 1 
    17    8    9 ar
    18    8   34 1 
    19    9   10 ar
    20    9   35 1 
    21   10   11 ar
    22   10   36 1 
    23   11   12 ar
    24   12   13 1 
    25   13   14 1 
    26   13   37 1 
    27   13   38 1 
    28   14   15 ar
    29   14   28 ar
    30   15   16 ar
    31   15   39 1 
    32   16   17 1 
    33   16   26 ar
    34   17   31 2 
    35   18   19 1 
    36   18   40 1 
    37   18   41 1 
    38   19   42 1 
    39   19   43 1 
    40   20   21 1 
    41   20   44 1 
    42   20   45 1 
    43   21   46 1 
    44   21   47 1 
    45   22   23 1 
    46   22   30 2 
    47   23   24 1 
    48   23   25 1 
    49   23   48 1 
    50   24   25 1 
    51   24   49 1 
    52   24   50 1 
    53   25   51 1 
    54   25   52 1 
    55   26   27 ar
    56   26   32 1 
    57   27   28 ar
    58   27   53 1 
    59   28   54 1 
@<TRIPOS>SUBSTRUCTURE
1 MOL         1
@<TRIPOS>MOLECULE
query molecule
   55    59     1     0     0
SMALL
NO_CHARGE

@<TRIPOS>ATOM
      1 N          -5.3934   -5.9801   -0.7719 N.am      1 MOL    -0.2945
      2 N          -7.1133   -5.0959   -2.8776 N.am      1 MOL    -0.2983
      3 N           0.5112   -6.2205    0.2452 N.ar      1 MOL    -0.1750
      4 N           1.0233   -7.3416   -0.2454 N.ar      1 MOL    -0.2425
      5 C           1.8760   -7.3002   -1.3699 C.ar      1 MOL     0.2725
      6 C           2.1971   -6.0398   -1.9214 C.ar      1 MOL     0.0496
      7 C           3.1247   -5.9230   -2.9626 C.ar      1 MOL     0.0138
      8 C           3.4593   -4.6670   -3.4703 C.ar      1 MOL     0.0008
      9 C           2.8515   -3.5203   -2.9583 C.ar      1 MOL     0.0007
     10 C           1.9153   -3.6248   -1.9283 C.ar      1 MOL     0.0103
     11 C           1.5818   -4.8734   -1.3799 C.ar      1 MOL     0.0106
     12 C           0.6742   -4.9892   -0.3124 C.ar      1 MOL     0.0736
     13 C          -0.0590   -3.8015    0.2274 C.3       1 MOL     0.0925
     14 C          -1.4041   -4.1130    0.7737 C.ar      1 MOL    -0.0406
     15 C          -2.2719   -4.9968    0.1284 C.ar      1 MOL     0.0196
     16 C          -3.5270   -5.3019    0.6678 C.ar      1 MOL     0.0723
     17 C          -4.3022   -6.3267   -0.0535 C.2       1 MOL     0.2495
     18 C          -6.0117   -6.9752   -1.6477 C.3       1 MOL     0.1268
     19 C          -6.3983   -6.3556   -3.0225 C.3       1 MOL     0.1265
     20 C          -6.6411   -4.1362   -1.8765 C.3       1 MOL     0.1265
     21 C          -6.1846   -4.7844   -0.5421 C.3       1 MOL     0.1268
     22 C          -8.1202   -4.6870   -3.7062 C.2       1 MOL     0.2187
     23 C          -8.3261   -5.4242   -4.9789 C.3       1 MOL     0.0752
     24 C          -9.6838   -5.2083   -5.5560 C.3       1 MOL     0.0134
     25 C          -9.3379   -6.5070   -4.8878 C.3       1 MOL     0.0134
     26 C          -3.9347   -4.6693    1.8345 C.ar      1 MOL     0.1355
     27 C          -3.0816   -3.7810    2.4974 C.ar      1 MOL     0.0392
     28 C          -1.8167   -3.5057    1.9686 C.ar      1 MOL     0.0066
     29 O           2.2961   -8.3827   -1.8137 O.2       1 MOL    -0.2658
     30 O          -8.7869   -3.6639   -3.4792 O.2       1 MOL    -0.2753
     31 O          -3.8200   -7.4687   -0.0410 O.2       1 MOL    -0.2699
     32 F          -5.1598   -4.9038    2.3594 F         1 MOL    -0.2047
     33 H           3.5944   -6.8081   -3.3661 H         1 MOL     0.0625
     34 H           4.1899   -4.5823   -4.2615 H         1 MOL     0.0618
     35 H           3.1054   -2.5504   -3.3600 H         1 MOL     0.0618
     36 H           1.4457   -2.7302   -1.5429 H         1 MOL     0.0624
     37 H          -0.1860   -3.0715   -0.5972 H         1 MOL     0.0377
     38 H           0.5511   -3.3549    1.0354 H         1 MOL     0.0377
     39 H          -1.9665   -5.4644   -0.7977 H         1 MOL     0.0629
     40 H          -6.9320   -7.3532   -1.1398 H         1 MOL     0.0480
     41 H          -5.3133   -7.8329   -1.7759 H         1 MOL     0.0480
     42 H          -7.0156   -7.0663   -3.6188 H         1 MOL     0.0480
     43 H          -5.4615   -6.1559   -3.5984 H         1 MOL     0.0480
     44 H          -7.4350   -3.3731   -1.7030 H         1 MOL     0.0480
     45 H          -5.7616   -3.6040   -2.3200 H         1 MOL     0.0480
     46 H          -7.0824   -5.0688    0.0574 H         1 MOL     0.0480
     47 H          -5.5897   -4.0568    0.0580 H         1 MOL     0.0480
     48 H          -7.4723   -5.5043   -5.6036 H         1 MOL     0.0394
     49 H          -9.7670   -5.2145   -6.6361 H         1 MOL     0.0273
     50 H         -10.3322   -4.5328   -5.0114 H         1 MOL     0.0273
     51 H          -9.2233   -7.3544   -5.5564 H         1 MOL     0.0273
     52 H          -9.7720   -6.6922   -3.9147 H         1 MOL     0.0273
     53 H          -3.3948   -3.3092    3.4171 H         1 MOL     0.0646
     54 H          -1.1539   -2.8236    2.4812 H         1 MOL     0.0621
     55 H           1.1093   -8.1657    0.3329 H         1 MOL     0.1921
@<TRIPOS>BOND
     1    1   17 am
     2    1   18 1 
     3    1   21 1 
     4    2   19 1 
     5    2   20 1 
     6    2   22 am
     7    3    4 ar
     8    3   12 ar
     9    4    5 ar
    10    4   55 1 
    11    5    6 ar
    12    5   29 2 
    13    6    7 ar
    14    6   11 ar
    15    7    8 ar
    16    7   33 1 
    17    8    9 ar
    18    8   34 1 
    19    9   10 ar
    20    9   35 1 
    21   10   11 ar
    22   10   36 1 
    23   11   12 ar
    24   12   13 1 
    25   13   14 1 
    26   13   37 1 
    27   13   38 1 
    28   14   15 ar
    29   14   28 ar
    30   15   16 ar
    31   15   39 1 
    32   16   17 1 
    33   16   26 ar
    34   17   31 2 
    35   18   19 1 
    36   18   40 1 
    37   18   41 1 
    38   19   42 1 
    39   19   43 1 
    40   20   21 1 
    41   20   44 1 
    42   20   45 1 
    43   21   46 1 
    44   21   47 1 
    45   22   23 1 
    46   22   30 2 
    47   23   24 1 
    48   23   25 1 
    49   23   48 1 
    50   24   25 1 
    51   24   49 1 
    52   24   50 1 
    53   25   51 1 
    54   25   52 1 
    55   26   27 ar
    56   26   32 1 
    57   27   28 ar
    58   27   53 1 
    59   28   54 1 
@<TRIPOS>SUBSTRUCTURE
1 MOL         1
@<TRIPOS>MOLECULE
query molecule
   55    59     1     0     0
SMALL
NO_CHARGE

@<TRIPOS>ATOM
      1 N          36.7237    5.8383   21.4660 N.am      1 MOL    -0.2945
      2 N          39.1727    4.4097   21.4648 N.am      1 MOL    -0.2983
      3 N          31.5044    8.7964   22.1475 N.ar      1 MOL    -0.1750
      4 N          31.1505   10.0691   22.2779 N.ar      1 MOL    -0.2425
      5 C          29.8942   10.5089   21.8093 C.ar      1 MOL     0.2725
      6 C          29.0843    9.5850   21.1133 C.ar      1 MOL     0.0496
      7 C          27.8818    9.9985   20.5334 C.ar      1 MOL     0.0138
      8 C          27.1051    9.0934   19.8128 C.ar      1 MOL     0.0008
      9 C          27.5101    7.7631   19.6917 C.ar      1 MOL     0.0007
     10 C          28.7021    7.3372   20.2819 C.ar      1 MOL     0.0103
     11 C          29.5186    8.2339   20.9895 C.ar      1 MOL     0.0106
     12 C          30.7383    7.8323   21.5627 C.ar      1 MOL     0.0736
     13 C          31.1989    6.4073   21.5438 C.3       1 MOL     0.0925
     14 C          32.3489    6.2097   20.6282 C.ar      1 MOL    -0.0406
     15 C          33.6521    6.5390   21.0253 C.ar      1 MOL     0.0196
     16 C          34.7268    6.3437   20.1530 C.ar      1 MOL     0.0723
     17 C          36.1042    6.6567   20.5794 C.2       1 MOL     0.2495
     18 C          37.8493    6.3674   22.2361 C.3       1 MOL     0.1268
     19 C          39.1957    5.8527   21.6520 C.3       1 MOL     0.1265
     20 C          38.0466    3.8692   20.7017 C.3       1 MOL     0.1265
     21 C          36.6870    4.3871   21.2931 C.3       1 MOL     0.1268
     22 C          40.1225    3.5651   21.9551 C.2       1 MOL     0.2187
     23 C          40.8709    3.9995   23.1598 C.3       1 MOL     0.0752
     24 C          42.0243    4.8876   22.8809 C.3       1 MOL     0.0134
     25 C          42.2466    3.4496   23.2422 C.3       1 MOL     0.0134
     26 C          34.4920    5.8460   18.8710 C.ar      1 MOL     0.1355
     27 C          33.2008    5.5053   18.4678 C.ar      1 MOL     0.0392
     28 C          32.1302    5.6762   19.3499 C.ar      1 MOL     0.0066
     29 O          29.5579   11.6779   22.0479 O.2       1 MOL    -0.2658
     30 O          40.2802    2.4154   21.5191 O.2       1 MOL    -0.2753
     31 O          36.6096    7.6888   20.1500 O.2       1 MOL    -0.2699
     32 F          35.5176    5.6787   18.0025 F         1 MOL    -0.2047
     33 H          27.5582   11.0250   20.6332 H         1 MOL     0.0625
     34 H          26.1882    9.4238   19.3464 H         1 MOL     0.0618
     35 H          26.9006    7.0637   19.1377 H         1 MOL     0.0618
     36 H          29.0024    6.3019   20.1876 H         1 MOL     0.0624
     37 H          30.3628    5.7729   21.1905 H         1 MOL     0.0377
     38 H          31.4995    6.1071   22.5640 H         1 MOL     0.0377
     39 H          33.8277    6.9518   22.0089 H         1 MOL     0.0629
     40 H          37.7499    6.0003   23.2907 H         1 MOL     0.0480
     41 H          37.8121    7.4724   22.2477 H         1 MOL     0.0480
     42 H          40.0613    6.1285   22.2934 H         1 MOL     0.0480
     43 H          39.3471    6.3253   20.6511 H         1 MOL     0.0480
     44 H          38.0927    2.7566   20.7132 H         1 MOL     0.0480
     45 H          38.1427    4.2070   19.6423 H         1 MOL     0.0480
     46 H          36.5280    3.9239   22.2979 H         1 MOL     0.0480
     47 H          35.8259    4.1100   20.6475 H         1 MOL     0.0480
     48 H          40.2717    4.1115   24.0315 H         1 MOL     0.0394
     49 H          42.2471    5.6190   23.6503 H         1 MOL     0.0273
     50 H          42.1849    5.1816   21.8532 H         1 MOL     0.0273
     51 H          42.6220    3.2523   24.2402 H         1 MOL     0.0273
     52 H          42.5731    2.7921   22.4472 H         1 MOL     0.0273
     53 H          33.0354    5.1132   17.4748 H         1 MOL     0.0646
     54 H          31.1342    5.3975   19.0398 H         1 MOL     0.0621
     55 H          31.6596   10.7186   22.8569 H         1 MOL     0.1921
@<TRIPOS>BOND
     1    1   17 am
     2    1   18 1 
     3    1   21 1 
     4    2   19 1 
     5    2   20 1 
     6    2   22 am
     7    3    4 ar
     8    3   12 ar
     9    4    5 ar
    10    4   55 1 
    11    5    6 ar
    12    5   29 2 
    13    6    7 ar
    14    6   11 ar
    15    7    8 ar
    16    7   33 1 
    17    8    9 ar
    18    8   34 1 
    19    9   10 ar
    20    9   35 1 
    21   10   11 ar
    22   10   36 1 
    23   11   12 ar
    24   12   13 1 
    25   13   14 1 
    26   13   37 1 
    27   13   38 1 
    28   14   15 ar
    29   14   28 ar
    30   15   16 ar
    31   15   39 1 
    32   16   17 1 
    33   16   26 ar
    34   17   31 2 
    35   18   19 1 
    36   18   40 1 
    37   18   41 1 
    38   19   42 1 
    39   19   43 1 
    40   20   21 1 
    41   20   44 1 
    42   20   45 1 
    43   21   46 1 
    44   21   47 1 
    45   22   23 1 
    46   22   30 2 
    47   23   24 1 
    48   23   25 1 
    49   23   48 1 
    50   24   25 1 
    51   24   49 1 
    52   24   50 1 
    53   25   51 1 
    54   25   52 1 
    55   26   27 ar
    56   26   32 1 
    57   27   28 ar
    58   27   53 1 
    59   28   54 1 
@<TRIPOS>SUBSTRUCTURE
1 MOL         1
@<TRIPOS>MOLECULE
query molecule
   55    59     1     0     0
SMALL
NO_CHARGE

@<TRIPOS>ATOM
      1 N          12.9046   11.6377   -2.1243 N.am      1 MOL    -0.2945
      2 N          10.7586   10.7066   -0.5182 N.am      1 MOL    -0.2983
      3 N          15.7702    9.2407   -6.5234 N.ar      1 MOL    -0.1750
      4 N          15.0596    9.4199   -7.6297 N.ar      1 MOL    -0.2425
      5 C          14.2509    8.3772   -8.1346 C.ar      1 MOL     0.2725
      6 C          14.2345    7.1484   -7.4352 C.ar      1 MOL     0.0496
      7 C          13.4968    6.0636   -7.9123 C.ar      1 MOL     0.0138
      8 C          13.5116    4.8569   -7.2170 C.ar      1 MOL     0.0008
      9 C          14.2522    4.7300   -6.0439 C.ar      1 MOL     0.0007
     10 C          14.9801    5.8060   -5.5466 C.ar      1 MOL     0.0103
     11 C          14.9900    7.0253   -6.2319 C.ar      1 MOL     0.0106
     12 C          15.7334    8.1149   -5.7528 C.ar      1 MOL     0.0736
     13 C          16.4767    8.0522   -4.4511 C.3       1 MOL     0.0925
     14 C          16.3977    9.3237   -3.6821 C.ar      1 MOL    -0.0406
     15 C          15.1991   10.0355   -3.5520 C.ar      1 MOL     0.0196
     16 C          15.1761   11.2863   -2.9328 C.ar      1 MOL     0.0723
     17 C          13.9119   12.0531   -2.9311 C.2       1 MOL     0.2495
     18 C          11.5696   12.1994   -2.3202 C.3       1 MOL     0.1268
     19 C          10.4826   11.1811   -1.8658 C.3       1 MOL     0.1265
     20 C          12.1002   10.1819   -0.2688 C.3       1 MOL     0.1265
     21 C          13.1995   11.1552   -0.7784 C.3       1 MOL     0.1268
     22 C           9.8427   10.6660    0.4853 C.2       1 MOL     0.2187
     23 C           8.4480   11.0907    0.2093 C.3       1 MOL     0.0752
     24 C           8.3035   12.5540   -0.0103 C.3       1 MOL     0.0134
     25 C           7.9021   11.9491    1.3007 C.3       1 MOL     0.0134
     26 C          16.3394   11.7979   -2.3693 C.ar      1 MOL     0.1355
     27 C          17.5305   11.0732   -2.4352 C.ar      1 MOL     0.0392
     28 C          17.5614    9.8388   -3.0954 C.ar      1 MOL     0.0066
     29 O          13.5923    8.5976   -9.1630 O.2       1 MOL    -0.2658
     30 O          10.1145   10.2144    1.6099 O.2       1 MOL    -0.2753
     31 O          13.8070   12.9668   -3.7549 O.2       1 MOL    -0.2699
     32 F          16.3245   13.0059   -1.7583 F         1 MOL    -0.2047
     33 H          12.9160    6.1664   -8.8174 H         1 MOL     0.0625
     34 H          12.9382    4.0190   -7.5897 H         1 MOL     0.0618
     35 H          14.2523    3.7916   -5.5046 H         1 MOL     0.0618
     36 H          15.5365    5.7046   -4.6256 H         1 MOL     0.0624
     37 H          17.5399    7.8458   -4.6742 H         1 MOL     0.0377
     38 H          16.0482    7.2394   -3.8362 H         1 MOL     0.0377
     39 H          14.2889    9.6281   -3.9667 H         1 MOL     0.0629
     40 H          11.4345   12.4909   -3.3852 H         1 MOL     0.0480
     41 H          11.4912   13.1255   -1.6990 H         1 MOL     0.0480
     42 H          10.4758   10.3052   -2.5560 H         1 MOL     0.0480
     43 H           9.4699   11.6458   -1.8870 H         1 MOL     0.0480
     44 H          12.1963    9.2090   -0.8092 H         1 MOL     0.0480
     45 H          12.2231    9.9800    0.8199 H         1 MOL     0.0480
     46 H          14.2029   10.6715   -0.7725 H         1 MOL     0.0480
     47 H          13.2456   12.0456   -0.1024 H         1 MOL     0.0480
     48 H           7.8360   10.3800   -0.2885 H         1 MOL     0.0394
     49 H           7.5030   12.8629   -0.6726 H         1 MOL     0.0273
     50 H           9.2191   13.1312   -0.0331 H         1 MOL     0.0273
     51 H           6.8378   11.8824    1.4930 H         1 MOL     0.0273
     52 H           8.5498   12.1511    2.1441 H         1 MOL     0.0273
     53 H          18.4278   11.4720   -1.9869 H         1 MOL     0.0646
     54 H          18.4884    9.2872   -3.1627 H         1 MOL     0.0621
     55 H          15.0872   10.2735   -8.1589 H         1 MOL     0.1921
@<TRIPOS>BOND
     1    1   17 am
     2    1   18 1 
     3    1   21 1 
     4    2   19 1 
     5    2   20 1 
     6    2   22 am
     7    3    4 ar
     8    3   12 ar
     9    4    5 ar
    10    4   55 1 
    11    5    6 ar
    12    5   29 2 
    13    6    7 ar
    14    6   11 ar
    15    7    8 ar
    16    7   33 1 
    17    8    9 ar
    18    8   34 1 
    19    9   10 ar
    20    9   35 1 
    21   10   11 ar
    22   10   36 1 
    23   11   12 ar
    24   12   13 1 
    25   13   14 1 
    26   13   37 1 
    27   13   38 1 
    28   14   15 ar
    29   14   28 ar
    30   15   16 ar
    31   15   39 1 
    32   16   17 1 
    33   16   26 ar
    34   17   31 2 
    35   18   19 1 
    36   18   40 1 
    37   18   41 1 
    38   19   42 1 
    39   19   43 1 
    40   20   21 1 
    41   20   44 1 
    42   20   45 1 
    43   21   46 1 
    44   21   47 1 
    45   22   23 1 
    46   22   30 2 
    47   23   24 1 
    48   23   25 1 
    49   23   48 1 
    50   24   25 1 
    51   24   49 1 
    52   24   50 1 
    53   25   51 1 
    54   25   52 1 
    55   26   27 ar
    56   26   32 1 
    57   27   28 ar
    58   27   53 1 
    59   28   54 1 
@<TRIPOS>SUBSTRUCTURE
1 MOL         1
@<TRIPOS>MOLECULE
query molecule
   55    59     1     0     0
SMALL
NO_CHARGE

@<TRIPOS>ATOM
      1 N          37.5896   -4.5913   17.3406 N.am      1 MOL    -0.2945
      2 N          38.5951   -4.7730   20.0027 N.am      1 MOL    -0.2983
      3 N          32.3311   -0.4575   16.6518 N.ar      1 MOL    -0.1750
      4 N          31.0736   -0.0520   16.5562 N.ar      1 MOL    -0.2425
      5 C          30.7834    1.3245   16.4595 C.ar      1 MOL     0.2725
      6 C          31.8637    2.2305   16.3867 C.ar      1 MOL     0.0496
      7 C          31.6505    3.5984   16.1918 C.ar      1 MOL     0.0138
      8 C          32.7345    4.4727   16.0935 C.ar      1 MOL     0.0008
      9 C          34.0395    3.9891   16.1992 C.ar      1 MOL     0.0007
     10 C          34.2637    2.6281   16.4071 C.ar      1 MOL     0.0103
     11 C          33.1892    1.7269   16.5046 C.ar      1 MOL     0.0106
     12 C          33.4131    0.3589   16.7336 C.ar      1 MOL     0.0736
     13 C          34.7576   -0.1748   17.0873 C.3       1 MOL     0.0925
     14 C          35.4115   -1.0594   16.0987 C.ar      1 MOL    -0.0406
     15 C          35.8777   -2.3236   16.5057 C.ar      1 MOL     0.0196
     16 C          36.5573   -3.1851   15.6262 C.ar      1 MOL     0.0723
     17 C          37.0884   -4.5109   16.0718 C.2       1 MOL     0.2495
     18 C          38.9148   -5.1827   17.5512 C.3       1 MOL     0.1268
     19 C          39.5475   -4.7293   18.9043 C.3       1 MOL     0.1265
     20 C          37.2675   -4.2071   19.7586 C.3       1 MOL     0.1265
     21 C          36.6525   -4.7738   18.4486 C.3       1 MOL     0.1268
     22 C          38.8804   -5.2214   21.2519 C.2       1 MOL     0.2187
     23 C          40.1196   -5.9998   21.4819 C.3       1 MOL     0.0752
     24 C          39.8542   -7.4646   21.3572 C.3       1 MOL     0.0134
     25 C          40.0396   -6.8437   22.7122 C.3       1 MOL     0.0134
     26 C          36.7500   -2.7476   14.3086 C.ar      1 MOL     0.1355
     27 C          36.2977   -1.4929   13.8891 C.ar      1 MOL     0.0392
     28 C          35.6249   -0.6545   14.7798 C.ar      1 MOL     0.0066
     29 O          29.5900    1.6674   16.4589 O.2       1 MOL    -0.2658
     30 O          38.1516   -4.9786   22.2239 O.2       1 MOL    -0.2753
     31 O          37.1910   -5.4446   15.2642 O.2       1 MOL    -0.2699
     32 F          37.3960   -3.5285   13.4073 F         1 MOL    -0.2047
     33 H          30.6440    3.9818   16.1057 H         1 MOL     0.0625
     34 H          32.5664    5.5280   15.9355 H         1 MOL     0.0618
     35 H          34.8768    4.6670   16.1221 H         1 MOL     0.0618
     36 H          35.2788    2.2620   16.4913 H         1 MOL     0.0624
     37 H          34.6476   -0.7498   18.0323 H         1 MOL     0.0377
     38 H          35.4283    0.6909   17.2669 H         1 MOL     0.0377
     39 H          35.7129   -2.6421   17.5285 H         1 MOL     0.0629
     40 H          39.5777   -4.9299   16.6938 H         1 MOL     0.0480
     41 H          38.7982   -6.2949   17.5757 H         1 MOL     0.0480
     42 H          39.8811   -3.6663   18.7891 H         1 MOL     0.0480
     43 H          40.4464   -5.3324   19.1645 H         1 MOL     0.0480
     44 H          37.3671   -3.0993   19.6772 H         1 MOL     0.0480
     45 H          36.6148   -4.4369   20.6316 H         1 MOL     0.0480
     46 H          35.6842   -4.2884   18.2018 H         1 MOL     0.0480
     47 H          36.4687   -5.8694   18.5718 H         1 MOL     0.0480
     48 H          41.0248   -5.5648   21.1545 H         1 MOL     0.0394
     49 H          40.6643   -8.1045   21.0288 H         1 MOL     0.0273
     50 H          38.8455   -7.7648   21.1010 H         1 MOL     0.0273
     51 H          40.9652   -7.0700   23.2257 H         1 MOL     0.0273
     52 H          39.1500   -6.7248   23.3213 H         1 MOL     0.0273
     53 H          36.4714   -1.1696   12.8732 H         1 MOL     0.0646
     54 H          35.2767    0.3139   14.4530 H         1 MOL     0.0621
     55 H          30.2977   -0.6872   16.5115 H         1 MOL     0.1921
@<TRIPOS>BOND
     1    1   17 am
     2    1   18 1 
     3    1   21 1 
     4    2   19 1 
     5    2   20 1 
     6    2   22 am
     7    3    4 ar
     8    3   12 ar
     9    4    5 ar
    10    4   55 1 
    11    5    6 ar
    12    5   29 2 
    13    6    7 ar
    14    6   11 ar
    15    7    8 ar
    16    7   33 1 
    17    8    9 ar
    18    8   34 1 
    19    9   10 ar
    20    9   35 1 
    21   10   11 ar
    22   10   36 1 
    23   11   12 ar
    24   12   13 1 
    25   13   14 1 
    26   13   37 1 
    27   13   38 1 
    28   14   15 ar
    29   14   28 ar
    30   15   16 ar
    31   15   39 1 
    32   16   17 1 
    33   16   26 ar
    34   17   31 2 
    35   18   19 1 
    36   18   40 1 
    37   18   41 1 
    38   19   42 1 
    39   19   43 1 
    40   20   21 1 
    41   20   44 1 
    42   20   45 1 
    43   21   46 1 
    44   21   47 1 
    45   22   23 1 
    46   22   30 2 
    47   23   24 1 
    48   23   25 1 
    49   23   48 1 
    50   24   25 1 
    51   24   49 1 
    52   24   50 1 
    53   25   51 1 
    54   25   52 1 
    55   26   27 ar
    56   26   32 1 
    57   27   28 ar
    58   27   53 1 
    59   28   54 1 
@<TRIPOS>SUBSTRUCTURE
1 MOL         1
@<TRIPOS>MOLECULE
query molecule
   55    59     1     0     0
SMALL
NO_CHARGE

@<TRIPOS>ATOM
      1 N          32.6019   10.1738    4.3543 N.am      1 MOL    -0.2945
      2 N          35.2391    9.0744    3.9984 N.am      1 MOL    -0.2983
      3 N          26.9689    8.9173   -0.1779 N.ar      1 MOL    -0.1750
      4 N          25.7031    8.5199   -0.2132 N.ar      1 MOL    -0.2425
      5 C          25.3288    7.2599    0.3103 C.ar      1 MOL     0.2725
      6 C          26.3486    6.4327    0.8393 C.ar      1 MOL     0.0496
      7 C          26.0622    5.1681    1.3580 C.ar      1 MOL     0.0138
      8 C          27.0839    4.3507    1.8463 C.ar      1 MOL     0.0008
      9 C          28.4036    4.7899    1.8211 C.ar      1 MOL     0.0007
     10 C          28.7066    6.0557    1.3254 C.ar      1 MOL     0.0103
     11 C          27.6969    6.8999    0.8356 C.ar      1 MOL     0.0106
     12 C          27.9927    8.1789    0.3344 C.ar      1 MOL     0.0736
     13 C          29.3888    8.7211    0.3198 C.3       1 MOL     0.0925
     14 C          29.5480    9.8697    1.2348 C.ar      1 MOL    -0.0406
     15 C          30.3148    9.7038    2.3916 C.ar      1 MOL     0.0196
     16 C          30.4788   10.7626    3.2924 C.ar      1 MOL     0.0723
     17 C          31.3055   10.5701    4.5096 C.2       1 MOL     0.2495
     18 C          33.3836    9.8250    5.5369 C.3       1 MOL     0.1268
     19 C          34.4725    8.7670    5.1978 C.3       1 MOL     0.1265
     20 C          34.5041    9.5968    2.8442 C.3       1 MOL     0.1265
     21 C          33.4104   10.6332    3.2265 C.3       1 MOL     0.1268
     22 C          36.5587    8.7555    3.8330 C.2       1 MOL     0.2187
     23 C          37.1882    7.8316    4.8099 C.3       1 MOL     0.0752
     24 C          37.5980    8.4160    6.1053 C.3       1 MOL     0.0134
     25 C          38.6268    8.1393    5.0503 C.3       1 MOL     0.0134
     26 C          29.8588   11.9851    3.0319 C.ar      1 MOL     0.1355
     27 C          29.1061   12.1647    1.8690 C.ar      1 MOL     0.0392
     28 C          28.9574   11.1080    0.9665 C.ar      1 MOL     0.0066
     29 O          24.1227    6.9529    0.2761 O.2       1 MOL    -0.2658
     30 O          37.2060    9.0675    2.8172 O.2       1 MOL    -0.2753
     31 O          30.7487   10.7069    5.5982 O.2       1 MOL    -0.2699
     32 F          29.9904   13.0179    3.8978 F         1 MOL    -0.2047
     33 H          25.0390    4.8199    1.3789 H         1 MOL     0.0625
     34 H          26.8469    3.3751    2.2457 H         1 MOL     0.0618
     35 H          29.1910    4.1504    2.1923 H         1 MOL     0.0618
     36 H          29.7350    6.3908    1.3173 H         1 MOL     0.0624
     37 H          29.6348    9.0471   -0.7068 H         1 MOL     0.0377
     38 H          30.0801    7.9199    0.6434 H         1 MOL     0.0377
     39 H          30.7852    8.7518    2.5921 H         1 MOL     0.0629
     40 H          32.7032    9.4620    6.3392 H         1 MOL     0.0480
     41 H          33.8783   10.7583    5.9045 H         1 MOL     0.0480
     42 H          33.9722    7.7807    5.0387 H         1 MOL     0.0480
     43 H          35.1784    8.6531    6.0548 H         1 MOL     0.0480
     44 H          33.9939    8.7293    2.3543 H         1 MOL     0.0480
     45 H          35.2257   10.0197    2.1084 H         1 MOL     0.0480
     46 H          32.7458   10.8456    2.3583 H         1 MOL     0.0480
     47 H          33.9006   11.5929    3.5211 H         1 MOL     0.0480
     48 H          36.8645    6.8203    4.7213 H         1 MOL     0.0394
     49 H          37.5926    7.7339    6.9504 H         1 MOL     0.0273
     50 H          37.3568    9.4505    6.2996 H         1 MOL     0.0273
     51 H          39.2767    7.2850    5.2016 H         1 MOL     0.0273
     52 H          39.0542    9.0061    4.5641 H         1 MOL     0.0273
     53 H          28.6397   13.1170    1.6654 H         1 MOL     0.0646
     54 H          28.3802   11.2454    0.0637 H         1 MOL     0.0621
     55 H          24.9736    9.0836   -0.6107 H         1 MOL     0.1921
@<TRIPOS>BOND
     1    1   17 am
     2    1   18 1 
     3    1   21 1 
     4    2   19 1 
     5    2   20 1 
     6    2   22 am
     7    3    4 ar
     8    3   12 ar
     9    4    5 ar
    10    4   55 1 
    11    5    6 ar
    12    5   29 2 
    13    6    7 ar
    14    6   11 ar
    15    7    8 ar
    16    7   33 1 
    17    8    9 ar
    18    8   34 1 
    19    9   10 ar
    20    9   35 1 
    21   10   11 ar
    22   10   36 1 
    23   11   12 ar
    24   12   13 1 
    25   13   14 1 
    26   13   37 1 
    27   13   38 1 
    28   14   15 ar
    29   14   28 ar
    30   15   16 ar
    31   15   39 1 
    32   16   17 1 
    33   16   26 ar
    34   17   31 2 
    35   18   19 1 
    36   18   40 1 
    37   18   41 1 
    38   19   42 1 
    39   19   43 1 
    40   20   21 1 
    41   20   44 1 
    42   20   45 1 
    43   21   46 1 
    44   21   47 1 
    45   22   23 1 
    46   22   30 2 
    47   23   24 1 
    48   23   25 1 
    49   23   48 1 
    50   24   25 1 
    51   24   49 1 
    52   24   50 1 
    53   25   51 1 
    54   25   52 1 
    55   26   27 ar
    56   26   32 1 
    57   27   28 ar
    58   27   53 1 
    59   28   54 1 
@<TRIPOS>SUBSTRUCTURE
1 MOL         1
@<TRIPOS>MOLECULE
query molecule
   55    59     1     0     0
SMALL
NO_CHARGE

@<TRIPOS>ATOM
      1 N         -17.2926   -0.2869    9.3368 N.am      1 MOL    -0.2945
      2 N         -16.9652   -3.0029    8.4978 N.am      1 MOL    -0.2983
      3 N         -11.4774    4.7120    9.8686 N.ar      1 MOL    -0.1750
      4 N         -10.8330    5.7899   10.3043 N.ar      1 MOL    -0.2425
      5 C         -10.8185    6.9637    9.5150 C.ar      1 MOL     0.2725
      6 C         -11.4751    6.9407    8.2668 C.ar      1 MOL     0.0496
      7 C         -11.3837    8.0330    7.3993 C.ar      1 MOL     0.0138
      8 C         -12.0204    7.9978    6.1591 C.ar      1 MOL     0.0008
      9 C         -12.7630    6.8763    5.7867 C.ar      1 MOL     0.0007
     10 C         -12.8615    5.7819    6.6478 C.ar      1 MOL     0.0103
     11 C         -12.2132    5.7816    7.8927 C.ar      1 MOL     0.0106
     12 C         -12.2650    4.6719    8.7509 C.ar      1 MOL     0.0736
     13 C         -13.0886    3.4633    8.4425 C.3       1 MOL     0.0925
     14 C         -14.0557    2.9961    9.4704 C.ar      1 MOL    -0.0406
     15 C         -15.2016    2.2919    9.0397 C.ar      1 MOL     0.0196
     16 C         -16.1252    1.7732    9.9620 C.ar      1 MOL     0.0723
     17 C         -17.3303    1.0580    9.4835 C.2       1 MOL     0.2495
     18 C         -18.4350   -0.9852    8.7551 C.3       1 MOL     0.1268
     19 C         -17.9760   -2.1736    7.8543 C.3       1 MOL     0.1265
     20 C         -15.8814   -2.3273    9.2145 C.3       1 MOL     0.1265
     21 C         -16.3839   -1.1412   10.0818 C.3       1 MOL     0.1268
     22 C         -16.9176   -4.3644    8.4063 C.2       1 MOL     0.2187
     23 C         -17.9750   -5.0571    7.6283 C.3       1 MOL     0.0752
     24 C         -17.6205   -6.4428    7.2172 C.3       1 MOL     0.0134
     25 C         -17.5256   -5.3172    6.2271 C.3       1 MOL     0.0134
     26 C         -15.9020    1.9491   11.3254 C.ar      1 MOL     0.1355
     27 C         -14.7912    2.6585   11.7666 C.ar      1 MOL     0.0392
     28 C         -13.8814    3.1822   10.8429 C.ar      1 MOL     0.0066
     29 O         -10.2271    7.9589    9.9628 O.2       1 MOL    -0.2658
     30 O         -16.0402   -5.0359    8.9721 O.2       1 MOL    -0.2753
     31 O         -18.2988    1.7587    9.1704 O.2       1 MOL    -0.2699
     32 F         -16.7589    1.4296   12.2349 F         1 MOL    -0.2047
     33 H         -10.8113    8.9032    7.6868 H         1 MOL     0.0625
     34 H         -11.9362    8.8389    5.4866 H         1 MOL     0.0618
     35 H         -13.2594    6.8551    4.8274 H         1 MOL     0.0618
     36 H         -13.4384    4.9182    6.3469 H         1 MOL     0.0624
     37 H         -12.3891    2.6260    8.2346 H         1 MOL     0.0377
     38 H         -13.6691    3.6863    7.5208 H         1 MOL     0.0377
     39 H         -15.3684    2.1454    7.9811 H         1 MOL     0.0629
     40 H         -19.0653   -0.2631    8.1899 H         1 MOL     0.0480
     41 H         -19.0522   -1.3886    9.5967 H         1 MOL     0.0480
     42 H         -17.5296   -1.7506    6.9207 H         1 MOL     0.0480
     43 H         -18.8407   -2.8106    7.5582 H         1 MOL     0.0480
     44 H         -15.1625   -1.9334    8.4542 H         1 MOL     0.0480
     45 H         -15.3392   -3.0740    9.8391 H         1 MOL     0.0480
     46 H         -15.5359   -0.5337   10.4673 H         1 MOL     0.0480
     47 H         -16.9441   -1.5518   10.9574 H         1 MOL     0.0480
     48 H         -18.9725   -4.7631    7.8345 H         1 MOL     0.0394
     49 H         -18.4422   -7.1356    7.0786 H         1 MOL     0.0273
     50 H         -16.6865   -6.8473    7.5872 H         1 MOL     0.0273
     51 H         -18.2825   -5.3038    5.4506 H         1 MOL     0.0273
     52 H         -16.5253   -5.0099    5.9505 H         1 MOL     0.0273
     53 H         -14.6279    2.7997   12.8250 H         1 MOL     0.0646
     54 H         -13.0206    3.7319   11.2001 H         1 MOL     0.0621
     55 H         -10.1374    5.7513   11.0380 H         1 MOL     0.1921
@<TRIPOS>BOND
     1    1   17 am
     2    1   18 1 
     3    1   21 1 
     4    2   19 1 
     5    2   20 1 
     6    2   22 am
     7    3    4 ar
     8    3   12 ar
     9    4    5 ar
    10    4   55 1 
    11    5    6 ar
    12    5   29 2 
    13    6    7 ar
    14    6   11 ar
    15    7    8 ar
    16    7   33 1 
    17    8    9 ar
    18    8   34 1 
    19    9   10 ar
    20    9   35 1 
    21   10   11 ar
    22   10   36 1 
    23   11   12 ar
    24   12   13 1 
    25   13   14 1 
    26   13   37 1 
    27   13   38 1 
    28   14   15 ar
    29   14   28 ar
    30   15   16 ar
    31   15   39 1 
    32   16   17 1 
    33   16   26 ar
    34   17   31 2 
    35   18   19 1 
    36   18   40 1 
    37   18   41 1 
    38   19   42 1 
    39   19   43 1 
    40   20   21 1 
    41   20   44 1 
    42   20   45 1 
    43   21   46 1 
    44   21   47 1 
    45   22   23 1 
    46   22   30 2 
    47   23   24 1 
    48   23   25 1 
    49   23   48 1 
    50   24   25 1 
    51   24   49 1 
    52   24   50 1 
    53   25   51 1 
    54   25   52 1 
    55   26   27 ar
    56   26   32 1 
    57   27   28 ar
    58   27   53 1 
    59   28   54 1 
@<TRIPOS>SUBSTRUCTURE
1 MOL         1
@<TRIPOS>MOLECULE
query molecule
   55    59     1     0     0
SMALL
NO_CHARGE

@<TRIPOS>ATOM
      1 N          37.1714   -1.2430   15.1334 N.am      1 MOL    -0.2945
      2 N          36.2114   -0.8856   12.4499 N.am      1 MOL    -0.2983
      3 N          38.1500    4.2956   20.4927 N.ar      1 MOL    -0.1750
      4 N          38.0427    5.0534   21.5731 N.ar      1 MOL    -0.2425
      5 C          36.8384    5.7363   21.8733 C.ar      1 MOL     0.2725
      6 C          35.7507    5.5724   20.9943 C.ar      1 MOL     0.0496
      7 C          34.5090    6.1442   21.2837 C.ar      1 MOL     0.0138
      8 C          33.4552    6.0192   20.3792 C.ar      1 MOL     0.0008
      9 C          33.6393    5.3288   19.1791 C.ar      1 MOL     0.0007
     10 C          34.8667    4.7306   18.8924 C.ar      1 MOL     0.0103
     11 C          35.9347    4.8120   19.8001 C.ar      1 MOL     0.0106
     12 C          37.1633    4.1653   19.5578 C.ar      1 MOL     0.0736
     13 C          37.4193    3.3571   18.3240 C.3       1 MOL     0.0925
     14 C          37.1525    1.8957   18.4219 C.ar      1 MOL    -0.0406
     15 C          37.5827    1.0598   17.3672 C.ar      1 MOL     0.0196
     16 C          37.3574   -0.3247   17.4080 C.ar      1 MOL     0.0723
     17 C          37.8249   -1.2097   16.3191 C.2       1 MOL     0.2495
     18 C          37.6359   -2.1607   14.0931 C.3       1 MOL     0.1268
     19 C          37.5001   -1.5267   12.6788 C.3       1 MOL     0.1265
     20 C          35.5979   -0.1382   13.5510 C.3       1 MOL     0.1265
     21 C          35.8035   -0.7804   14.9532 C.3       1 MOL     0.1268
     22 C          35.6036   -0.8226   11.2227 C.2       1 MOL     0.2187
     23 C          36.2968   -1.4150   10.0524 C.3       1 MOL     0.0752
     24 C          35.3750   -2.1452    9.1414 C.3       1 MOL     0.0134
     25 C          36.3021   -2.9073   10.0404 C.3       1 MOL     0.0134
     26 C          36.6990   -0.8771   18.5078 C.ar      1 MOL     0.1355
     27 C          36.2600   -0.0645   19.5485 C.ar      1 MOL     0.0392
     28 C          36.4855    1.3134   19.5061 C.ar      1 MOL     0.0066
     29 O          36.8144    6.4639   22.8811 O.2       1 MOL    -0.2658
     30 O          34.5338   -0.2178   11.0394 O.2       1 MOL    -0.2753
     31 O          38.8405   -1.8723   16.5616 O.2       1 MOL    -0.2699
     32 F          36.4802   -2.2132   18.5691 F         1 MOL    -0.2047
     33 H          34.3659    6.6862   22.2074 H         1 MOL     0.0625
     34 H          32.4963    6.4631   20.6028 H         1 MOL     0.0618
     35 H          32.8281    5.2538   18.4700 H         1 MOL     0.0618
     36 H          34.9972    4.1890   17.9650 H         1 MOL     0.0624
     37 H          38.4891    3.4873   18.0537 H         1 MOL     0.0377
     38 H          36.7857    3.7666   17.5110 H         1 MOL     0.0377
     39 H          38.0979    1.4899   16.5186 H         1 MOL     0.0629
     40 H          37.0157   -3.0881   14.1502 H         1 MOL     0.0480
     41 H          38.6932   -2.4452   14.2985 H         1 MOL     0.0480
     42 H          37.6723   -2.2934   11.8859 H         1 MOL     0.0480
     43 H          38.2904   -0.7444   12.5662 H         1 MOL     0.0480
     44 H          34.5121   -0.0030   13.3376 H         1 MOL     0.0480
     45 H          36.0687    0.8761   13.5644 H         1 MOL     0.0480
     46 H          35.1284   -1.6637   15.0643 H         1 MOL     0.0480
     47 H          35.5523   -0.0557   15.7608 H         1 MOL     0.0480
     48 H          37.1186   -0.8558    9.6787 H         1 MOL     0.0394
     49 H          35.6283   -2.1433    8.0883 H         1 MOL     0.0273
     50 H          34.3269   -2.1773    9.4027 H         1 MOL     0.0273
     51 H          37.1552   -3.3852    9.5700 H         1 MOL     0.0273
     52 H          35.8512   -3.4156   10.8842 H         1 MOL     0.0273
     53 H          35.7407   -0.4970   20.3910 H         1 MOL     0.0646
     54 H          36.1417    1.9398   20.3171 H         1 MOL     0.0621
     55 H          38.7407    5.0693   22.3087 H         1 MOL     0.1921
@<TRIPOS>BOND
     1    1   17 am
     2    1   18 1 
     3    1   21 1 
     4    2   19 1 
     5    2   20 1 
     6    2   22 am
     7    3    4 ar
     8    3   12 ar
     9    4    5 ar
    10    4   55 1 
    11    5    6 ar
    12    5   29 2 
    13    6    7 ar
    14    6   11 ar
    15    7    8 ar
    16    7   33 1 
    17    8    9 ar
    18    8   34 1 
    19    9   10 ar
    20    9   35 1 
    21   10   11 ar
    22   10   36 1 
    23   11   12 ar
    24   12   13 1 
    25   13   14 1 
    26   13   37 1 
    27   13   38 1 
    28   14   15 ar
    29   14   28 ar
    30   15   16 ar
    31   15   39 1 
    32   16   17 1 
    33   16   26 ar
    34   17   31 2 
    35   18   19 1 
    36   18   40 1 
    37   18   41 1 
    38   19   42 1 
    39   19   43 1 
    40   20   21 1 
    41   20   44 1 
    42   20   45 1 
    43   21   46 1 
    44   21   47 1 
    45   22   23 1 
    46   22   30 2 
    47   23   24 1 
    48   23   25 1 
    49   23   48 1 
    50   24   25 1 
    51   24   49 1 
    52   24   50 1 
    53   25   51 1 
    54   25   52 1 
    55   26   27 ar
    56   26   32 1 
    57   27   28 ar
    58   27   53 1 
    59   28   54 1 
@<TRIPOS>SUBSTRUCTURE
1 MOL         1
@<TRIPOS>MOLECULE
query molecule
   55    59     1     0     0
SMALL
NO_CHARGE

@<TRIPOS>ATOM
      1 N          33.3495    5.5270   19.7608 N.am      1 MOL    -0.2945
      2 N          35.8336    6.2029   20.9582 N.am      1 MOL    -0.2983
      3 N          28.7885    4.3038   16.2786 N.ar      1 MOL    -0.1750
      4 N          28.0679    3.2280   15.9924 N.ar      1 MOL    -0.2425
      5 C          27.2436    3.2254   14.8529 C.ar      1 MOL     0.2725
      6 C          27.1951    4.3850   14.0510 C.ar      1 MOL     0.0496
      7 C          26.3842    4.4249   12.9210 C.ar      1 MOL     0.0138
      8 C          26.3381    5.5537   12.1104 C.ar      1 MOL     0.0008
      9 C          27.1046    6.6697   12.4434 C.ar      1 MOL     0.0007
     10 C          27.9280    6.6473   13.5743 C.ar      1 MOL     0.0103
     11 C          27.9907    5.5121   14.3995 C.ar      1 MOL     0.0106
     12 C          28.8040    5.4538   15.5462 C.ar      1 MOL     0.0736
     13 C          29.6714    6.6033   15.9585 C.3       1 MOL     0.0925
     14 C          29.8233    6.7079   17.4359 C.ar      1 MOL    -0.0406
     15 C          30.8746    6.0468   18.0899 C.ar      1 MOL     0.0196
     16 C          31.0025    6.1213   19.4860 C.ar      1 MOL     0.0723
     17 C          32.0717    5.3619   20.1782 C.2       1 MOL     0.2495
     18 C          34.3292    4.4655   19.9419 C.3       1 MOL     0.1268
     19 C          35.3338    4.8361   21.0678 C.3       1 MOL     0.1265
     20 C          34.9174    7.2722   20.5520 C.3       1 MOL     0.1265
     21 C          33.8935    6.8446   19.4570 C.3       1 MOL     0.1268
     22 C          37.1106    6.5352   21.3250 C.2       1 MOL     0.2187
     23 C          38.0358    5.4452   21.7103 C.3       1 MOL     0.0752
     24 C          39.4774    5.8002   21.6892 C.3       1 MOL     0.0134
     25 C          38.8802    4.9945   20.5684 C.3       1 MOL     0.0134
     26 C          30.0983    6.8918   20.2184 C.ar      1 MOL     0.1355
     27 C          29.0543    7.5592   19.5772 C.ar      1 MOL     0.0392
     28 C          28.9144    7.4647   18.1873 C.ar      1 MOL     0.0066
     29 O          26.6273    2.1785   14.5815 O.2       1 MOL    -0.2658
     30 O          37.4979    7.7117   21.3876 O.2       1 MOL    -0.2753
     31 O          31.7331    4.5320   21.0307 O.2       1 MOL    -0.2699
     32 F          30.2289    6.9961   21.5621 F         1 MOL    -0.2047
     33 H          25.7873    3.5590   12.6643 H         1 MOL     0.0625
     34 H          25.7180    5.5622   11.2272 H         1 MOL     0.0618
     35 H          27.0718    7.5488   11.8156 H         1 MOL     0.0618
     36 H          28.5238    7.5182   13.8135 H         1 MOL     0.0624
     37 H          29.2105    7.5385   15.5875 H         1 MOL     0.0377
     38 H          30.6719    6.4662   15.5100 H         1 MOL     0.0377
     39 H          31.5797    5.4656   17.5123 H         1 MOL     0.0629
     40 H          34.8685    4.3284   18.9728 H         1 MOL     0.0480
     41 H          33.8010    3.5136   20.1856 H         1 MOL     0.0480
     42 H          36.2020    4.1355   21.0871 H         1 MOL     0.0480
     43 H          34.7958    4.7379   22.0434 H         1 MOL     0.0480
     44 H          35.5030    8.1662   20.2304 H         1 MOL     0.0480
     45 H          34.3191    7.5745   21.4475 H         1 MOL     0.0480
     46 H          34.3836    6.7976   18.4542 H         1 MOL     0.0480
     47 H          33.0550    7.5799   19.4023 H         1 MOL     0.0480
     48 H          37.6510    4.7331   22.4001 H         1 MOL     0.0394
     49 H          40.1222    5.2615   22.3759 H         1 MOL     0.0273
     50 H          39.7481    6.8237   21.4669 H         1 MOL     0.0273
     51 H          39.1396    3.9413   20.5372 H         1 MOL     0.0273
     52 H          38.7740    5.5009   19.6184 H         1 MOL     0.0273
     53 H          28.3538    8.1448   20.1530 H         1 MOL     0.0646
     54 H          28.1007    7.9759   17.6933 H         1 MOL     0.0621
     55 H          28.0413    2.4152   16.5797 H         1 MOL     0.1921
@<TRIPOS>BOND
     1    1   17 am
     2    1   18 1 
     3    1   21 1 
     4    2   19 1 
     5    2   20 1 
     6    2   22 am
     7    3    4 ar
     8    3   12 ar
     9    4    5 ar
    10    4   55 1 
    11    5    6 ar
    12    5   29 2 
    13    6    7 ar
    14    6   11 ar
    15    7    8 ar
    16    7   33 1 
    17    8    9 ar
    18    8   34 1 
    19    9   10 ar
    20    9   35 1 
    21   10   11 ar
    22   10   36 1 
    23   11   12 ar
    24   12   13 1 
    25   13   14 1 
    26   13   37 1 
    27   13   38 1 
    28   14   15 ar
    29   14   28 ar
    30   15   16 ar
    31   15   39 1 
    32   16   17 1 
    33   16   26 ar
    34   17   31 2 
    35   18   19 1 
    36   18   40 1 
    37   18   41 1 
    38   19   42 1 
    39   19   43 1 
    40   20   21 1 
    41   20   44 1 
    42   20   45 1 
    43   21   46 1 
    44   21   47 1 
    45   22   23 1 
    46   22   30 2 
    47   23   24 1 
    48   23   25 1 
    49   23   48 1 
    50   24   25 1 
    51   24   49 1 
    52   24   50 1 
    53   25   51 1 
    54   25   52 1 
    55   26   27 ar
    56   26   32 1 
    57   27   28 ar
    58   27   53 1 
    59   28   54 1 
@<TRIPOS>SUBSTRUCTURE
1 MOL         1
@<TRIPOS>MOLECULE
query molecule
   55    59     1     0     0
SMALL
NO_CHARGE

@<TRIPOS>ATOM
      1 N           1.7293    0.3210   -3.9816 N.am      1 MOL    -0.2945
      2 N           0.2724    1.2531   -1.6867 N.am      1 MOL    -0.2983
      3 N           7.9535   -0.6095   -5.7088 N.ar      1 MOL    -0.1750
      4 N           8.5292    0.5881   -5.6673 N.ar      1 MOL    -0.2425
      5 C           8.5031    1.4576   -6.7784 C.ar      1 MOL     0.2725
      6 C           7.8941    0.9910   -7.9631 C.ar      1 MOL     0.0496
      7 C           7.8784    1.7821   -9.1098 C.ar      1 MOL     0.0138
      8 C           7.3272    1.3032  -10.2963 C.ar      1 MOL     0.0008
      9 C           6.7742    0.0211  -10.3375 C.ar      1 MOL     0.0007
     10 C           6.7542   -0.7699   -9.1872 C.ar      1 MOL     0.0103
     11 C           7.3000   -0.3022   -7.9825 C.ar      1 MOL     0.0106
     12 C           7.2753   -1.0647   -6.8033 C.ar      1 MOL     0.0736
     13 C           6.5271   -2.3606   -6.7261 C.3       1 MOL     0.0925
     14 C           5.4462   -2.2938   -5.7146 C.ar      1 MOL    -0.0406
     15 C           4.4176   -1.3536   -5.8335 C.ar      1 MOL     0.0196
     16 C           3.4060   -1.2541   -4.8592 C.ar      1 MOL     0.0723
     17 C           2.3845   -0.1973   -5.0535 C.2       1 MOL     0.2495
     18 C           0.4411    0.9858   -4.1880 C.3       1 MOL     0.1268
     19 C          -0.4521    0.9249   -2.9054 C.3       1 MOL     0.1265
     20 C           1.6473    0.7749   -1.5572 C.3       1 MOL     0.1265
     21 C           2.4844    0.8722   -2.8588 C.3       1 MOL     0.1268
     22 C          -0.2832    1.8594   -0.6005 C.2       1 MOL     0.2187
     23 C          -1.7448    2.1066   -0.5712 C.3       1 MOL     0.0752
     24 C          -2.2112    2.5596    0.7720 C.3       1 MOL     0.0134
     25 C          -2.3861    1.1250    0.3559 C.3       1 MOL     0.0134
     26 C           3.4288   -2.1482   -3.7906 C.ar      1 MOL     0.1355
     27 C           4.4464   -3.1033   -3.6695 C.ar      1 MOL     0.0392
     28 C           5.4567   -3.1725   -4.6299 C.ar      1 MOL     0.0066
     29 O           9.0043    2.5867   -6.6556 O.2       1 MOL    -0.2658
     30 O           0.3753    2.1865    0.3999 O.2       1 MOL    -0.2753
     31 O           2.1056    0.1063   -6.2218 O.2       1 MOL    -0.2699
     32 F           2.4610   -2.1282   -2.8430 F         1 MOL    -0.2047
     33 H           8.3074    2.7728   -9.0827 H         1 MOL     0.0625
     34 H           7.3276    1.9244  -11.1809 H         1 MOL     0.0618
     35 H           6.3570   -0.3519  -11.2623 H         1 MOL     0.0618
     36 H           6.3178   -1.7560   -9.2298 H         1 MOL     0.0624
     37 H           7.2341   -3.1548   -6.4317 H         1 MOL     0.0377
     38 H           6.0807   -2.5818   -7.7110 H         1 MOL     0.0377
     39 H           4.4150   -0.6844   -6.6846 H         1 MOL     0.0629
     40 H          -0.0755    0.5128   -5.0548 H         1 MOL     0.0480
     41 H           0.6477    2.0517   -4.4535 H         1 MOL     0.0480
     42 H          -0.8365   -0.1201   -2.7999 H         1 MOL     0.0480
     43 H          -1.3328    1.6002   -3.0062 H         1 MOL     0.0480
     44 H           1.5928   -0.3066   -1.2711 H         1 MOL     0.0480
     45 H           2.1443    1.3179   -0.7224 H         1 MOL     0.0480
     46 H           3.4435    0.3155   -2.7523 H         1 MOL     0.0480
     47 H           2.7293    1.9366   -3.0846 H         1 MOL     0.0480
     48 H          -2.2063    2.3959   -1.4713 H         1 MOL     0.0394
     49 H          -3.0927    3.1835    0.8122 H         1 MOL     0.0273
     50 H          -1.4231    2.7615    1.4914 H         1 MOL     0.0273
     51 H          -3.4054    0.8163    0.1690 H         1 MOL     0.0273
     52 H          -1.7353    0.4059    0.8405 H         1 MOL     0.0273
     53 H           4.4515   -3.7899   -2.8363 H         1 MOL     0.0646
     54 H           6.2443   -3.9059   -4.5383 H         1 MOL     0.0621
     55 H           8.9394    0.9525   -4.8237 H         1 MOL     0.1921
@<TRIPOS>BOND
     1    1   17 am
     2    1   18 1 
     3    1   21 1 
     4    2   19 1 
     5    2   20 1 
     6    2   22 am
     7    3    4 ar
     8    3   12 ar
     9    4    5 ar
    10    4   55 1 
    11    5    6 ar
    12    5   29 2 
    13    6    7 ar
    14    6   11 ar
    15    7    8 ar
    16    7   33 1 
    17    8    9 ar
    18    8   34 1 
    19    9   10 ar
    20    9   35 1 
    21   10   11 ar
    22   10   36 1 
    23   11   12 ar
    24   12   13 1 
    25   13   14 1 
    26   13   37 1 
    27   13   38 1 
    28   14   15 ar
    29   14   28 ar
    30   15   16 ar
    31   15   39 1 
    32   16   17 1 
    33   16   26 ar
    34   17   31 2 
    35   18   19 1 
    36   18   40 1 
    37   18   41 1 
    38   19   42 1 
    39   19   43 1 
    40   20   21 1 
    41   20   44 1 
    42   20   45 1 
    43   21   46 1 
    44   21   47 1 
    45   22   23 1 
    46   22   30 2 
    47   23   24 1 
    48   23   25 1 
    49   23   48 1 
    50   24   25 1 
    51   24   49 1 
    52   24   50 1 
    53   25   51 1 
    54   25   52 1 
    55   26   27 ar
    56   26   32 1 
    57   27   28 ar
    58   27   53 1 
    59   28   54 1 
@<TRIPOS>SUBSTRUCTURE
1 MOL         1
@<TRIPOS>MOLECULE
query molecule
   55    59     1     0     0
SMALL
NO_CHARGE

@<TRIPOS>ATOM
      1 N          34.5322   14.0219   24.6321 N.am      1 MOL    -0.2945
      2 N          35.7759   13.1258   27.0280 N.am      1 MOL    -0.2983
      3 N          29.8439    9.9742   20.6021 N.ar      1 MOL    -0.1750
      4 N          29.1180    8.8786   20.7731 N.ar      1 MOL    -0.2425
      5 C          29.7448    7.6228   20.8831 C.ar      1 MOL     0.2725
      6 C          31.1504    7.5561   20.8314 C.ar      1 MOL     0.0496
      7 C          31.8242    6.3519   21.0667 C.ar      1 MOL     0.0138
      8 C          33.2067    6.2793   20.8954 C.ar      1 MOL     0.0008
      9 C          33.9064    7.4001   20.4489 C.ar      1 MOL     0.0007
     10 C          33.2389    8.6139   20.2538 C.ar      1 MOL     0.0103
     11 C          31.8702    8.7436   20.5187 C.ar      1 MOL     0.0106
     12 C          31.2019    9.9820   20.4768 C.ar      1 MOL     0.0736
     13 C          31.9193   11.2773   20.2785 C.3       1 MOL     0.0925
     14 C          31.7409   12.2757   21.3683 C.ar      1 MOL    -0.0406
     15 C          32.8753   12.8517   21.9621 C.ar      1 MOL     0.0196
     16 C          32.7590   13.8430   22.9415 C.ar      1 MOL     0.0723
     17 C          33.9616   14.4941   23.4968 C.2       1 MOL     0.2495
     18 C          35.7574   14.6764   25.1053 C.3       1 MOL     0.1268
     19 C          35.9634   14.5067   26.6423 C.3       1 MOL     0.1265
     20 C          34.4817   12.5660   26.6521 C.3       1 MOL     0.1265
     21 C          34.2813   12.6690   25.1131 C.3       1 MOL     0.1268
     22 C          36.6614   12.3449   27.7087 C.2       1 MOL     0.2187
     23 C          37.9990   12.8944   28.0515 C.3       1 MOL     0.0752
     24 C          38.8529   13.2188   26.8780 C.3       1 MOL     0.0134
     25 C          39.0874   11.9548   27.6383 C.3       1 MOL     0.0134
     26 C          31.4939   14.2417   23.3620 C.ar      1 MOL     0.1355
     27 C          30.3584   13.6748   22.7922 C.ar      1 MOL     0.0392
     28 C          30.4793   12.7017   21.7977 C.ar      1 MOL     0.0066
     29 O          29.0167    6.6166   20.9597 O.2       1 MOL    -0.2658
     30 O          36.3624   11.2123   28.0789 O.2       1 MOL    -0.2753
     31 O          34.3553   15.4995   22.8953 O.2       1 MOL    -0.2699
     32 F          31.3595   15.1920   24.3190 F         1 MOL    -0.2047
     33 H          31.2733    5.4757   21.3738 H         1 MOL     0.0625
     34 H          33.7343    5.3587   21.0946 H         1 MOL     0.0618
     35 H          34.9686    7.3366   20.2615 H         1 MOL     0.0618
     36 H          33.7980    9.4796   19.9218 H         1 MOL     0.0624
     37 H          31.5475   11.7318   19.3375 H         1 MOL     0.0377
     38 H          33.0015   11.0588   20.1848 H         1 MOL     0.0377
     39 H          33.8594   12.5311   21.6475 H         1 MOL     0.0629
     40 H          35.7244   15.7545   24.8305 H         1 MOL     0.0480
     41 H          36.6236   14.2122   24.5730 H         1 MOL     0.0480
     42 H          35.2115   15.1192   27.1948 H         1 MOL     0.0480
     43 H          36.9794   14.8393   26.9561 H         1 MOL     0.0480
     44 H          33.6836   13.1249   27.1872 H         1 MOL     0.0480
     45 H          34.4393   11.5020   26.9765 H         1 MOL     0.0480
     46 H          33.2616   12.3478   24.8044 H         1 MOL     0.0480
     47 H          35.0158   11.9880   24.6131 H         1 MOL     0.0480
     48 H          38.0576   13.4219   28.9693 H         1 MOL     0.0394
     49 H          39.5939   13.9988   27.0180 H         1 MOL     0.0273
     50 H          38.3957   13.1316   25.8998 H         1 MOL     0.0273
     51 H          39.9733   11.9150   28.2578 H         1 MOL     0.0273
     52 H          38.7869   11.0378   27.1445 H         1 MOL     0.0273
     53 H          29.3779   13.9943   23.1150 H         1 MOL     0.0646
     54 H          29.5905   12.2784   21.3519 H         1 MOL     0.0621
     55 H          28.1162    8.8954   20.8331 H         1 MOL     0.1921
@<TRIPOS>BOND
     1    1   17 am
     2    1   18 1 
     3    1   21 1 
     4    2   19 1 
     5    2   20 1 
     6    2   22 am
     7    3    4 ar
     8    3   12 ar
     9    4    5 ar
    10    4   55 1 
    11    5    6 ar
    12    5   29 2 
    13    6    7 ar
    14    6   11 ar
    15    7    8 ar
    16    7   33 1 
    17    8    9 ar
    18    8   34 1 
    19    9   10 ar
    20    9   35 1 
    21   10   11 ar
    22   10   36 1 
    23   11   12 ar
    24   12   13 1 
    25   13   14 1 
    26   13   37 1 
    27   13   38 1 
    28   14   15 ar
    29   14   28 ar
    30   15   16 ar
    31   15   39 1 
    32   16   17 1 
    33   16   26 ar
    34   17   31 2 
    35   18   19 1 
    36   18   40 1 
    37   18   41 1 
    38   19   42 1 
    39   19   43 1 
    40   20   21 1 
    41   20   44 1 
    42   20   45 1 
    43   21   46 1 
    44   21   47 1 
    45   22   23 1 
    46   22   30 2 
    47   23   24 1 
    48   23   25 1 
    49   23   48 1 
    50   24   25 1 
    51   24   49 1 
    52   24   50 1 
    53   25   51 1 
    54   25   52 1 
    55   26   27 ar
    56   26   32 1 
    57   27   28 ar
    58   27   53 1 
    59   28   54 1 
@<TRIPOS>SUBSTRUCTURE
1 MOL         1
@<TRIPOS>MOLECULE
query molecule
   55    59     1     0     0
SMALL
NO_CHARGE

@<TRIPOS>ATOM
      1 N          28.9498   -4.1994   38.4923 N.am      1 MOL    -0.2945
      2 N          26.1924   -3.5691   38.1778 N.am      1 MOL    -0.2983
      3 N          33.0195   -3.2748   34.7575 N.ar      1 MOL    -0.1750
      4 N          33.5609   -4.0931   33.8626 N.ar      1 MOL    -0.2425
      5 C          34.4691   -3.5764   32.9077 C.ar      1 MOL     0.2725
      6 C          34.7489   -2.1912   32.9181 C.ar      1 MOL     0.0496
      7 C          35.5789   -1.6238   31.9443 C.ar      1 MOL     0.0138
      8 C          35.7880   -0.2454   31.9143 C.ar      1 MOL     0.0008
      9 C          35.1869    0.5749   32.8701 C.ar      1 MOL     0.0007
     10 C          34.3755    0.0201   33.8603 C.ar      1 MOL     0.0103
     11 C          34.1334   -1.3626   33.9040 C.ar      1 MOL     0.0106
     12 C          33.2757   -1.9379   34.8607 C.ar      1 MOL     0.0736
     13 C          32.6346   -1.0917   35.9149 C.3       1 MOL     0.0925
     14 C          32.4290   -1.8110   37.1942 C.ar      1 MOL    -0.0406
     15 C          31.4221   -2.7744   37.3213 C.ar      1 MOL     0.0196
     16 C          31.2808   -3.5083   38.5023 C.ar      1 MOL     0.0723
     17 C          30.2528   -4.5712   38.6213 C.2       1 MOL     0.2495
     18 C          27.9689   -4.8288   39.3772 C.3       1 MOL     0.1268
     19 C          26.7005   -3.9274   39.4926 C.3       1 MOL     0.1265
     20 C          27.1403   -3.1092   37.1723 C.3       1 MOL     0.1265
     21 C          28.4511   -3.9312   37.1501 C.3       1 MOL     0.1268
     22 C          24.8611   -3.5505   37.8706 C.2       1 MOL     0.2187
     23 C          23.9187   -3.4533   39.0100 C.3       1 MOL     0.0752
     24 C          23.0010   -4.6282   39.0508 C.3       1 MOL     0.0134
     25 C          22.5000   -3.2798   38.5892 C.3       1 MOL     0.0134
     26 C          32.1321   -3.2338   39.5767 C.ar      1 MOL     0.1355
     27 C          33.1089   -2.2407   39.4784 C.ar      1 MOL     0.0392
     28 C          33.2586   -1.5286   38.2849 C.ar      1 MOL     0.0066
     29 O          34.9688   -4.3741   32.0960 O.2       1 MOL    -0.2658
     30 O          24.4459   -3.5533   36.7048 O.2       1 MOL    -0.2753
     31 O          30.5995   -5.7080   38.9646 O.2       1 MOL    -0.2699
     32 F          32.0144   -3.9279   40.7344 F         1 MOL    -0.2047
     33 H          36.0460   -2.2574   31.2048 H         1 MOL     0.0625
     34 H          36.4166    0.1863   31.1495 H         1 MOL     0.0618
     35 H          35.3519    1.6421   32.8418 H         1 MOL     0.0618
     36 H          33.9190    0.6677   34.5965 H         1 MOL     0.0624
     37 H          31.6416   -0.7597   35.5400 H         1 MOL     0.0377
     38 H          33.2762   -0.2149   36.1072 H         1 MOL     0.0377
     39 H          30.7586   -2.9633   36.4893 H         1 MOL     0.0629
     40 H          28.4316   -5.0082   40.3730 H         1 MOL     0.0480
     41 H          27.6914   -5.8195   38.9429 H         1 MOL     0.0480
     42 H          26.9703   -2.9886   40.0343 H         1 MOL     0.0480
     43 H          25.8993   -4.4409   40.0701 H         1 MOL     0.0480
     44 H          27.4141   -2.0542   37.4295 H         1 MOL     0.0480
     45 H          26.6499   -3.0951   36.1740 H         1 MOL     0.0480
     46 H          29.2415   -3.4225   36.5545 H         1 MOL     0.0480
     47 H          28.2447   -4.9189   36.6653 H         1 MOL     0.0480
     48 H          24.2916   -2.9992   39.8925 H         1 MOL     0.0394
     49 H          22.6752   -4.9487   40.0280 H         1 MOL     0.0273
     50 H          23.1623   -5.3753   38.2932 H         1 MOL     0.0273
     51 H          21.8492   -2.7522   39.2687 H         1 MOL     0.0273
     52 H          22.3255   -3.1690   37.5275 H         1 MOL     0.0273
     53 H          33.7481   -2.0251   40.3216 H         1 MOL     0.0646
     54 H          34.0170   -0.7636   38.2050 H         1 MOL     0.0621
     55 H          33.1883   -5.0145   33.6776 H         1 MOL     0.1921
@<TRIPOS>BOND
     1    1   17 am
     2    1   18 1 
     3    1   21 1 
     4    2   19 1 
     5    2   20 1 
     6    2   22 am
     7    3    4 ar
     8    3   12 ar
     9    4    5 ar
    10    4   55 1 
    11    5    6 ar
    12    5   29 2 
    13    6    7 ar
    14    6   11 ar
    15    7    8 ar
    16    7   33 1 
    17    8    9 ar
    18    8   34 1 
    19    9   10 ar
    20    9   35 1 
    21   10   11 ar
    22   10   36 1 
    23   11   12 ar
    24   12   13 1 
    25   13   14 1 
    26   13   37 1 
    27   13   38 1 
    28   14   15 ar
    29   14   28 ar
    30   15   16 ar
    31   15   39 1 
    32   16   17 1 
    33   16   26 ar
    34   17   31 2 
    35   18   19 1 
    36   18   40 1 
    37   18   41 1 
    38   19   42 1 
    39   19   43 1 
    40   20   21 1 
    41   20   44 1 
    42   20   45 1 
    43   21   46 1 
    44   21   47 1 
    45   22   23 1 
    46   22   30 2 
    47   23   24 1 
    48   23   25 1 
    49   23   48 1 
    50   24   25 1 
    51   24   49 1 
    52   24   50 1 
    53   25   51 1 
    54   25   52 1 
    55   26   27 ar
    56   26   32 1 
    57   27   28 ar
    58   27   53 1 
    59   28   54 1 
@<TRIPOS>SUBSTRUCTURE
1 MOL         1
@<TRIPOS>MOLECULE
query molecule
   55    59     1     0     0
SMALL
NO_CHARGE

@<TRIPOS>ATOM
      1 N          32.1859  -11.0714   15.6953 N.am      1 MOL    -0.2945
      2 N          30.8685  -12.2166   13.4436 N.am      1 MOL    -0.2983
      3 N          34.5053  -12.2207   22.7001 N.ar      1 MOL    -0.1750
      4 N          35.2053  -11.5055   23.5701 N.ar      1 MOL    -0.2425
      5 C          36.5765  -11.2732   23.3632 C.ar      1 MOL     0.2725
      6 C          37.1785  -11.8198   22.2093 C.ar      1 MOL     0.0496
      7 C          38.5358  -11.6180   21.9471 C.ar      1 MOL     0.0138
      8 C          39.1197  -12.1617   20.8027 C.ar      1 MOL     0.0008
      9 C          38.3528  -12.9181   19.9149 C.ar      1 MOL     0.0007
     10 C          36.9960  -13.1290   20.1654 C.ar      1 MOL     0.0103
     11 C          36.3838  -12.5838   21.3041 C.ar      1 MOL     0.0106
     12 C          35.0187  -12.7669   21.5639 C.ar      1 MOL     0.0736
     13 C          34.1115  -13.5182   20.6416 C.3       1 MOL     0.0925
     14 C          33.1668  -12.5621   20.0053 C.ar      1 MOL    -0.0406
     15 C          33.4200  -12.0891   18.7133 C.ar      1 MOL     0.0196
     16 C          32.5694  -11.1418   18.1221 C.ar      1 MOL     0.0723
     17 C          32.9115  -10.6583   16.7654 C.2       1 MOL     0.2495
     18 C          32.6153  -10.6818   14.3493 C.3       1 MOL     0.1268
     19 C          32.2280  -11.7381   13.2631 C.3       1 MOL     0.1265
     20 C          30.4219  -12.5529   14.7922 C.3       1 MOL     0.1265
     21 C          30.7851  -11.4525   15.8114 C.3       1 MOL     0.1268
     22 C          29.9842  -12.4515   12.4337 C.2       1 MOL     0.2187
     23 C          30.5436  -12.6677   11.0808 C.3       1 MOL     0.0752
     24 C          29.6283  -12.4009    9.9532 C.3       1 MOL     0.0134
     25 C          29.8634  -13.8165   10.4047 C.3       1 MOL     0.0134
     26 C          31.4654  -10.6866   18.8405 C.ar      1 MOL     0.1355
     27 C          31.1831  -11.1797   20.1153 C.ar      1 MOL     0.0392
     28 C          32.0345  -12.1188   20.6970 C.ar      1 MOL     0.0066
     29 O          37.1831  -10.6010   24.2130 O.2       1 MOL    -0.2658
     30 O          28.7657  -12.5240   12.6543 O.2       1 MOL    -0.2753
     31 O          33.9268   -9.9589   16.6681 O.2       1 MOL    -0.2699
     32 F          30.6407   -9.7507   18.3200 F         1 MOL    -0.2047
     33 H          39.1329  -11.0378   22.6353 H         1 MOL     0.0625
     34 H          40.1686  -11.9973   20.6045 H         1 MOL     0.0618
     35 H          38.8102  -13.3411   19.0325 H         1 MOL     0.0618
     36 H          36.4109  -13.7185   19.4728 H         1 MOL     0.0624
     37 H          33.5373  -14.2618   21.2184 H         1 MOL     0.0377
     38 H          34.7139  -14.0069   19.8575 H         1 MOL     0.0377
     39 H          34.2864  -12.4446   18.1724 H         1 MOL     0.0629
     40 H          33.7089  -10.4740   14.3514 H         1 MOL     0.0480
     41 H          32.0867   -9.7247   14.1003 H         1 MOL     0.0480
     42 H          32.9220  -12.6088   13.3266 H         1 MOL     0.0480
     43 H          32.3299  -11.2978   12.2428 H         1 MOL     0.0480
     44 H          30.9328  -13.5005   15.0919 H         1 MOL     0.0480
     45 H          29.3249  -12.7435   14.7731 H         1 MOL     0.0480
     46 H          30.5787  -11.7936   16.8503 H         1 MOL     0.0480
     47 H          30.1646  -10.5453   15.6157 H         1 MOL     0.0480
     48 H          31.5995  -12.5720   10.9973 H         1 MOL     0.0394
     49 H          30.0557  -12.1530    8.9896 H         1 MOL     0.0273
     50 H          28.6715  -11.9546   10.2039 H         1 MOL     0.0273
     51 H          30.4472  -14.4408    9.7413 H         1 MOL     0.0273
     52 H          29.0571  -14.2966   10.9477 H         1 MOL     0.0273
     53 H          30.3135  -10.8320   20.6503 H         1 MOL     0.0646
     54 H          31.8281  -12.4967   21.6876 H         1 MOL     0.0621
     55 H          34.7856  -11.0736   24.3738 H         1 MOL     0.1921
@<TRIPOS>BOND
     1    1   17 am
     2    1   18 1 
     3    1   21 1 
     4    2   19 1 
     5    2   20 1 
     6    2   22 am
     7    3    4 ar
     8    3   12 ar
     9    4    5 ar
    10    4   55 1 
    11    5    6 ar
    12    5   29 2 
    13    6    7 ar
    14    6   11 ar
    15    7    8 ar
    16    7   33 1 
    17    8    9 ar
    18    8   34 1 
    19    9   10 ar
    20    9   35 1 
    21   10   11 ar
    22   10   36 1 
    23   11   12 ar
    24   12   13 1 
    25   13   14 1 
    26   13   37 1 
    27   13   38 1 
    28   14   15 ar
    29   14   28 ar
    30   15   16 ar
    31   15   39 1 
    32   16   17 1 
    33   16   26 ar
    34   17   31 2 
    35   18   19 1 
    36   18   40 1 
    37   18   41 1 
    38   19   42 1 
    39   19   43 1 
    40   20   21 1 
    41   20   44 1 
    42   20   45 1 
    43   21   46 1 
    44   21   47 1 
    45   22   23 1 
    46   22   30 2 
    47   23   24 1 
    48   23   25 1 
    49   23   48 1 
    50   24   25 1 
    51   24   49 1 
    52   24   50 1 
    53   25   51 1 
    54   25   52 1 
    55   26   27 ar
    56   26   32 1 
    57   27   28 ar
    58   27   53 1 
    59   28   54 1 
@<TRIPOS>SUBSTRUCTURE
1 MOL         1
@<TRIPOS>MOLECULE
query molecule
   55    59     1     0     0
SMALL
NO_CHARGE

@<TRIPOS>ATOM
      1 N          -2.6630    7.7484   10.0550 N.am      1 MOL    -0.2945
      2 N          -3.4649    7.0354    7.4136 N.am      1 MOL    -0.2983
      3 N          -4.2635    9.6617   15.7762 N.ar      1 MOL    -0.1750
      4 N          -4.2471    8.7586   16.7454 N.ar      1 MOL    -0.2425
      5 C          -5.4144    8.0423   17.0629 C.ar      1 MOL     0.2725
      6 C          -6.5991    8.3295   16.3555 C.ar      1 MOL     0.0496
      7 C          -7.7938    7.6599   16.6342 C.ar      1 MOL     0.0138
      8 C          -8.9590    7.9680   15.9319 C.ar      1 MOL     0.0008
      9 C          -8.9377    8.9492   14.9399 C.ar      1 MOL     0.0007
     10 C          -7.7499    9.6190   14.6422 C.ar      1 MOL     0.0103
     11 C          -6.5642    9.3255   15.3332 C.ar      1 MOL     0.0106
     12 C          -5.3588    9.9805   15.0328 C.ar      1 MOL     0.0736
     13 C          -5.2404   10.9912   13.9302 C.3       1 MOL     0.0925
     14 C          -3.9853   10.8184   13.1551 C.ar      1 MOL    -0.0406
     15 C          -3.7375    9.6308   12.4607 C.ar      1 MOL     0.0196
     16 C          -2.5055    9.4258   11.8324 C.ar      1 MOL     0.0723
     17 C          -2.2226    8.0906   11.2828 C.2       1 MOL     0.2495
     18 C          -2.4133    6.3898    9.5736 C.3       1 MOL     0.1268
     19 C          -2.3472    6.3289    8.0146 C.3       1 MOL     0.1265
     20 C          -3.6310    8.4197    7.8559 C.3       1 MOL     0.1265
     21 C          -3.7466    8.4775    9.4024 C.3       1 MOL     0.1268
     22 C          -4.3311    6.5271    6.4996 C.2       1 MOL     0.2187
     23 C          -4.1954    5.1131    6.0796 C.3       1 MOL     0.0752
     24 C          -3.0358    4.8457    5.1895 C.3       1 MOL     0.0134
     25 C          -4.4147    4.9571    4.6098 C.3       1 MOL     0.0134
     26 C          -1.5610   10.4448   11.8029 C.ar      1 MOL     0.1355
     27 C          -1.8211   11.6584   12.4442 C.ar      1 MOL     0.0392
     28 C          -3.0279   11.8407   13.1318 C.ar      1 MOL     0.0066
     29 O          -5.3250    7.1836   17.9539 O.2       1 MOL    -0.2658
     30 O          -5.2844    7.1886    6.0538 O.2       1 MOL    -0.2753
     31 O          -1.5578    7.3717   12.0312 O.2       1 MOL    -0.2699
     32 F          -0.3807   10.2668   11.1642 F         1 MOL    -0.2047
     33 H          -7.8168    6.8970   17.4006 H         1 MOL     0.0625
     34 H          -9.8789    7.4473   16.1539 H         1 MOL     0.0618
     35 H          -9.8410    9.1884   14.3977 H         1 MOL     0.0618
     36 H          -7.7425   10.3717   13.8650 H         1 MOL     0.0624
     37 H          -5.2400   12.0018   14.3765 H         1 MOL     0.0377
     38 H          -6.1006   10.8694   13.2478 H         1 MOL     0.0377
     39 H          -4.4842    8.8501   12.4328 H         1 MOL     0.0629
     40 H          -3.2504    5.7389    9.9258 H         1 MOL     0.0480
     41 H          -1.4699    6.0106   10.0293 H         1 MOL     0.0480
     42 H          -2.3355    5.2780    7.6507 H         1 MOL     0.0480
     43 H          -1.4072    6.8259    7.6685 H         1 MOL     0.0480
     44 H          -4.5308    8.8619    7.3737 H         1 MOL     0.0480
     45 H          -2.7389    9.0050    7.5286 H         1 MOL     0.0480
     46 H          -4.7099    7.9924    9.7009 H         1 MOL     0.0480
     47 H          -3.7629    9.5239    9.7802 H         1 MOL     0.0480
     48 H          -4.5745    4.3921    6.7595 H         1 MOL     0.0394
     49 H          -2.6184    3.8454    5.2163 H         1 MOL     0.0273
     50 H          -2.3564    5.6661    5.0000 H         1 MOL     0.0273
     51 H          -4.8827    4.0379    4.2786 H         1 MOL     0.0273
     52 H          -4.6297    5.8554    4.0434 H         1 MOL     0.0273
     53 H          -1.0884   12.4508   12.4162 H         1 MOL     0.0646
     54 H          -3.2237   12.7682   13.6497 H         1 MOL     0.0621
     55 H          -3.4074    8.4863   17.2254 H         1 MOL     0.1921
@<TRIPOS>BOND
     1    1   17 am
     2    1   18 1 
     3    1   21 1 
     4    2   19 1 
     5    2   20 1 
     6    2   22 am
     7    3    4 ar
     8    3   12 ar
     9    4    5 ar
    10    4   55 1 
    11    5    6 ar
    12    5   29 2 
    13    6    7 ar
    14    6   11 ar
    15    7    8 ar
    16    7   33 1 
    17    8    9 ar
    18    8   34 1 
    19    9   10 ar
    20    9   35 1 
    21   10   11 ar
    22   10   36 1 
    23   11   12 ar
    24   12   13 1 
    25   13   14 1 
    26   13   37 1 
    27   13   38 1 
    28   14   15 ar
    29   14   28 ar
    30   15   16 ar
    31   15   39 1 
    32   16   17 1 
    33   16   26 ar
    34   17   31 2 
    35   18   19 1 
    36   18   40 1 
    37   18   41 1 
    38   19   42 1 
    39   19   43 1 
    40   20   21 1 
    41   20   44 1 
    42   20   45 1 
    43   21   46 1 
    44   21   47 1 
    45   22   23 1 
    46   22   30 2 
    47   23   24 1 
    48   23   25 1 
    49   23   48 1 
    50   24   25 1 
    51   24   49 1 
    52   24   50 1 
    53   25   51 1 
    54   25   52 1 
    55   26   27 ar
    56   26   32 1 
    57   27   28 ar
    58   27   53 1 
    59   28   54 1 
@<TRIPOS>SUBSTRUCTURE
1 MOL         1
@<TRIPOS>MOLECULE
query molecule
   55    59     1     0     0
SMALL
NO_CHARGE

@<TRIPOS>ATOM
      1 N         -10.2777   -7.3579   16.8831 N.am      1 MOL    -0.2945
      2 N          -8.1987   -9.3260   16.8520 N.am      1 MOL    -0.2983
      3 N         -14.6243   -5.9254   12.7146 N.ar      1 MOL    -0.1750
      4 N         -15.1079   -4.9367   11.9756 N.ar      1 MOL    -0.2425
      5 C         -16.0397   -5.1797   10.9482 C.ar      1 MOL     0.2725
      6 C         -16.4145   -6.5110   10.6915 C.ar      1 MOL     0.0496
      7 C         -17.3154   -6.8141    9.6677 C.ar      1 MOL     0.0138
      8 C         -17.6621   -8.1406    9.4085 C.ar      1 MOL     0.0008
      9 C         -17.1101   -9.1709   10.1721 C.ar      1 MOL     0.0007
     10 C         -16.2173   -8.8766   11.2051 C.ar      1 MOL     0.0103
     11 C         -15.8567   -7.5508   11.4924 C.ar      1 MOL     0.0106
     12 C         -14.9720   -7.2319   12.5372 C.ar      1 MOL     0.0736
     13 C         -14.3929   -8.2906   13.4306 C.3       1 MOL     0.0925
     14 C         -14.1575   -7.7999   14.8132 C.ar      1 MOL    -0.0406
     15 C         -12.8785   -7.3876   15.2116 C.ar      1 MOL     0.0196
     16 C         -12.6499   -6.9091   16.5068 C.ar      1 MOL     0.0723
     17 C         -11.3050   -6.4650   16.9615 C.2       1 MOL     0.2495
     18 C          -9.3039   -7.3769   17.9742 C.3       1 MOL     0.1268
     19 C          -8.6701   -8.7990   18.1254 C.3       1 MOL     0.1265
     20 C          -9.0498   -9.1501   15.6723 C.3       1 MOL     0.1265
     21 C          -9.7205   -7.7501   15.5952 C.3       1 MOL     0.1268
     22 C          -7.0689  -10.0798   16.7101 C.2       1 MOL     0.2187
     23 C          -6.4944  -10.7375   17.9080 C.3       1 MOL     0.0752
     24 C          -5.5667   -9.9021   18.7135 C.3       1 MOL     0.0134
     25 C          -5.0252  -10.9587   17.7978 C.3       1 MOL     0.0134
     26 C         -13.7277   -6.8530   17.4026 C.ar      1 MOL     0.1355
     27 C         -14.9970   -7.2895   17.0248 C.ar      1 MOL     0.0392
     28 C         -15.2166   -7.7534   15.7265 C.ar      1 MOL     0.0066
     29 O         -16.4862   -4.1995   10.3256 O.2       1 MOL    -0.2658
     30 O          -6.5808  -10.3228   15.5971 O.2       1 MOL    -0.2753
     31 O         -11.2236   -5.3924   17.5635 O.2       1 MOL    -0.2699
     32 F         -13.5531   -6.3816   18.6615 F         1 MOL    -0.2047
     33 H         -17.7429   -6.0185    9.0749 H         1 MOL     0.0625
     34 H         -18.3607   -8.3690    8.6173 H         1 MOL     0.0618
     35 H         -17.3775  -10.1962    9.9649 H         1 MOL     0.0618
     36 H         -15.7996   -9.6825   11.7922 H         1 MOL     0.0624
     37 H         -13.4300   -8.6246   13.0055 H         1 MOL     0.0377
     38 H         -15.1066   -9.1351   13.4799 H         1 MOL     0.0377
     39 H         -12.0586   -7.4383   14.5089 H         1 MOL     0.0629
     40 H          -9.7972   -7.0484   18.9157 H         1 MOL     0.0480
     41 H          -8.4993   -6.6425   17.7272 H         1 MOL     0.0480
     42 H          -9.4300   -9.5073   18.5326 H         1 MOL     0.0480
     43 H          -7.8176   -8.7647   18.8431 H         1 MOL     0.0480
     44 H          -9.8632   -9.9186   15.7443 H         1 MOL     0.0480
     45 H          -8.4610   -9.3660   14.7533 H         1 MOL     0.0480
     46 H         -10.5290   -7.7421   14.8298 H         1 MOL     0.0480
     47 H          -8.9565   -6.9905   15.3029 H         1 MOL     0.0480
     48 H          -7.1221  -11.4671   18.3596 H         1 MOL     0.0394
     49 H          -5.5159  -10.1239   19.7740 H         1 MOL     0.0273
     50 H          -5.4168   -8.8788   18.4088 H         1 MOL     0.0273
     51 H          -4.6297  -11.8509   18.2676 H         1 MOL     0.0273
     52 H          -4.5215  -10.5957   16.9088 H         1 MOL     0.0273
     53 H         -15.8123   -7.2543   17.7323 H         1 MOL     0.0646
     54 H         -16.2046   -8.0715   15.4298 H         1 MOL     0.0621
     55 H         -14.9131   -3.9693   12.1735 H         1 MOL     0.1921
@<TRIPOS>BOND
     1    1   17 am
     2    1   18 1 
     3    1   21 1 
     4    2   19 1 
     5    2   20 1 
     6    2   22 am
     7    3    4 ar
     8    3   12 ar
     9    4    5 ar
    10    4   55 1 
    11    5    6 ar
    12    5   29 2 
    13    6    7 ar
    14    6   11 ar
    15    7    8 ar
    16    7   33 1 
    17    8    9 ar
    18    8   34 1 
    19    9   10 ar
    20    9   35 1 
    21   10   11 ar
    22   10   36 1 
    23   11   12 ar
    24   12   13 1 
    25   13   14 1 
    26   13   37 1 
    27   13   38 1 
    28   14   15 ar
    29   14   28 ar
    30   15   16 ar
    31   15   39 1 
    32   16   17 1 
    33   16   26 ar
    34   17   31 2 
    35   18   19 1 
    36   18   40 1 
    37   18   41 1 
    38   19   42 1 
    39   19   43 1 
    40   20   21 1 
    41   20   44 1 
    42   20   45 1 
    43   21   46 1 
    44   21   47 1 
    45   22   23 1 
    46   22   30 2 
    47   23   24 1 
    48   23   25 1 
    49   23   48 1 
    50   24   25 1 
    51   24   49 1 
    52   24   50 1 
    53   25   51 1 
    54   25   52 1 
    55   26   27 ar
    56   26   32 1 
    57   27   28 ar
    58   27   53 1 
    59   28   54 1 
@<TRIPOS>SUBSTRUCTURE
1 MOL         1
@<TRIPOS>MOLECULE
query molecule
   55    59     1     0     0
SMALL
NO_CHARGE

@<TRIPOS>ATOM
      1 N          38.2825   -4.8133   27.0094 N.am      1 MOL    -0.2945
      2 N          37.9306   -6.7949   24.9961 N.am      1 MOL    -0.2983
      3 N          35.1805    0.0880   30.6131 N.ar      1 MOL    -0.1750
      4 N          34.4432   -0.1299   31.6944 N.ar      1 MOL    -0.2425
      5 C          34.9306    0.1571   32.9854 C.ar      1 MOL     0.2725
      6 C          36.2393    0.6716   33.0996 C.ar      1 MOL     0.0496
      7 C          36.7709    1.0094   34.3492 C.ar      1 MOL     0.0138
      8 C          38.0634    1.5298   34.4444 C.ar      1 MOL     0.0008
      9 C          38.8348    1.7064   33.2942 C.ar      1 MOL     0.0007
     10 C          38.3151    1.3729   32.0419 C.ar      1 MOL     0.0103
     11 C          37.0133    0.8623   31.9143 C.ar      1 MOL     0.0106
     12 C          36.4567    0.5642   30.6573 C.ar      1 MOL     0.0736
     13 C          37.2063    0.7831   29.3769 C.3       1 MOL     0.0925
     14 C          36.9490   -0.3226   28.4220 C.ar      1 MOL    -0.0406
     15 C          37.6164   -1.5407   28.5722 C.ar      1 MOL     0.0196
     16 C          37.3590   -2.6329   27.7165 C.ar      1 MOL     0.0723
     17 C          38.1258   -3.8790   27.9771 C.2       1 MOL     0.2495
     18 C          38.5796   -6.2001   27.3689 C.3       1 MOL     0.1268
     19 C          37.8679   -7.1795   26.4005 C.3       1 MOL     0.1265
     20 C          37.9894   -5.3770   24.6427 C.3       1 MOL     0.1265
     21 C          38.7358   -4.4861   25.6654 C.3       1 MOL     0.1268
     22 C          37.7656   -7.6919   23.9751 C.2       1 MOL     0.2187
     23 C          37.7736   -9.1428   24.2893 C.3       1 MOL     0.0752
     24 C          39.1543   -9.7037   24.3550 C.3       1 MOL     0.0134
     25 C          38.2764   -9.9835   23.1687 C.3       1 MOL     0.0134
     26 C          36.3991   -2.4640   26.7204 C.ar      1 MOL     0.1355
     27 C          35.7534   -1.2354   26.5317 C.ar      1 MOL     0.0392
     28 C          36.0293   -0.1632   27.3821 C.ar      1 MOL     0.0066
     29 O          34.1800   -0.0525   33.9503 O.2       1 MOL    -0.2658
     30 O          37.5096   -7.3274   22.8145 O.2       1 MOL    -0.2753
     31 O          38.5221   -4.0598   29.1390 O.2       1 MOL    -0.2699
     32 F          36.0431   -3.4877   25.9097 F         1 MOL    -0.2047
     33 H          36.1793    0.8732   35.2435 H         1 MOL     0.0625
     34 H          38.4661    1.7967   35.4110 H         1 MOL     0.0618
     35 H          39.8364    2.1040   33.3749 H         1 MOL     0.0618
     36 H          38.9206    1.5163   31.1578 H         1 MOL     0.0624
     37 H          38.2871    0.8154   29.6034 H         1 MOL     0.0377
     38 H          36.8716    1.7330   28.9252 H         1 MOL     0.0377
     39 H          38.3428   -1.6513   29.3675 H         1 MOL     0.0629
     40 H          38.2688   -6.3849   28.4230 H         1 MOL     0.0480
     41 H          39.6853   -6.3481   27.3053 H         1 MOL     0.0480
     42 H          36.7727   -7.1703   26.6853 H         1 MOL     0.0480
     43 H          38.2216   -8.2244   26.5194 H         1 MOL     0.0480
     44 H          36.9291   -5.0073   24.6273 H         1 MOL     0.0480
     45 H          38.3880   -5.2651   23.6097 H         1 MOL     0.0480
     46 H          38.5499   -3.4076   25.4640 H         1 MOL     0.0480
     47 H          39.8339   -4.6684   25.6060 H         1 MOL     0.0480
     48 H          37.0138   -9.4778   24.9485 H         1 MOL     0.0394
     49 H          39.3161  -10.5332   25.0345 H         1 MOL     0.0273
     50 H          39.9889   -9.0371   24.1811 H         1 MOL     0.0273
     51 H          37.8771  -10.9886   23.0935 H         1 MOL     0.0273
     52 H          38.5503   -9.4879   22.2457 H         1 MOL     0.0273
     53 H          35.0370   -1.1194   25.7323 H         1 MOL     0.0646
     54 H          35.5285    0.7828   27.2444 H         1 MOL     0.0621
     55 H          33.5270   -0.5440   31.6430 H         1 MOL     0.1921
@<TRIPOS>BOND
     1    1   17 am
     2    1   18 1 
     3    1   21 1 
     4    2   19 1 
     5    2   20 1 
     6    2   22 am
     7    3    4 ar
     8    3   12 ar
     9    4    5 ar
    10    4   55 1 
    11    5    6 ar
    12    5   29 2 
    13    6    7 ar
    14    6   11 ar
    15    7    8 ar
    16    7   33 1 
    17    8    9 ar
    18    8   34 1 
    19    9   10 ar
    20    9   35 1 
    21   10   11 ar
    22   10   36 1 
    23   11   12 ar
    24   12   13 1 
    25   13   14 1 
    26   13   37 1 
    27   13   38 1 
    28   14   15 ar
    29   14   28 ar
    30   15   16 ar
    31   15   39 1 
    32   16   17 1 
    33   16   26 ar
    34   17   31 2 
    35   18   19 1 
    36   18   40 1 
    37   18   41 1 
    38   19   42 1 
    39   19   43 1 
    40   20   21 1 
    41   20   44 1 
    42   20   45 1 
    43   21   46 1 
    44   21   47 1 
    45   22   23 1 
    46   22   30 2 
    47   23   24 1 
    48   23   25 1 
    49   23   48 1 
    50   24   25 1 
    51   24   49 1 
    52   24   50 1 
    53   25   51 1 
    54   25   52 1 
    55   26   27 ar
    56   26   32 1 
    57   27   28 ar
    58   27   53 1 
    59   28   54 1 
@<TRIPOS>SUBSTRUCTURE
1 MOL         1
@<TRIPOS>MOLECULE
query molecule
   55    59     1     0     0
SMALL
NO_CHARGE

@<TRIPOS>ATOM
      1 N          33.2938   14.3382   24.8637 N.am      1 MOL    -0.2945
      2 N          32.5140   13.3506   22.3026 N.am      1 MOL    -0.2983
      3 N          40.3742   12.7536   27.4858 N.ar      1 MOL    -0.1750
      4 N          41.2690   11.8407   27.0967 N.ar      1 MOL    -0.2425
      5 C          41.4059   11.5013   25.7378 C.ar      1 MOL     0.2725
      6 C          40.6060   12.1690   24.7907 C.ar      1 MOL     0.0496
      7 C          40.7261   11.8796   23.4307 C.ar      1 MOL     0.0138
      8 C          39.9614   12.5781   22.5022 C.ar      1 MOL     0.0008
      9 C          39.0599   13.5546   22.9284 C.ar      1 MOL     0.0007
     10 C          38.9118   13.8309   24.2843 C.ar      1 MOL     0.0103
     11 C          39.6801   13.1522   25.2404 C.ar      1 MOL     0.0106
     12 C          39.5641   13.4143   26.6139 C.ar      1 MOL     0.0736
     13 C          38.5899   14.3996   27.1639 C.3       1 MOL     0.0925
     14 C          37.2175   13.8431   27.2565 C.ar      1 MOL    -0.0406
     15 C          36.1703   14.5397   26.6308 C.ar      1 MOL     0.0196
     16 C          34.8536   14.0787   26.7305 C.ar      1 MOL     0.0723
     17 C          33.7556   14.8135   26.0528 C.2       1 MOL     0.2495
     18 C          32.5566   15.2277   23.9664 C.3       1 MOL     0.1268
     19 C          32.7034   14.7792   22.4803 C.3       1 MOL     0.1265
     20 C          33.1071   12.4566   23.2840 C.3       1 MOL     0.1265
     21 C          32.9358   12.9343   24.7319 C.3       1 MOL     0.1268
     22 C          31.9401   12.7574   21.2170 C.2       1 MOL     0.2187
     23 C          31.5519   13.6165   20.0726 C.3       1 MOL     0.0752
     24 C          31.7391   12.9455   18.7552 C.3       1 MOL     0.0134
     25 C          32.7497   13.9463   19.2345 C.3       1 MOL     0.0134
     26 C          34.6035   12.9318   27.4790 C.ar      1 MOL     0.1355
     27 C          35.6339   12.2158   28.0800 C.ar      1 MOL     0.0392
     28 C          36.9472   12.6663   27.9621 C.ar      1 MOL     0.0066
     29 O          42.2326   10.6200   25.4399 O.2       1 MOL    -0.2658
     30 O          31.7421   11.5367   21.1535 O.2       1 MOL    -0.2753
     31 O          33.3771   15.8811   26.5417 O.2       1 MOL    -0.2699
     32 F          33.3345   12.4958   27.6230 F         1 MOL    -0.2047
     33 H          41.4153   11.1168   23.1011 H         1 MOL     0.0625
     34 H          40.0619   12.3600   21.4488 H         1 MOL     0.0618
     35 H          38.4702   14.0942   22.2010 H         1 MOL     0.0618
     36 H          38.1985   14.5800   24.6001 H         1 MOL     0.0624
     37 H          38.5656   15.2852   26.5022 H         1 MOL     0.0377
     38 H          38.9187   14.6890   28.1795 H         1 MOL     0.0377
     39 H          36.3891   15.4377   26.0704 H         1 MOL     0.0629
     40 H          32.9174   16.2717   24.1085 H         1 MOL     0.0480
     41 H          31.4794   15.1936   24.2612 H         1 MOL     0.0480
     42 H          33.7421   15.0248   22.1421 H         1 MOL     0.0480
     43 H          31.9956   15.3333   21.8214 H         1 MOL     0.0480
     44 H          34.2066   12.4219   23.0700 H         1 MOL     0.0480
     45 H          32.7080   11.4283   23.1391 H         1 MOL     0.0480
     46 H          33.5700   12.3295   25.4207 H         1 MOL     0.0480
     47 H          31.8719   12.8123   25.0460 H         1 MOL     0.0480
     48 H          30.7921   14.3316   20.2444 H         1 MOL     0.0394
     49 H          31.0903   13.2694   17.9485 H         1 MOL     0.0273
     50 H          32.0387   11.9064   18.7677 H         1 MOL     0.0273
     51 H          32.7522   14.9111   18.7431 H         1 MOL     0.0273
     52 H          33.7065   13.5499   19.5543 H         1 MOL     0.0273
     53 H          35.4129   11.3201   28.6412 H         1 MOL     0.0646
     54 H          37.7515   12.1124   28.4228 H         1 MOL     0.0621
     55 H          41.8783   11.3792   27.7431 H         1 MOL     0.1921
@<TRIPOS>BOND
     1    1   17 am
     2    1   18 1 
     3    1   21 1 
     4    2   19 1 
     5    2   20 1 
     6    2   22 am
     7    3    4 ar
     8    3   12 ar
     9    4    5 ar
    10    4   55 1 
    11    5    6 ar
    12    5   29 2 
    13    6    7 ar
    14    6   11 ar
    15    7    8 ar
    16    7   33 1 
    17    8    9 ar
    18    8   34 1 
    19    9   10 ar
    20    9   35 1 
    21   10   11 ar
    22   10   36 1 
    23   11   12 ar
    24   12   13 1 
    25   13   14 1 
    26   13   37 1 
    27   13   38 1 
    28   14   15 ar
    29   14   28 ar
    30   15   16 ar
    31   15   39 1 
    32   16   17 1 
    33   16   26 ar
    34   17   31 2 
    35   18   19 1 
    36   18   40 1 
    37   18   41 1 
    38   19   42 1 
    39   19   43 1 
    40   20   21 1 
    41   20   44 1 
    42   20   45 1 
    43   21   46 1 
    44   21   47 1 
    45   22   23 1 
    46   22   30 2 
    47   23   24 1 
    48   23   25 1 
    49   23   48 1 
    50   24   25 1 
    51   24   49 1 
    52   24   50 1 
    53   25   51 1 
    54   25   52 1 
    55   26   27 ar
    56   26   32 1 
    57   27   28 ar
    58   27   53 1 
    59   28   54 1 
@<TRIPOS>SUBSTRUCTURE
1 MOL         1
@<TRIPOS>MOLECULE
query molecule
   55    59     1     0     0
SMALL
NO_CHARGE

@<TRIPOS>ATOM
      1 N         -13.6530   -5.9951   19.9256 N.am      1 MOL    -0.2945
      2 N         -11.6487   -4.1501   19.9198 N.am      1 MOL    -0.2983
      3 N         -12.3378   -9.1720   13.7341 N.ar      1 MOL    -0.1750
      4 N         -11.3182   -9.9995   13.5050 N.ar      1 MOL    -0.2425
      5 C         -10.1732   -9.9353   14.3317 C.ar      1 MOL     0.2725
      6 C         -10.1314   -8.9646   15.3581 C.ar      1 MOL     0.0496
      7 C          -9.0370   -8.8908   16.2285 C.ar      1 MOL     0.0138
      8 C          -8.9877   -7.9093   17.2199 C.ar      1 MOL     0.0008
      9 C         -10.0146   -6.9717   17.3287 C.ar      1 MOL     0.0007
     10 C         -11.1048   -7.0407   16.4663 C.ar      1 MOL     0.0103
     11 C         -11.2224   -8.0541   15.5011 C.ar      1 MOL     0.0106
     12 C         -12.3665   -8.1904   14.6907 C.ar      1 MOL     0.0736
     13 C         -13.5687   -7.2989   14.7863 C.3       1 MOL     0.0925
     14 C         -14.4705   -7.5326   15.9421 C.ar      1 MOL    -0.0406
     15 C         -14.0675   -7.2125   17.2429 C.ar      1 MOL     0.0196
     16 C         -14.8925   -7.4209   18.3494 C.ar      1 MOL     0.0723
     17 C         -14.3919   -7.1198   19.7128 C.2       1 MOL     0.2495
     18 C         -12.9091   -5.8714   21.1853 C.3       1 MOL     0.1268
     19 C         -12.0072   -4.5944   21.2469 C.3       1 MOL     0.1265
     20 C         -12.7455   -3.8683   18.9932 C.3       1 MOL     0.1265
     21 C         -14.0037   -4.7498   19.2475 C.3       1 MOL     0.1268
     22 C         -10.3553   -3.9515   19.4952 C.2       1 MOL     0.2187
     23 C          -9.2625   -4.1313   20.4848 C.3       1 MOL     0.0752
     24 C          -8.1423   -3.1674   20.2728 C.3       1 MOL     0.0134
     25 C          -7.9975   -4.6025   19.8483 C.3       1 MOL     0.0134
     26 C         -16.1708   -7.9378   18.1401 C.ar      1 MOL     0.1355
     27 C         -16.6113   -8.2436   16.8494 C.ar      1 MOL     0.0392
     28 C         -15.7606   -8.0488   15.7531 C.ar      1 MOL     0.0066
     29 O          -9.2516  -10.7415   14.1071 O.2       1 MOL    -0.2658
     30 O         -10.0934   -3.6348   18.3348 O.2       1 MOL    -0.2753
     31 O         -14.5952   -7.9765   20.5814 O.2       1 MOL    -0.2699
     32 F         -17.0024   -8.1480   19.1874 F         1 MOL    -0.2047
     33 H          -8.2273   -9.5998   16.1357 H         1 MOL     0.0625
     34 H          -8.1535   -7.8732   17.9050 H         1 MOL     0.0618
     35 H          -9.9704   -6.2013   18.0840 H         1 MOL     0.0618
     36 H         -11.8968   -6.3077   16.5598 H         1 MOL     0.0624
     37 H         -14.1681   -7.4427   13.8617 H         1 MOL     0.0377
     38 H         -13.2167   -6.2488   14.8349 H         1 MOL     0.0377
     39 H         -13.0779   -6.7989   17.3965 H         1 MOL     0.0629
     40 H         -12.2808   -6.7878   21.3043 H         1 MOL     0.0480
     41 H         -13.6321   -5.8489   22.0358 H         1 MOL     0.0480
     42 H         -11.0929   -4.7642   21.8566 H         1 MOL     0.0480
     43 H         -12.5906   -3.7697   21.7294 H         1 MOL     0.0480
     44 H         -12.3702   -4.0134   17.9529 H         1 MOL     0.0480
     45 H         -13.0417   -2.7962   19.0978 H         1 MOL     0.0480
     46 H         -14.5337   -4.9802   18.2965 H         1 MOL     0.0480
     47 H         -14.7147   -4.1957   19.9091 H         1 MOL     0.0480
     48 H          -9.5509   -4.4447   21.4511 H         1 MOL     0.0394
     49 H          -7.5817   -2.8610   21.1483 H         1 MOL     0.0273
     50 H          -8.2680   -2.4389   19.4811 H         1 MOL     0.0273
     51 H          -7.3423   -5.2208   20.4508 H         1 MOL     0.0273
     52 H          -8.0292   -4.8025   18.7843 H         1 MOL     0.0273
     53 H         -17.6076   -8.6329   16.7022 H         1 MOL     0.0646
     54 H         -16.1050   -8.2938   14.7591 H         1 MOL     0.0621
     55 H         -11.2482  -10.6156   12.7061 H         1 MOL     0.1921
@<TRIPOS>BOND
     1    1   17 am
     2    1   18 1 
     3    1   21 1 
     4    2   19 1 
     5    2   20 1 
     6    2   22 am
     7    3    4 ar
     8    3   12 ar
     9    4    5 ar
    10    4   55 1 
    11    5    6 ar
    12    5   29 2 
    13    6    7 ar
    14    6   11 ar
    15    7    8 ar
    16    7   33 1 
    17    8    9 ar
    18    8   34 1 
    19    9   10 ar
    20    9   35 1 
    21   10   11 ar
    22   10   36 1 
    23   11   12 ar
    24   12   13 1 
    25   13   14 1 
    26   13   37 1 
    27   13   38 1 
    28   14   15 ar
    29   14   28 ar
    30   15   16 ar
    31   15   39 1 
    32   16   17 1 
    33   16   26 ar
    34   17   31 2 
    35   18   19 1 
    36   18   40 1 
    37   18   41 1 
    38   19   42 1 
    39   19   43 1 
    40   20   21 1 
    41   20   44 1 
    42   20   45 1 
    43   21   46 1 
    44   21   47 1 
    45   22   23 1 
    46   22   30 2 
    47   23   24 1 
    48   23   25 1 
    49   23   48 1 
    50   24   25 1 
    51   24   49 1 
    52   24   50 1 
    53   25   51 1 
    54   25   52 1 
    55   26   27 ar
    56   26   32 1 
    57   27   28 ar
    58   27   53 1 
    59   28   54 1 
@<TRIPOS>SUBSTRUCTURE
1 MOL         1
@<TRIPOS>MOLECULE
query molecule
   55    59     1     0     0
SMALL
NO_CHARGE

@<TRIPOS>ATOM
      1 N           8.6833  -14.1488    7.4816 N.am      1 MOL    -0.2945
      2 N           5.8680  -14.1583    7.9805 N.am      1 MOL    -0.2983
      3 N          10.5077  -15.9524    2.5574 N.ar      1 MOL    -0.1750
      4 N          10.8837  -15.1322    1.6002 N.ar      1 MOL    -0.2425
      5 C          11.9066  -15.5173    0.7067 C.ar      1 MOL     0.2725
      6 C          12.5027  -16.7915    0.8397 C.ar      1 MOL     0.0496
      7 C          13.4609  -17.2440   -0.0769 C.ar      1 MOL     0.0138
      8 C          14.0555  -18.4946    0.1075 C.ar      1 MOL     0.0008
      9 C          13.6985  -19.2879    1.1993 C.ar      1 MOL     0.0007
     10 C          12.7297  -18.8449    2.0997 C.ar      1 MOL     0.0103
     11 C          12.1048  -17.6030    1.9304 C.ar      1 MOL     0.0106
     12 C          11.1043  -17.1509    2.8072 C.ar      1 MOL     0.0736
     13 C          10.6795  -17.9495    3.9992 C.3       1 MOL     0.0925
     14 C          11.0086  -17.2359    5.2636 C.ar      1 MOL    -0.0406
     15 C          10.3506  -16.0496    5.6112 C.ar      1 MOL     0.0196
     16 C          10.6787  -15.3737    6.7891 C.ar      1 MOL     0.0723
     17 C           9.9860  -14.1077    7.1061 C.2       1 MOL     0.2495
     18 C           7.9569  -12.8880    7.5990 C.3       1 MOL     0.1268
     19 C           6.4579  -13.0647    7.2247 C.3       1 MOL     0.1265
     20 C           6.5885  -15.4344    7.9332 C.3       1 MOL     0.1265
     21 C           8.1128  -15.2680    8.2253 C.3       1 MOL     0.1268
     22 C           4.6835  -14.0916    8.6475 C.2       1 MOL     0.2187
     23 C           3.9147  -12.8219    8.6381 C.3       1 MOL     0.0752
     24 C           4.4959  -11.7848    9.5352 C.3       1 MOL     0.0134
     25 C           3.2770  -12.5493    9.9623 C.3       1 MOL     0.0134
     26 C          11.6610  -15.8937    7.6276 C.ar      1 MOL     0.1355
     27 C          12.3130  -17.0856    7.3025 C.ar      1 MOL     0.0392
     28 C          11.9877  -17.7580    6.1190 C.ar      1 MOL     0.0066
     29 O          12.2536  -14.7049   -0.1448 O.2       1 MOL    -0.2658
     30 O           4.1950  -15.0792    9.2213 O.2       1 MOL    -0.2753
     31 O          10.6237  -13.0690    6.9145 O.2       1 MOL    -0.2699
     32 F          11.9917  -15.2495    8.7718 F         1 MOL    -0.2047
     33 H          13.7423  -16.6372   -0.9259 H         1 MOL     0.0625
     34 H          14.7919  -18.8549   -0.5960 H         1 MOL     0.0618
     35 H          14.1649  -20.2506    1.3481 H         1 MOL     0.0618
     36 H          12.4485  -19.4673    2.9375 H         1 MOL     0.0624
     37 H          11.2141  -18.9178    3.9911 H         1 MOL     0.0377
     38 H           9.5878  -18.1027    3.9525 H         1 MOL     0.0377
     39 H           9.5936  -15.6485    4.9522 H         1 MOL     0.0629
     40 H           8.4489  -12.1175    6.9666 H         1 MOL     0.0480
     41 H           8.0247  -12.5465    8.6612 H         1 MOL     0.0480
     42 H           6.3894  -13.3177    6.1383 H         1 MOL     0.0480
     43 H           5.8748  -12.1349    7.4002 H         1 MOL     0.0480
     44 H           6.4675  -15.8591    6.9055 H         1 MOL     0.0480
     45 H           6.1200  -16.1480    8.6490 H         1 MOL     0.0480
     46 H           8.6718  -16.1989    7.9760 H         1 MOL     0.0480
     47 H           8.2526  -15.0694    9.3165 H         1 MOL     0.0480
     48 H           3.4288  -12.5764    7.7293 H         1 MOL     0.0394
     49 H           4.3263  -10.7509    9.2594 H         1 MOL     0.0273
     50 H           5.4198  -12.0256   10.0444 H         1 MOL     0.0273
     51 H           2.3325  -12.0182    9.9505 H         1 MOL     0.0273
     52 H           3.4178  -13.2868   10.7434 H         1 MOL     0.0273
     53 H          13.0657  -17.4901    7.9632 H         1 MOL     0.0646
     54 H          12.4912  -18.6804    5.8665 H         1 MOL     0.0621
     55 H          10.5367  -14.1848    1.5177 H         1 MOL     0.1921
@<TRIPOS>BOND
     1    1   17 am
     2    1   18 1 
     3    1   21 1 
     4    2   19 1 
     5    2   20 1 
     6    2   22 am
     7    3    4 ar
     8    3   12 ar
     9    4    5 ar
    10    4   55 1 
    11    5    6 ar
    12    5   29 2 
    13    6    7 ar
    14    6   11 ar
    15    7    8 ar
    16    7   33 1 
    17    8    9 ar
    18    8   34 1 
    19    9   10 ar
    20    9   35 1 
    21   10   11 ar
    22   10   36 1 
    23   11   12 ar
    24   12   13 1 
    25   13   14 1 
    26   13   37 1 
    27   13   38 1 
    28   14   15 ar
    29   14   28 ar
    30   15   16 ar
    31   15   39 1 
    32   16   17 1 
    33   16   26 ar
    34   17   31 2 
    35   18   19 1 
    36   18   40 1 
    37   18   41 1 
    38   19   42 1 
    39   19   43 1 
    40   20   21 1 
    41   20   44 1 
    42   20   45 1 
    43   21   46 1 
    44   21   47 1 
    45   22   23 1 
    46   22   30 2 
    47   23   24 1 
    48   23   25 1 
    49   23   48 1 
    50   24   25 1 
    51   24   49 1 
    52   24   50 1 
    53   25   51 1 
    54   25   52 1 
    55   26   27 ar
    56   26   32 1 
    57   27   28 ar
    58   27   53 1 
    59   28   54 1 
@<TRIPOS>SUBSTRUCTURE
1 MOL         1
@<TRIPOS>MOLECULE
query molecule
   55    59     1     0     0
SMALL
NO_CHARGE

@<TRIPOS>ATOM
      1 N          30.1436  -11.2327   17.3085 N.am      1 MOL    -0.2945
      2 N          29.9208  -11.7529   14.5164 N.am      1 MOL    -0.2983
      3 N          25.7199  -15.1499   20.7236 N.ar      1 MOL    -0.1750
      4 N          24.4426  -14.7862   20.8229 N.ar      1 MOL    -0.2425
      5 C          23.7565  -14.2282   19.7226 C.ar      1 MOL     0.2725
      6 C          24.4447  -14.1281   18.4921 C.ar      1 MOL     0.0496
      7 C          23.8162  -13.6532   17.3409 C.ar      1 MOL     0.0138
      8 C          24.4918  -13.5861   16.1229 C.ar      1 MOL     0.0008
      9 C          25.8150  -14.0175   16.0448 C.ar      1 MOL     0.0007
     10 C          26.4638  -14.4910   17.1851 C.ar      1 MOL     0.0103
     11 C          25.8068  -14.5398   18.4259 C.ar      1 MOL     0.0106
     12 C          26.4610  -14.9934   19.5876 C.ar      1 MOL     0.0736
     13 C          27.9125  -15.3336   19.6082 C.3       1 MOL     0.0925
     14 C          28.8109  -14.2290   20.0275 C.ar      1 MOL    -0.0406
     15 C          29.0562  -13.1263   19.2011 C.ar      1 MOL     0.0196
     16 C          29.9782  -12.1252   19.5591 C.ar      1 MOL     0.0723
     17 C          30.2892  -10.9901   18.6452 C.2       1 MOL     0.2495
     18 C          31.2500  -10.8034   16.4466 C.3       1 MOL     0.1268
     19 C          31.2324  -11.5841   15.0929 C.3       1 MOL     0.1265
     20 C          28.7730  -11.9678   15.4045 C.3       1 MOL     0.1265
     21 C          28.8145  -11.1245   16.7088 C.3       1 MOL     0.1268
     22 C          29.6296  -11.8641   13.1909 C.2       1 MOL     0.2187
     23 C          30.7387  -11.8681   12.2267 C.3       1 MOL     0.0752
     24 C          30.8403  -10.5375   11.5810 C.3       1 MOL     0.0134
     25 C          30.2420  -11.6946   10.8342 C.3       1 MOL     0.0134
     26 C          30.6278  -12.2363   20.7926 C.ar      1 MOL     0.1355
     27 C          30.3798  -13.3208   21.6372 C.ar      1 MOL     0.0392
     28 C          29.4724  -14.3132   21.2588 C.ar      1 MOL     0.0066
     29 O          22.5879  -13.8487   19.8961 O.2       1 MOL    -0.2658
     30 O          28.5190  -12.1658   12.8138 O.2       1 MOL    -0.2753
     31 O          30.8209   -9.9637   19.0773 O.2       1 MOL    -0.2699
     32 F          31.5223  -11.3019   21.1966 F         1 MOL    -0.2047
     33 H          22.7847  -13.3272   17.3929 H         1 MOL     0.0625
     34 H          23.9929  -13.2031   15.2454 H         1 MOL     0.0618
     35 H          26.3383  -13.9852   15.1018 H         1 MOL     0.0618
     36 H          27.4866  -14.8338   17.1144 H         1 MOL     0.0624
     37 H          28.2039  -15.6474   18.5835 H         1 MOL     0.0377
     38 H          28.0543  -16.1835   20.3112 H         1 MOL     0.0377
     39 H          28.5305  -13.0470   18.2567 H         1 MOL     0.0629
     40 H          32.2130  -10.9787   16.9581 H         1 MOL     0.0480
     41 H          31.1446   -9.7157   16.2590 H         1 MOL     0.0480
     42 H          31.5579  -12.6293   15.3127 H         1 MOL     0.0480
     43 H          31.9279  -11.1610   14.3604 H         1 MOL     0.0480
     44 H          28.8453  -13.0601   15.6246 H         1 MOL     0.0480
     45 H          27.8216  -11.8058   14.8538 H         1 MOL     0.0480
     46 H          28.0483  -11.4786   17.4077 H         1 MOL     0.0480
     47 H          28.6099  -10.0727   16.4299 H         1 MOL     0.0480
     48 H          31.5938  -12.4492   12.4658 H         1 MOL     0.0394
     49 H          31.8147  -10.2169   11.2448 H         1 MOL     0.0273
     50 H          30.1500   -9.7796   11.9228 H         1 MOL     0.0273
     51 H          30.8432  -12.1028   10.0307 H         1 MOL     0.0273
     52 H          29.1663  -11.6780   10.6964 H         1 MOL     0.0273
     53 H          30.9006  -13.3942   22.5818 H         1 MOL     0.0646
     54 H          29.2890  -15.1485   21.9200 H         1 MOL     0.0621
     55 H          23.9396  -14.8635   21.6906 H         1 MOL     0.1921
@<TRIPOS>BOND
     1    1   17 am
     2    1   18 1 
     3    1   21 1 
     4    2   19 1 
     5    2   20 1 
     6    2   22 am
     7    3    4 ar
     8    3   12 ar
     9    4    5 ar
    10    4   55 1 
    11    5    6 ar
    12    5   29 2 
    13    6    7 ar
    14    6   11 ar
    15    7    8 ar
    16    7   33 1 
    17    8    9 ar
    18    8   34 1 
    19    9   10 ar
    20    9   35 1 
    21   10   11 ar
    22   10   36 1 
    23   11   12 ar
    24   12   13 1 
    25   13   14 1 
    26   13   37 1 
    27   13   38 1 
    28   14   15 ar
    29   14   28 ar
    30   15   16 ar
    31   15   39 1 
    32   16   17 1 
    33   16   26 ar
    34   17   31 2 
    35   18   19 1 
    36   18   40 1 
    37   18   41 1 
    38   19   42 1 
    39   19   43 1 
    40   20   21 1 
    41   20   44 1 
    42   20   45 1 
    43   21   46 1 
    44   21   47 1 
    45   22   23 1 
    46   22   30 2 
    47   23   24 1 
    48   23   25 1 
    49   23   48 1 
    50   24   25 1 
    51   24   49 1 
    52   24   50 1 
    53   25   51 1 
    54   25   52 1 
    55   26   27 ar
    56   26   32 1 
    57   27   28 ar
    58   27   53 1 
    59   28   54 1 
@<TRIPOS>SUBSTRUCTURE
1 MOL         1
@<TRIPOS>MOLECULE
query molecule
   55    59     1     0     0
SMALL
NO_CHARGE

@<TRIPOS>ATOM
      1 N          -9.4696    0.6609    5.6294 N.am      1 MOL    -0.2945
      2 N          -6.9946    0.3692    4.2503 N.am      1 MOL    -0.2983
      3 N         -13.8990    2.0512    9.6167 N.ar      1 MOL    -0.1750
      4 N         -13.9231    1.8708   10.9321 N.ar      1 MOL    -0.2425
      5 C         -15.0933    1.4488   11.5911 C.ar      1 MOL     0.2725
      6 C         -16.2496    1.2452   10.8142 C.ar      1 MOL     0.0496
      7 C         -17.4526    0.8524   11.3997 C.ar      1 MOL     0.0138
      8 C         -18.5818    0.6628   10.6075 C.ar      1 MOL     0.0008
      9 C         -18.5319    0.8558    9.2300 C.ar      1 MOL     0.0007
     10 C         -17.3355    1.2440    8.6336 C.ar      1 MOL     0.0103
     11 C         -16.1770    1.4512    9.4015 C.ar      1 MOL     0.0106
     12 C         -14.9664    1.8530    8.7983 C.ar      1 MOL     0.0736
     13 C         -14.8666    2.0537    7.3136 C.3       1 MOL     0.0925
     14 C         -13.5543    2.5657    6.8525 C.ar      1 MOL    -0.0406
     15 C         -12.4350    1.7314    6.8470 C.ar      1 MOL     0.0196
     16 C         -11.1794    2.2183    6.4543 C.ar      1 MOL     0.0723
     17 C         -10.0589    1.3011    6.6452 C.2       1 MOL     0.2495
     18 C          -8.6344   -0.5005    5.9207 C.3       1 MOL     0.1268
     19 C          -7.1573   -0.2014    5.5752 C.3       1 MOL     0.1265
     20 C          -7.9737    1.3559    3.7906 C.3       1 MOL     0.1265
     21 C          -9.4413    1.0735    4.2452 C.3       1 MOL     0.1268
     22 C          -5.8989    0.0959    3.4873 C.2       1 MOL     0.2187
     23 C          -4.7693   -0.6783    4.0814 C.3       1 MOL     0.0752
     24 C          -3.9260    0.1895    4.9646 C.3       1 MOL     0.0134
     25 C          -3.4378   -0.2087    3.6033 C.3       1 MOL     0.0134
     26 C         -11.0564    3.5264    6.0106 C.ar      1 MOL     0.1355
     27 C         -12.1757    4.3677    5.9893 C.ar      1 MOL     0.0392
     28 C         -13.4217    3.8898    6.4177 C.ar      1 MOL     0.0066
     29 O         -15.0295    1.2692   12.8224 O.2       1 MOL    -0.2658
     30 O          -5.8213    0.4361    2.2920 O.2       1 MOL    -0.2753
     31 O          -9.7944    1.0948    7.8304 O.2       1 MOL    -0.2699
     32 F          -9.8547    4.0117    5.6177 F         1 MOL    -0.2047
     33 H         -17.5141    0.7018   12.4671 H         1 MOL     0.0625
     34 H         -19.5156    0.3676   11.0672 H         1 MOL     0.0618
     35 H         -19.4152    0.7074    8.6272 H         1 MOL     0.0618
     36 H         -17.2985    1.3892    7.5621 H         1 MOL     0.0624
     37 H         -15.6448    2.7809    7.0100 H         1 MOL     0.0377
     38 H         -15.0484    1.0793    6.8186 H         1 MOL     0.0377
     39 H         -12.5255    0.7031    7.1677 H         1 MOL     0.0629
     40 H          -8.9949   -1.3553    5.3008 H         1 MOL     0.0480
     41 H          -8.7480   -0.7797    6.9925 H         1 MOL     0.0480
     42 H          -6.5350   -1.1221    5.6590 H         1 MOL     0.0480
     43 H          -6.7581    0.5401    6.3133 H         1 MOL     0.0480
     44 H          -7.9016    1.4648    2.6854 H         1 MOL     0.0480
     45 H          -7.6774    2.3365    4.2446 H         1 MOL     0.0480
     46 H          -9.8639    0.2397    3.6326 H         1 MOL     0.0480
     47 H         -10.0919    1.9643    4.1068 H         1 MOL     0.0480
     48 H          -4.9577   -1.6912    4.3430 H         1 MOL     0.0394
     49 H          -3.4340   -0.2850    5.8040 H         1 MOL     0.0273
     50 H          -4.2172    1.2279    5.0829 H         1 MOL     0.0273
     51 H          -2.6413   -0.9413    3.5761 H         1 MOL     0.0273
     52 H          -3.4334    0.5637    2.8448 H         1 MOL     0.0273
     53 H         -12.0823    5.3894    5.6502 H         1 MOL     0.0646
     54 H         -14.2827    4.5423    6.4135 H         1 MOL     0.0621
     55 H         -13.1206    2.0426   11.5069 H         1 MOL     0.1921
@<TRIPOS>BOND
     1    1   17 am
     2    1   18 1 
     3    1   21 1 
     4    2   19 1 
     5    2   20 1 
     6    2   22 am
     7    3    4 ar
     8    3   12 ar
     9    4    5 ar
    10    4   55 1 
    11    5    6 ar
    12    5   29 2 
    13    6    7 ar
    14    6   11 ar
    15    7    8 ar
    16    7   33 1 
    17    8    9 ar
    18    8   34 1 
    19    9   10 ar
    20    9   35 1 
    21   10   11 ar
    22   10   36 1 
    23   11   12 ar
    24   12   13 1 
    25   13   14 1 
    26   13   37 1 
    27   13   38 1 
    28   14   15 ar
    29   14   28 ar
    30   15   16 ar
    31   15   39 1 
    32   16   17 1 
    33   16   26 ar
    34   17   31 2 
    35   18   19 1 
    36   18   40 1 
    37   18   41 1 
    38   19   42 1 
    39   19   43 1 
    40   20   21 1 
    41   20   44 1 
    42   20   45 1 
    43   21   46 1 
    44   21   47 1 
    45   22   23 1 
    46   22   30 2 
    47   23   24 1 
    48   23   25 1 
    49   23   48 1 
    50   24   25 1 
    51   24   49 1 
    52   24   50 1 
    53   25   51 1 
    54   25   52 1 
    55   26   27 ar
    56   26   32 1 
    57   27   28 ar
    58   27   53 1 
    59   28   54 1 
@<TRIPOS>SUBSTRUCTURE
1 MOL         1
@<TRIPOS>MOLECULE
query molecule
   55    59     1     0     0
SMALL
NO_CHARGE

@<TRIPOS>ATOM
      1 N          36.2247    1.6616   10.7149 N.am      1 MOL    -0.2945
      2 N          37.5115    4.0638    9.8807 N.am      1 MOL    -0.2983
      3 N          41.3312   -1.8023    9.0096 N.ar      1 MOL    -0.1750
      4 N          42.1509   -1.1035    8.2335 N.ar      1 MOL    -0.2425
      5 C          42.4143    0.2467    8.5302 C.ar      1 MOL     0.2725
      6 C          41.7944    0.8196    9.6631 C.ar      1 MOL     0.0496
      7 C          42.0059    2.1621   10.0011 C.ar      1 MOL     0.0138
      8 C          41.3792    2.7144   11.1190 C.ar      1 MOL     0.0008
      9 C          40.5521    1.9274   11.9163 C.ar      1 MOL     0.0007
     10 C          40.3467    0.5867   11.5982 C.ar      1 MOL     0.0103
     11 C          40.9368    0.0072   10.4671 C.ar      1 MOL     0.0106
     12 C          40.6970   -1.3284   10.1128 C.ar      1 MOL     0.0736
     13 C          39.7975   -2.2658   10.8520 C.3       1 MOL     0.0925
     14 C          38.3618   -2.0985   10.4963 C.ar      1 MOL    -0.0406
     15 C          37.6764   -0.9656   10.9400 C.ar      1 MOL     0.0196
     16 C          36.3363   -0.7576   10.6209 C.ar      1 MOL     0.0723
     17 C          35.7046    0.4779   11.1304 C.2       1 MOL     0.2495
     18 C          36.0246    2.8738   11.5034 C.3       1 MOL     0.1268
     19 C          37.2116    3.8698   11.2948 C.3       1 MOL     0.1265
     20 C          37.6497    2.8641    9.0554 C.3       1 MOL     0.1265
     21 C          36.4783    1.8675    9.2894 C.3       1 MOL     0.1268
     22 C          37.6932    5.2803    9.2950 C.2       1 MOL     0.2187
     23 C          37.6947    6.4860   10.1598 C.3       1 MOL     0.0752
     24 C          38.5778    7.5829    9.6813 C.3       1 MOL     0.0134
     25 C          39.0557    6.6537   10.7589 C.3       1 MOL     0.0134
     26 C          35.6571   -1.6960    9.8582 C.ar      1 MOL     0.1355
     27 C          36.3141   -2.8485    9.4170 C.ar      1 MOL     0.0392
     28 C          37.6636   -3.0478    9.7403 C.ar      1 MOL     0.0066
     29 O          43.1911    0.8649    7.7788 O.2       1 MOL    -0.2658
     30 O          37.8269    5.4179    8.0687 O.2       1 MOL    -0.2753
     31 O          34.8568    0.3533   12.0138 O.2       1 MOL    -0.2699
     32 F          34.3603   -1.4920    9.5356 F         1 MOL    -0.2047
     33 H          42.6560    2.7742    9.3927 H         1 MOL     0.0625
     34 H          41.5371    3.7534   11.3682 H         1 MOL     0.0618
     35 H          40.0674    2.3534   12.7828 H         1 MOL     0.0618
     36 H          39.7084   -0.0178   12.2275 H         1 MOL     0.0624
     37 H          39.9193   -2.0890   11.9370 H         1 MOL     0.0377
     38 H          40.0988   -3.3019   10.5988 H         1 MOL     0.0377
     39 H          38.2000   -0.2323   11.5397 H         1 MOL     0.0629
     40 H          35.9116    2.6060   12.5775 H         1 MOL     0.0480
     41 H          35.0732    3.3541   11.1695 H         1 MOL     0.0480
     42 H          38.1240    3.4538   11.7879 H         1 MOL     0.0480
     43 H          36.9952    4.8583   11.7609 H         1 MOL     0.0480
     44 H          38.6118    2.3675    9.3297 H         1 MOL     0.0480
     45 H          37.7071    3.1639    7.9839 H         1 MOL     0.0480
     46 H          36.6921    0.8859    8.8108 H         1 MOL     0.0480
     47 H          35.5437    2.2764    8.8320 H         1 MOL     0.0480
     48 H          36.8205    6.6580   10.7295 H         1 MOL     0.0394
     49 H          38.3370    8.5892   10.0034 H         1 MOL     0.0273
     50 H          39.0180    7.4651    8.6988 H         1 MOL     0.0273
     51 H          39.1162    7.0586   11.7605 H         1 MOL     0.0273
     52 H          39.8123    5.9360   10.4636 H         1 MOL     0.0273
     53 H          35.7859   -3.5837    8.8286 H         1 MOL     0.0646
     54 H          38.1736   -3.9386    9.4007 H         1 MOL     0.0621
     55 H          42.3750   -1.4392    7.3103 H         1 MOL     0.1921
@<TRIPOS>BOND
     1    1   17 am
     2    1   18 1 
     3    1   21 1 
     4    2   19 1 
     5    2   20 1 
     6    2   22 am
     7    3    4 ar
     8    3   12 ar
     9    4    5 ar
    10    4   55 1 
    11    5    6 ar
    12    5   29 2 
    13    6    7 ar
    14    6   11 ar
    15    7    8 ar
    16    7   33 1 
    17    8    9 ar
    18    8   34 1 
    19    9   10 ar
    20    9   35 1 
    21   10   11 ar
    22   10   36 1 
    23   11   12 ar
    24   12   13 1 
    25   13   14 1 
    26   13   37 1 
    27   13   38 1 
    28   14   15 ar
    29   14   28 ar
    30   15   16 ar
    31   15   39 1 
    32   16   17 1 
    33   16   26 ar
    34   17   31 2 
    35   18   19 1 
    36   18   40 1 
    37   18   41 1 
    38   19   42 1 
    39   19   43 1 
    40   20   21 1 
    41   20   44 1 
    42   20   45 1 
    43   21   46 1 
    44   21   47 1 
    45   22   23 1 
    46   22   30 2 
    47   23   24 1 
    48   23   25 1 
    49   23   48 1 
    50   24   25 1 
    51   24   49 1 
    52   24   50 1 
    53   25   51 1 
    54   25   52 1 
    55   26   27 ar
    56   26   32 1 
    57   27   28 ar
    58   27   53 1 
    59   28   54 1 
@<TRIPOS>SUBSTRUCTURE
1 MOL         1
@<TRIPOS>MOLECULE
query molecule
   55    59     1     0     0
SMALL
NO_CHARGE

@<TRIPOS>ATOM
      1 N          37.4301    2.8334   -7.1770 N.am      1 MOL    -0.2945
      2 N          39.3296    1.7019   -5.6811 N.am      1 MOL    -0.2983
      3 N          33.5397    8.6088   -4.5117 N.ar      1 MOL    -0.1750
      4 N          32.4959    9.3980   -4.3002 N.ar      1 MOL    -0.2425
      5 C          31.9814    9.5826   -2.9989 C.ar      1 MOL     0.2725
      6 C          32.6037    8.8913   -1.9332 C.ar      1 MOL     0.0496
      7 C          32.1350    9.0300   -0.6229 C.ar      1 MOL     0.0138
      8 C          32.7442    8.3297    0.4198 C.ar      1 MOL     0.0008
      9 C          33.8325    7.4934    0.1618 C.ar      1 MOL     0.0007
     10 C          34.3126    7.3530   -1.1423 C.ar      1 MOL     0.0103
     11 C          33.7104    8.0376   -2.2102 C.ar      1 MOL     0.0106
     12 C          34.1618    7.8892   -3.5338 C.ar      1 MOL     0.0736
     13 C          35.2897    6.9769   -3.8923 C.3       1 MOL     0.0925
     14 C          34.9876    6.0286   -4.9983 C.ar      1 MOL    -0.0406
     15 C          36.0512    5.5313   -5.7688 C.ar      1 MOL     0.0196
     16 C          35.8089    4.6179   -6.8026 C.ar      1 MOL     0.0723
     17 C          36.9476    4.0459   -7.5513 C.2       1 MOL     0.2495
     18 C          38.5140    2.2355   -7.9546 C.3       1 MOL     0.1268
     19 C          39.4540    1.3500   -7.0824 C.3       1 MOL     0.1265
     20 C          37.9927    1.5638   -5.1032 C.3       1 MOL     0.1265
     21 C          36.8811    2.0655   -6.0674 C.3       1 MOL     0.1268
     22 C          40.3472    2.1013   -4.8721 C.2       1 MOL     0.2187
     23 C          41.7184    2.1574   -5.4321 C.3       1 MOL     0.0752
     24 C          42.5884    3.1439   -4.7324 C.3       1 MOL     0.0134
     25 C          42.0545    3.4378   -6.1051 C.3       1 MOL     0.0134
     26 C          34.5061    4.2316   -7.1048 C.ar      1 MOL     0.1355
     27 C          33.4485    4.7078   -6.3437 C.ar      1 MOL     0.0392
     28 C          33.6937    5.5939   -5.2928 C.ar      1 MOL     0.0066
     29 O          31.0038   10.3347   -2.8642 O.2       1 MOL    -0.2658
     30 O          40.1725    2.3177   -3.6606 O.2       1 MOL    -0.2753
     31 O          37.4052    4.7154   -8.4822 O.2       1 MOL    -0.2699
     32 F          34.2574    3.3889   -8.1338 F         1 MOL    -0.2047
     33 H          31.2961    9.6820   -0.4245 H         1 MOL     0.0625
     34 H          32.3698    8.4408    1.4275 H         1 MOL     0.0618
     35 H          34.3029    6.9555    0.9715 H         1 MOL     0.0618
     36 H          35.1565    6.7068   -1.3411 H         1 MOL     0.0624
     37 H          35.5532    6.3838   -2.9938 H         1 MOL     0.0377
     38 H          36.1550    7.5981   -4.1932 H         1 MOL     0.0377
     39 H          37.0631    5.8458   -5.5578 H         1 MOL     0.0629
     40 H          39.0979    3.0639   -8.4222 H         1 MOL     0.0480
     41 H          38.0851    1.6136   -8.7733 H         1 MOL     0.0480
     42 H          40.5126    1.4257   -7.4059 H         1 MOL     0.0480
     43 H          39.1398    0.2826   -7.1962 H         1 MOL     0.0480
     44 H          37.9660    2.1318   -4.1434 H         1 MOL     0.0480
     45 H          37.8021    0.4893   -4.8698 H         1 MOL     0.0480
     46 H          36.1447    2.6982   -5.5200 H         1 MOL     0.0480
     47 H          36.3403    1.1838   -6.4847 H         1 MOL     0.0480
     48 H          42.0926    1.2236   -5.7611 H         1 MOL     0.0394
     49 H          43.6358    2.8910   -4.6220 H         1 MOL     0.0273
     50 H          42.1243    3.6896   -3.9185 H         1 MOL     0.0273
     51 H          42.7603    3.4093   -6.9279 H         1 MOL     0.0273
     52 H          41.2678    4.1777   -6.1731 H         1 MOL     0.0273
     53 H          32.4366    4.3979   -6.5616 H         1 MOL     0.0646
     54 H          32.8660    5.9570   -4.7010 H         1 MOL     0.0621
     55 H          32.0091    9.8679   -5.0431 H         1 MOL     0.1921
@<TRIPOS>BOND
     1    1   17 am
     2    1   18 1 
     3    1   21 1 
     4    2   19 1 
     5    2   20 1 
     6    2   22 am
     7    3    4 ar
     8    3   12 ar
     9    4    5 ar
    10    4   55 1 
    11    5    6 ar
    12    5   29 2 
    13    6    7 ar
    14    6   11 ar
    15    7    8 ar
    16    7   33 1 
    17    8    9 ar
    18    8   34 1 
    19    9   10 ar
    20    9   35 1 
    21   10   11 ar
    22   10   36 1 
    23   11   12 ar
    24   12   13 1 
    25   13   14 1 
    26   13   37 1 
    27   13   38 1 
    28   14   15 ar
    29   14   28 ar
    30   15   16 ar
    31   15   39 1 
    32   16   17 1 
    33   16   26 ar
    34   17   31 2 
    35   18   19 1 
    36   18   40 1 
    37   18   41 1 
    38   19   42 1 
    39   19   43 1 
    40   20   21 1 
    41   20   44 1 
    42   20   45 1 
    43   21   46 1 
    44   21   47 1 
    45   22   23 1 
    46   22   30 2 
    47   23   24 1 
    48   23   25 1 
    49   23   48 1 
    50   24   25 1 
    51   24   49 1 
    52   24   50 1 
    53   25   51 1 
    54   25   52 1 
    55   26   27 ar
    56   26   32 1 
    57   27   28 ar
    58   27   53 1 
    59   28   54 1 
@<TRIPOS>SUBSTRUCTURE
1 MOL         1
@<TRIPOS>MOLECULE
query molecule
   55    59     1     0     0
SMALL
NO_CHARGE

@<TRIPOS>ATOM
      1 N          35.2656   -2.3511   34.2818 N.am      1 MOL    -0.2945
      2 N          32.6422   -3.0487   35.1835 N.am      1 MOL    -0.2983
      3 N          36.9183   -2.8255   29.1361 N.ar      1 MOL    -0.1750
      4 N          37.6251   -3.8376   28.6604 N.ar      1 MOL    -0.2425
      5 C          37.8666   -3.9271   27.2757 C.ar      1 MOL     0.2725
      6 C          37.3107   -2.9343   26.4360 C.ar      1 MOL     0.0496
      7 C          37.4733   -3.0113   25.0525 C.ar      1 MOL     0.0138
      8 C          36.8984   -2.0475   24.2257 C.ar      1 MOL     0.0008
      9 C          36.1649   -1.0023   24.7803 C.ar      1 MOL     0.0007
     10 C          36.0061   -0.9051   26.1619 C.ar      1 MOL     0.0103
     11 C          36.5663   -1.8632   27.0162 C.ar      1 MOL     0.0106
     12 C          36.4118   -1.7890   28.4108 C.ar      1 MOL     0.0736
     13 C          35.6921   -0.6634   29.0859 C.3       1 MOL     0.0925
     14 C          36.2352   -0.3497   30.4343 C.ar      1 MOL    -0.0406
     15 C          36.0247   -1.2180   31.5182 C.ar      1 MOL     0.0196
     16 C          36.6126   -0.9761   32.7620 C.ar      1 MOL     0.0723
     17 C          36.4978   -1.9283   33.8960 C.2       1 MOL     0.2495
     18 C          35.0175   -2.4694   35.7223 C.3       1 MOL     0.1268
     19 C          33.5073   -2.2441   36.0340 C.3       1 MOL     0.1265
     20 C          33.0081   -3.2017   33.7804 C.3       1 MOL     0.1265
     21 C          34.5202   -3.3271   33.4971 C.3       1 MOL     0.1268
     22 C          31.4310   -3.5466   35.5735 C.2       1 MOL     0.2187
     23 C          30.8578   -3.0742   36.8566 C.3       1 MOL     0.0752
     24 C          31.2020   -3.9524   38.0050 C.3       1 MOL     0.0134
     25 C          29.8200   -3.9833   37.4119 C.3       1 MOL     0.0134
     26 C          37.3617    0.1967   32.9272 C.ar      1 MOL     0.1355
     27 C          37.5397    1.0919   31.8736 C.ar      1 MOL     0.0392
     28 C          36.9808    0.8193   30.6226 C.ar      1 MOL     0.0066
     29 O          38.5710   -4.8635   26.8689 O.2       1 MOL    -0.2658
     30 O          30.7583   -4.2851   34.8412 O.2       1 MOL    -0.2753
     31 O          37.5230   -2.1595   34.5499 O.2       1 MOL    -0.2699
     32 F          37.9272    0.4887   34.1248 F         1 MOL    -0.2047
     33 H          38.0381   -3.8215   24.6147 H         1 MOL     0.0625
     34 H          37.0122   -2.1211   23.1523 H         1 MOL     0.0618
     35 H          35.7153   -0.2667   24.1301 H         1 MOL     0.0618
     36 H          35.4447   -0.0795   26.5737 H         1 MOL     0.0624
     37 H          34.6325   -0.9591   29.2009 H         1 MOL     0.0377
     38 H          35.7682    0.2389   28.4511 H         1 MOL     0.0377
     39 H          35.4232   -2.1040   31.3746 H         1 MOL     0.0629
     40 H          35.6565   -1.7376   36.2646 H         1 MOL     0.0480
     41 H          35.3224   -3.4944   36.0452 H         1 MOL     0.0480
     42 H          33.2699   -1.1654   35.8599 H         1 MOL     0.0480
     43 H          33.2850   -2.4748   37.1011 H         1 MOL     0.0480
     44 H          32.6785   -2.2591   33.2686 H         1 MOL     0.0480
     45 H          32.4191   -4.0223   33.3256 H         1 MOL     0.0480
     46 H          34.7445   -3.1892   32.4155 H         1 MOL     0.0480
     47 H          34.8494   -4.3502   33.7930 H         1 MOL     0.0480
     48 H          30.7701   -2.0227   36.9645 H         1 MOL     0.0394
     49 H          31.2818   -3.4793   38.9775 H         1 MOL     0.0273
     50 H          31.8539   -4.7933   37.8073 H         1 MOL     0.0273
     51 H          29.0264   -3.5515   38.0088 H         1 MOL     0.0273
     52 H          29.5739   -4.8625   36.8279 H         1 MOL     0.0273
     53 H          38.1082    1.9967   32.0318 H         1 MOL     0.0646
     54 H          37.1296    1.5152   29.8101 H         1 MOL     0.0621
     55 H          37.8832   -4.6300   29.2201 H         1 MOL     0.1921
@<TRIPOS>BOND
     1    1   17 am
     2    1   18 1 
     3    1   21 1 
     4    2   19 1 
     5    2   20 1 
     6    2   22 am
     7    3    4 ar
     8    3   12 ar
     9    4    5 ar
    10    4   55 1 
    11    5    6 ar
    12    5   29 2 
    13    6    7 ar
    14    6   11 ar
    15    7    8 ar
    16    7   33 1 
    17    8    9 ar
    18    8   34 1 
    19    9   10 ar
    20    9   35 1 
    21   10   11 ar
    22   10   36 1 
    23   11   12 ar
    24   12   13 1 
    25   13   14 1 
    26   13   37 1 
    27   13   38 1 
    28   14   15 ar
    29   14   28 ar
    30   15   16 ar
    31   15   39 1 
    32   16   17 1 
    33   16   26 ar
    34   17   31 2 
    35   18   19 1 
    36   18   40 1 
    37   18   41 1 
    38   19   42 1 
    39   19   43 1 
    40   20   21 1 
    41   20   44 1 
    42   20   45 1 
    43   21   46 1 
    44   21   47 1 
    45   22   23 1 
    46   22   30 2 
    47   23   24 1 
    48   23   25 1 
    49   23   48 1 
    50   24   25 1 
    51   24   49 1 
    52   24   50 1 
    53   25   51 1 
    54   25   52 1 
    55   26   27 ar
    56   26   32 1 
    57   27   28 ar
    58   27   53 1 
    59   28   54 1 
@<TRIPOS>SUBSTRUCTURE
1 MOL         1
@<TRIPOS>MOLECULE
query molecule
   55    59     1     0     0
SMALL
NO_CHARGE

@<TRIPOS>ATOM
      1 N          19.7340   12.0280   -5.3088 N.am      1 MOL    -0.2945
      2 N          21.6665   12.3595   -7.4228 N.am      1 MOL    -0.2983
      3 N          14.1230   10.3047   -2.0031 N.ar      1 MOL    -0.1750
      4 N          13.6935   10.8875   -0.8883 N.ar      1 MOL    -0.2425
      5 C          12.7594   11.9416   -0.9437 C.ar      1 MOL     0.2725
      6 C          12.3219   12.3835   -2.2082 C.ar      1 MOL     0.0496
      7 C          11.4210   13.4466   -2.3156 C.ar      1 MOL     0.0138
      8 C          10.9999   13.8876   -3.5695 C.ar      1 MOL     0.0008
      9 C          11.4761   13.2657   -4.7250 C.ar      1 MOL     0.0007
     10 C          12.3748   12.2012   -4.6281 C.ar      1 MOL     0.0103
     11 C          12.8164   11.7404   -3.3778 C.ar      1 MOL     0.0106
     12 C          13.7277   10.6749   -3.2544 C.ar      1 MOL     0.0736
     13 C          14.2520    9.9652   -4.4644 C.3       1 MOL     0.0925
     14 C          15.7156    9.7596   -4.4126 C.ar      1 MOL    -0.0406
     15 C          16.5823   10.8579   -4.3511 C.ar      1 MOL     0.0196
     16 C          17.9620   10.6599   -4.3093 C.ar      1 MOL     0.0723
     17 C          18.8834   11.8191   -4.2661 C.2       1 MOL     0.2495
     18 C          20.7115   13.1137   -5.2182 C.3       1 MOL     0.1268
     19 C          21.9851   12.8404   -6.0852 C.3       1 MOL     0.1265
     20 C          20.6032   11.3626   -7.5447 C.3       1 MOL     0.1265
     21 C          19.3571   11.6539   -6.6699 C.3       1 MOL     0.1268
     22 C          22.3693   12.6921   -8.5492 C.2       1 MOL     0.2187
     23 C          23.7324   13.2580   -8.3830 C.3       1 MOL     0.0752
     24 C          23.7594   14.7265   -8.1709 C.3       1 MOL     0.0134
     25 C          24.1240   14.1553   -9.5106 C.3       1 MOL     0.0134
     26 C          18.4625    9.3607   -4.3060 C.ar      1 MOL     0.1355
     27 C          17.6158    8.2582   -4.3760 C.ar      1 MOL     0.0392
     28 C          16.2335    8.4582   -4.4375 C.ar      1 MOL     0.0066
     29 O          12.3625   12.4269    0.1299 O.2       1 MOL    -0.2658
     30 O          21.9663   12.4424   -9.6960 O.2       1 MOL    -0.2753
     31 O          18.8763   12.4942   -3.2333 O.2       1 MOL    -0.2699
     32 F          19.8011    9.1868   -4.2242 F         1 MOL    -0.2047
     33 H          11.0543   13.9292   -1.4208 H         1 MOL     0.0625
     34 H          10.3059   14.7119   -3.6440 H         1 MOL     0.0618
     35 H          11.1482   13.6111   -5.6945 H         1 MOL     0.0618
     36 H          12.7366   11.7285   -5.5317 H         1 MOL     0.0624
     37 H          14.0212   10.5820   -5.3550 H         1 MOL     0.0377
     38 H          13.7569    8.9807   -4.5451 H         1 MOL     0.0377
     39 H          16.1805   11.8606   -4.3419 H         1 MOL     0.0629
     40 H          20.9811   13.2724   -4.1512 H         1 MOL     0.0480
     41 H          20.2162   14.0470   -5.5824 H         1 MOL     0.0480
     42 H          22.6171   12.0757   -5.5734 H         1 MOL     0.0480
     43 H          22.5843   13.7747   -6.1718 H         1 MOL     0.0480
     44 H          21.0225   10.3797   -7.2041 H         1 MOL     0.0480
     45 H          20.3241   11.2533   -8.6139 H         1 MOL     0.0480
     46 H          18.6905   10.7641   -6.6306 H         1 MOL     0.0480
     47 H          18.7756   12.4953   -7.1153 H         1 MOL     0.0480
     48 H          24.4427   12.6126   -7.9305 H         1 MOL     0.0394
     49 H          24.5857   15.1149   -7.5819 H         1 MOL     0.0273
     50 H          22.8111   15.2445   -8.1020 H         1 MOL     0.0273
     51 H          25.1722   14.1641   -9.7809 H         1 MOL     0.0273
     52 H          23.4047   14.3005  -10.3061 H         1 MOL     0.0273
     53 H          18.0219    7.2586   -4.3855 H         1 MOL     0.0646
     54 H          15.5664    7.6106   -4.5002 H         1 MOL     0.0621
     55 H          14.0628   10.6755    0.0218 H         1 MOL     0.1921
@<TRIPOS>BOND
     1    1   17 am
     2    1   18 1 
     3    1   21 1 
     4    2   19 1 
     5    2   20 1 
     6    2   22 am
     7    3    4 ar
     8    3   12 ar
     9    4    5 ar
    10    4   55 1 
    11    5    6 ar
    12    5   29 2 
    13    6    7 ar
    14    6   11 ar
    15    7    8 ar
    16    7   33 1 
    17    8    9 ar
    18    8   34 1 
    19    9   10 ar
    20    9   35 1 
    21   10   11 ar
    22   10   36 1 
    23   11   12 ar
    24   12   13 1 
    25   13   14 1 
    26   13   37 1 
    27   13   38 1 
    28   14   15 ar
    29   14   28 ar
    30   15   16 ar
    31   15   39 1 
    32   16   17 1 
    33   16   26 ar
    34   17   31 2 
    35   18   19 1 
    36   18   40 1 
    37   18   41 1 
    38   19   42 1 
    39   19   43 1 
    40   20   21 1 
    41   20   44 1 
    42   20   45 1 
    43   21   46 1 
    44   21   47 1 
    45   22   23 1 
    46   22   30 2 
    47   23   24 1 
    48   23   25 1 
    49   23   48 1 
    50   24   25 1 
    51   24   49 1 
    52   24   50 1 
    53   25   51 1 
    54   25   52 1 
    55   26   27 ar
    56   26   32 1 
    57   27   28 ar
    58   27   53 1 
    59   28   54 1 
@<TRIPOS>SUBSTRUCTURE
1 MOL         1
@<TRIPOS>MOLECULE
query molecule
   55    59     1     0     0
SMALL
NO_CHARGE

@<TRIPOS>ATOM
      1 N          36.9489   12.5887   36.1459 N.am      1 MOL    -0.2945
      2 N          34.4670   13.5515   35.0826 N.am      1 MOL    -0.2983
      3 N          35.6797    7.3996   34.5554 N.ar      1 MOL    -0.1750
      4 N          34.4989    6.8240   34.7153 N.ar      1 MOL    -0.2425
      5 C          34.3923    5.4542   35.0432 C.ar      1 MOL     0.2725
      6 C          35.5796    4.7006   35.1698 C.ar      1 MOL     0.0496
      7 C          35.5279    3.3323   35.4534 C.ar      1 MOL     0.0138
      8 C          36.7043    2.5866   35.5374 C.ar      1 MOL     0.0008
      9 C          37.9410    3.2041   35.3411 C.ar      1 MOL     0.0007
     10 C          38.0033    4.5729   35.0675 C.ar      1 MOL     0.0103
     11 C          36.8329    5.3464   34.9833 C.ar      1 MOL     0.0106
     12 C          36.8610    6.7283   34.7239 C.ar      1 MOL     0.0736
     13 C          38.1617    7.4659   34.6417 C.3       1 MOL     0.0925
     14 C          38.2982    8.3788   35.8046 C.ar      1 MOL    -0.0406
     15 C          38.1499    9.7596   35.6292 C.ar      1 MOL     0.0196
     16 C          38.2907   10.6257   36.7208 C.ar      1 MOL     0.0723
     17 C          38.1443   12.0903   36.5529 C.2       1 MOL     0.2495
     18 C          36.8330   14.0078   35.8247 C.3       1 MOL     0.1268
     19 C          35.6838   14.2935   34.8159 C.3       1 MOL     0.1265
     20 C          34.5772   12.1924   35.5837 C.3       1 MOL     0.1265
     21 C          35.7086   11.9753   36.6027 C.3       1 MOL     0.1268
     22 C          33.2114   13.9709   34.7621 C.2       1 MOL     0.2187
     23 C          33.0631   15.0831   33.7916 C.3       1 MOL     0.0752
     24 C          32.0088   14.8125   32.7733 C.3       1 MOL     0.0134
     25 C          33.4484   14.5804   32.4335 C.3       1 MOL     0.0134
     26 C          38.5743   10.1014   37.9838 C.ar      1 MOL     0.1355
     27 C          38.7120    8.7259   38.1696 C.ar      1 MOL     0.0392
     28 C          38.5771    7.8643   37.0778 C.ar      1 MOL     0.0066
     29 O          33.2607    4.9751   35.1977 O.2       1 MOL    -0.2658
     30 O          32.1873   13.4249   35.2013 O.2       1 MOL    -0.2753
     31 O          39.1554   12.7753   36.7343 O.2       1 MOL    -0.2699
     32 F          38.7100   10.9258   39.0503 F         1 MOL    -0.2047
     33 H          34.5726    2.8498   35.5988 H         1 MOL     0.0625
     34 H          36.6571    1.5286   35.7513 H         1 MOL     0.0618
     35 H          38.8483    2.6198   35.4012 H         1 MOL     0.0618
     36 H          38.9693    5.0364   34.9173 H         1 MOL     0.0624
     37 H          38.1888    8.0602   33.7137 H         1 MOL     0.0377
     38 H          38.9920    6.7376   34.6663 H         1 MOL     0.0377
     39 H          37.9299   10.1544   34.6482 H         1 MOL     0.0629
     40 H          37.8048   14.3576   35.4083 H         1 MOL     0.0480
     41 H          36.6538   14.5589   36.7781 H         1 MOL     0.0480
     42 H          36.0427   13.9783   33.8049 H         1 MOL     0.0480
     43 H          35.4438   15.3799   34.7621 H         1 MOL     0.0480
     44 H          34.8001   11.5265   34.7083 H         1 MOL     0.0480
     45 H          33.5861   11.8867   35.9895 H         1 MOL     0.0480
     46 H          35.8747   10.8863   36.7681 H         1 MOL     0.0480
     47 H          35.4365   12.4343   37.5803 H         1 MOL     0.0480
     48 H          33.3409   16.0455   34.1160 H         1 MOL     0.0394
     49 H          31.5456   15.6736   32.3066 H         1 MOL     0.0273
     50 H          31.4023   13.9270   32.9274 H         1 MOL     0.0273
     51 H          33.9360   15.2781   31.7684 H         1 MOL     0.0273
     52 H          33.7639   13.5441   32.3807 H         1 MOL     0.0273
     53 H          38.9194    8.3320   39.1537 H         1 MOL     0.0646
     54 H          38.6858    6.7990   37.2216 H         1 MOL     0.0621
     55 H          33.6349    7.3317   34.6266 H         1 MOL     0.1921
@<TRIPOS>BOND
     1    1   17 am
     2    1   18 1 
     3    1   21 1 
     4    2   19 1 
     5    2   20 1 
     6    2   22 am
     7    3    4 ar
     8    3   12 ar
     9    4    5 ar
    10    4   55 1 
    11    5    6 ar
    12    5   29 2 
    13    6    7 ar
    14    6   11 ar
    15    7    8 ar
    16    7   33 1 
    17    8    9 ar
    18    8   34 1 
    19    9   10 ar
    20    9   35 1 
    21   10   11 ar
    22   10   36 1 
    23   11   12 ar
    24   12   13 1 
    25   13   14 1 
    26   13   37 1 
    27   13   38 1 
    28   14   15 ar
    29   14   28 ar
    30   15   16 ar
    31   15   39 1 
    32   16   17 1 
    33   16   26 ar
    34   17   31 2 
    35   18   19 1 
    36   18   40 1 
    37   18   41 1 
    38   19   42 1 
    39   19   43 1 
    40   20   21 1 
    41   20   44 1 
    42   20   45 1 
    43   21   46 1 
    44   21   47 1 
    45   22   23 1 
    46   22   30 2 
    47   23   24 1 
    48   23   25 1 
    49   23   48 1 
    50   24   25 1 
    51   24   49 1 
    52   24   50 1 
    53   25   51 1 
    54   25   52 1 
    55   26   27 ar
    56   26   32 1 
    57   27   28 ar
    58   27   53 1 
    59   28   54 1 
@<TRIPOS>SUBSTRUCTURE
1 MOL         1
@<TRIPOS>MOLECULE
query molecule
   55    59     1     0     0
SMALL
NO_CHARGE

@<TRIPOS>ATOM
      1 N          -9.0255   -4.9532   25.8708 N.am      1 MOL    -0.2945
      2 N          -8.6450   -3.6315   23.3531 N.am      1 MOL    -0.2983
      3 N          -7.2703   -0.6293   28.3456 N.ar      1 MOL    -0.1750
      4 N          -7.7074    0.5896   28.0431 N.ar      1 MOL    -0.2425
      5 C          -7.4691    1.6744   28.9163 C.ar      1 MOL     0.2725
      6 C          -6.7369    1.4330   30.0965 C.ar      1 MOL     0.0496
      7 C          -6.3731    2.4890   30.9397 C.ar      1 MOL     0.0138
      8 C          -5.6068    2.2546   32.0800 C.ar      1 MOL     0.0008
      9 C          -5.2103    0.9536   32.3964 C.ar      1 MOL     0.0007
     10 C          -5.5690   -0.1120   31.5650 C.ar      1 MOL     0.0103
     11 C          -6.3234    0.1028   30.3987 C.ar      1 MOL     0.0106
     12 C          -6.6441   -0.9434   29.5167 C.ar      1 MOL     0.0736
     13 C          -6.2881   -2.3671   29.8179 C.3       1 MOL     0.0925
     14 C          -7.4800   -3.2402   29.6547 C.ar      1 MOL    -0.0406
     15 C          -7.6307   -3.9898   28.4838 C.ar      1 MOL     0.0196
     16 C          -8.7532   -4.8081   28.3050 C.ar      1 MOL     0.0723
     17 C          -8.8929   -5.5919   27.0582 C.2       1 MOL     0.2495
     18 C          -9.0490   -5.7453   24.6391 C.3       1 MOL     0.1268
     19 C          -8.2471   -5.0217   23.5088 C.3       1 MOL     0.1265
     20 C          -8.7962   -2.8366   24.5765 C.3       1 MOL     0.1265
     21 C          -9.5185   -3.5888   25.7331 C.3       1 MOL     0.1268
     22 C          -8.8096   -2.9884   22.1577 C.2       1 MOL     0.2187
     23 C          -8.6559   -3.7576   20.8926 C.3       1 MOL     0.0752
     24 C          -7.2451   -3.8695   20.4313 C.3       1 MOL     0.0134
     25 C          -8.1671   -2.8783   19.7831 C.3       1 MOL     0.0134
     26 C          -9.7165   -4.8830   29.3138 C.ar      1 MOL     0.1355
     27 C          -9.5728   -4.1393   30.4879 C.ar      1 MOL     0.0392
     28 C          -8.4535   -3.3177   30.6585 C.ar      1 MOL     0.0066
     29 O          -7.9110    2.7909   28.5992 O.2       1 MOL    -0.2658
     30 O          -9.1447   -1.7960   22.0982 O.2       1 MOL    -0.2753
     31 O          -8.8112   -6.8200   27.1711 O.2       1 MOL    -0.2699
     32 F         -10.8073   -5.6733   29.1657 F         1 MOL    -0.2047
     33 H          -6.6773    3.4966   30.6953 H         1 MOL     0.0625
     34 H          -5.3220    3.0776   32.7188 H         1 MOL     0.0618
     35 H          -4.6261    0.7711   33.2866 H         1 MOL     0.0618
     36 H          -5.2489   -1.1133   31.8196 H         1 MOL     0.0624
     37 H          -5.9457   -2.4320   30.8661 H         1 MOL     0.0377
     38 H          -5.4987   -2.7033   29.1258 H         1 MOL     0.0377
     39 H          -6.8776   -3.9412   27.7108 H         1 MOL     0.0629
     40 H         -10.1142   -5.8836   24.3308 H         1 MOL     0.0480
     41 H          -8.6241   -6.7546   24.8524 H         1 MOL     0.0480
     42 H          -8.3251   -5.5521   22.5368 H         1 MOL     0.0480
     43 H          -7.1733   -5.0284   23.8279 H         1 MOL     0.0480
     44 H          -9.3230   -1.8861   24.3340 H         1 MOL     0.0480
     45 H          -7.7698   -2.5692   24.9238 H         1 MOL     0.0480
     46 H         -10.6135   -3.6362   25.5174 H         1 MOL     0.0480
     47 H          -9.3841   -3.0501   26.6999 H         1 MOL     0.0480
     48 H          -9.3755   -4.5103   20.7071 H         1 MOL     0.0394
     49 H          -6.9715   -4.7150   19.8124 H         1 MOL     0.0273
     50 H          -6.4742   -3.4375   21.0605 H         1 MOL     0.0273
     51 H          -8.4912   -3.1164   18.7760 H         1 MOL     0.0273
     52 H          -7.9799   -1.8358   20.0130 H         1 MOL     0.0273
     53 H         -10.3241   -4.1974   31.2623 H         1 MOL     0.0646
     54 H          -8.3430   -2.7416   31.5654 H         1 MOL     0.0621
     55 H          -8.0094    0.8322   27.1118 H         1 MOL     0.1921
@<TRIPOS>BOND
     1    1   17 am
     2    1   18 1 
     3    1   21 1 
     4    2   19 1 
     5    2   20 1 
     6    2   22 am
     7    3    4 ar
     8    3   12 ar
     9    4    5 ar
    10    4   55 1 
    11    5    6 ar
    12    5   29 2 
    13    6    7 ar
    14    6   11 ar
    15    7    8 ar
    16    7   33 1 
    17    8    9 ar
    18    8   34 1 
    19    9   10 ar
    20    9   35 1 
    21   10   11 ar
    22   10   36 1 
    23   11   12 ar
    24   12   13 1 
    25   13   14 1 
    26   13   37 1 
    27   13   38 1 
    28   14   15 ar
    29   14   28 ar
    30   15   16 ar
    31   15   39 1 
    32   16   17 1 
    33   16   26 ar
    34   17   31 2 
    35   18   19 1 
    36   18   40 1 
    37   18   41 1 
    38   19   42 1 
    39   19   43 1 
    40   20   21 1 
    41   20   44 1 
    42   20   45 1 
    43   21   46 1 
    44   21   47 1 
    45   22   23 1 
    46   22   30 2 
    47   23   24 1 
    48   23   25 1 
    49   23   48 1 
    50   24   25 1 
    51   24   49 1 
    52   24   50 1 
    53   25   51 1 
    54   25   52 1 
    55   26   27 ar
    56   26   32 1 
    57   27   28 ar
    58   27   53 1 
    59   28   54 1 
@<TRIPOS>SUBSTRUCTURE
1 MOL         1
@<TRIPOS>MOLECULE
query molecule
   55    59     1     0     0
SMALL
NO_CHARGE

@<TRIPOS>ATOM
      1 N          31.3418    6.8748   14.4564 N.am      1 MOL    -0.2945
      2 N          28.6714    7.6440   13.7437 N.am      1 MOL    -0.2983
      3 N          35.6470    6.7776   19.7470 N.ar      1 MOL    -0.1750
      4 N          35.7694    5.6196   20.3850 N.ar      1 MOL    -0.2425
      5 C          34.7091    5.0981   21.1579 C.ar      1 MOL     0.2725
      6 C          33.5125    5.8420   21.2511 C.ar      1 MOL     0.0496
      7 C          32.4305    5.3879   22.0075 C.ar      1 MOL     0.0138
      8 C          31.2595    6.1399   22.0828 C.ar      1 MOL     0.0008
      9 C          31.1648    7.3596   21.4119 C.ar      1 MOL     0.0007
     10 C          32.2409    7.8272   20.6571 C.ar      1 MOL     0.0103
     11 C          33.4280    7.0844   20.5576 C.ar      1 MOL     0.0106
     12 C          34.5149    7.5353   19.7867 C.ar      1 MOL     0.0736
     13 C          34.4665    8.8178   19.0214 C.3       1 MOL     0.0925
     14 C          34.3603    8.6360   17.5536 C.ar      1 MOL    -0.0406
     15 C          33.5039    7.6913   16.9761 C.ar      1 MOL     0.0196
     16 C          33.4172    7.5531   15.5802 C.ar      1 MOL     0.0723
     17 C          32.5079    6.5168   15.0434 C.2       1 MOL     0.2495
     18 C          30.3256    5.8422   14.2602 C.3       1 MOL     0.1268
     19 C          28.8894    6.4038   14.4744 C.3       1 MOL     0.1265
     20 C          29.7343    8.6532   13.7935 C.3       1 MOL     0.1265
     21 C          31.1635    8.0602   13.6366 C.3       1 MOL     0.1268
     22 C          27.5036    7.9729   13.1170 C.2       1 MOL     0.2187
     23 C          26.2868    7.1690   13.3905 C.3       1 MOL     0.0752
     24 C          26.2142    5.8662   12.6816 C.3       1 MOL     0.0134
     25 C          25.4243    7.0364   12.1774 C.3       1 MOL     0.0134
     26 C          34.2019    8.3696   14.7700 C.ar      1 MOL     0.1355
     27 C          35.0562    9.3232   15.3306 C.ar      1 MOL     0.0392
     28 C          35.1374    9.4550   16.7204 C.ar      1 MOL     0.0066
     29 O          34.8779    3.9956   21.7043 O.2       1 MOL    -0.2658
     30 O          27.3969    8.9875   12.4067 O.2       1 MOL    -0.2753
     31 O          32.8149    5.3455   15.2975 O.2       1 MOL    -0.2699
     32 F          34.1548    8.2470   13.4218 F         1 MOL    -0.2047
     33 H          32.4978    4.4451   22.5309 H         1 MOL     0.0625
     34 H          30.4210    5.7777   22.6593 H         1 MOL     0.0618
     35 H          30.2567    7.9418   21.4713 H         1 MOL     0.0618
     36 H          32.1604    8.7735   20.1386 H         1 MOL     0.0624
     37 H          35.4002    9.3770   19.2318 H         1 MOL     0.0377
     38 H          33.5917    9.3999   19.3672 H         1 MOL     0.0377
     39 H          32.9027    7.0590   17.6148 H         1 MOL     0.0629
     40 H          30.5306    4.9913   14.9483 H         1 MOL     0.0480
     41 H          30.4237    5.4645   13.2124 H         1 MOL     0.0480
     42 H          28.7417    6.6100   15.5617 H         1 MOL     0.0480
     43 H          28.1243    5.6567   14.1599 H         1 MOL     0.0480
     44 H          29.6784    9.1483   14.7958 H         1 MOL     0.0480
     45 H          29.5360    9.4338   13.0239 H         1 MOL     0.0480
     46 H          31.9366    8.8154   13.9072 H         1 MOL     0.0480
     47 H          31.3286    7.7701   12.5705 H         1 MOL     0.0480
     48 H          25.8498    7.3204   14.3478 H         1 MOL     0.0394
     49 H          25.6431    5.0873   13.1771 H         1 MOL     0.0273
     50 H          27.0798    5.5643   12.1096 H         1 MOL     0.0273
     51 H          24.3542    7.0257   12.3493 H         1 MOL     0.0273
     52 H          25.7763    7.5048   11.2668 H         1 MOL     0.0273
     53 H          35.6538    9.9565   14.6917 H         1 MOL     0.0646
     54 H          35.8004   10.1906   17.1527 H         1 MOL     0.0621
     55 H          36.6069    5.0654   20.3387 H         1 MOL     0.1921
@<TRIPOS>BOND
     1    1   17 am
     2    1   18 1 
     3    1   21 1 
     4    2   19 1 
     5    2   20 1 
     6    2   22 am
     7    3    4 ar
     8    3   12 ar
     9    4    5 ar
    10    4   55 1 
    11    5    6 ar
    12    5   29 2 
    13    6    7 ar
    14    6   11 ar
    15    7    8 ar
    16    7   33 1 
    17    8    9 ar
    18    8   34 1 
    19    9   10 ar
    20    9   35 1 
    21   10   11 ar
    22   10   36 1 
    23   11   12 ar
    24   12   13 1 
    25   13   14 1 
    26   13   37 1 
    27   13   38 1 
    28   14   15 ar
    29   14   28 ar
    30   15   16 ar
    31   15   39 1 
    32   16   17 1 
    33   16   26 ar
    34   17   31 2 
    35   18   19 1 
    36   18   40 1 
    37   18   41 1 
    38   19   42 1 
    39   19   43 1 
    40   20   21 1 
    41   20   44 1 
    42   20   45 1 
    43   21   46 1 
    44   21   47 1 
    45   22   23 1 
    46   22   30 2 
    47   23   24 1 
    48   23   25 1 
    49   23   48 1 
    50   24   25 1 
    51   24   49 1 
    52   24   50 1 
    53   25   51 1 
    54   25   52 1 
    55   26   27 ar
    56   26   32 1 
    57   27   28 ar
    58   27   53 1 
    59   28   54 1 
@<TRIPOS>SUBSTRUCTURE
1 MOL         1
@<TRIPOS>MOLECULE
query molecule
   55    59     1     0     0
SMALL
NO_CHARGE

@<TRIPOS>ATOM
      1 N          -5.6060   13.5179   21.9781 N.am      1 MOL    -0.2945
      2 N          -7.0729   11.1595   21.2535 N.am      1 MOL    -0.2983
      3 N           0.9425   14.4554   25.6112 N.ar      1 MOL    -0.1750
      4 N           2.2531   14.4694   25.8387 N.ar      1 MOL    -0.2425
      5 C           2.7756   14.6385   27.1281 C.ar      1 MOL     0.2725
      6 C           1.8628   14.8625   28.1788 C.ar      1 MOL     0.0496
      7 C           2.3126   15.1002   29.4807 C.ar      1 MOL     0.0138
      8 C           1.4021   15.2942   30.5190 C.ar      1 MOL     0.0008
      9 C           0.0324   15.2801   30.2570 C.ar      1 MOL     0.0007
     10 C          -0.4293   15.0639   28.9580 C.ar      1 MOL     0.0103
     11 C           0.4642   14.8443   27.8945 C.ar      1 MOL     0.0106
     12 C          -0.0004   14.6045   26.5799 C.ar      1 MOL     0.0736
     13 C          -1.4578   14.4912   26.3139 C.3       1 MOL     0.0925
     14 C          -1.9871   14.8029   24.9799 C.ar      1 MOL    -0.0406
     15 C          -3.2562   14.2709   24.6760 C.ar      1 MOL     0.0196
     16 C          -3.8659   14.4853   23.4263 C.ar      1 MOL     0.0723
     17 C          -5.2365   13.9605   23.2053 C.2       1 MOL     0.2495
     18 C          -6.9786   13.6697   21.5090 C.3       1 MOL     0.1268
     19 C          -7.7944   12.3495   21.6833 C.3       1 MOL     0.1265
     20 C          -5.6280   11.0885   21.4783 C.3       1 MOL     0.1265
     21 C          -4.8760   12.4424   21.3223 C.3       1 MOL     0.1268
     22 C          -7.6735   10.0258   20.7820 C.2       1 MOL     0.2187
     23 C          -9.1582    9.9698   20.7100 C.3       1 MOL     0.0752
     24 C          -9.6178    9.0441   19.6319 C.3       1 MOL     0.0134
     25 C          -9.7360   10.5283   19.4571 C.3       1 MOL     0.0134
     26 C          -3.1718   15.2255   22.4710 C.ar      1 MOL     0.1355
     27 C          -1.9253   15.7845   22.7666 C.ar      1 MOL     0.0392
     28 C          -1.3454   15.5769   24.0223 C.ar      1 MOL     0.0066
     29 O           4.0085   14.5596   27.2755 O.2       1 MOL    -0.2658
     30 O          -7.0239    9.0048   20.4933 O.2       1 MOL    -0.2753
     31 O          -6.0286   14.0505   24.1524 O.2       1 MOL    -0.2699
     32 F          -3.7028   15.4400   21.2439 F         1 MOL    -0.2047
     33 H           3.3736   15.1187   29.6868 H         1 MOL     0.0625
     34 H           1.7569   15.4555   31.5260 H         1 MOL     0.0618
     35 H          -0.6725   15.4432   31.0594 H         1 MOL     0.0618
     36 H          -1.4942   15.0687   28.7659 H         1 MOL     0.0624
     37 H          -1.9758   15.1605   27.0373 H         1 MOL     0.0377
     38 H          -1.7479   13.4393   26.5410 H         1 MOL     0.0377
     39 H          -3.7783   13.6877   25.4246 H         1 MOL     0.0629
     40 H          -6.9355   13.9260   20.4208 H         1 MOL     0.0480
     41 H          -7.4584   14.5226   22.0380 H         1 MOL     0.0480
     42 H          -8.7678   12.4088   21.1501 H         1 MOL     0.0480
     43 H          -8.0146   12.2376   22.7756 H         1 MOL     0.0480
     44 H          -5.1938   10.2941   20.8333 H         1 MOL     0.0480
     45 H          -5.4871   10.7651   22.5438 H         1 MOL     0.0480
     46 H          -4.7717   12.6951   20.2408 H         1 MOL     0.0480
     47 H          -3.8541   12.3718   21.7614 H         1 MOL     0.0480
     48 H          -9.6714   10.0273   21.6375 H         1 MOL     0.0394
     49 H         -10.5275    8.4832   19.8236 H         1 MOL     0.0273
     50 H          -8.8459    8.5494   19.0570 H         1 MOL     0.0273
     51 H         -10.7556   10.9022   19.4970 H         1 MOL     0.0273
     52 H          -9.0683   10.9850   18.7440 H         1 MOL     0.0273
     53 H          -1.4100   16.3764   22.0252 H         1 MOL     0.0646
     54 H          -0.3865   16.0281   24.2501 H         1 MOL     0.0621
     55 H           2.9194   14.3763   25.0882 H         1 MOL     0.1921
@<TRIPOS>BOND
     1    1   17 am
     2    1   18 1 
     3    1   21 1 
     4    2   19 1 
     5    2   20 1 
     6    2   22 am
     7    3    4 ar
     8    3   12 ar
     9    4    5 ar
    10    4   55 1 
    11    5    6 ar
    12    5   29 2 
    13    6    7 ar
    14    6   11 ar
    15    7    8 ar
    16    7   33 1 
    17    8    9 ar
    18    8   34 1 
    19    9   10 ar
    20    9   35 1 
    21   10   11 ar
    22   10   36 1 
    23   11   12 ar
    24   12   13 1 
    25   13   14 1 
    26   13   37 1 
    27   13   38 1 
    28   14   15 ar
    29   14   28 ar
    30   15   16 ar
    31   15   39 1 
    32   16   17 1 
    33   16   26 ar
    34   17   31 2 
    35   18   19 1 
    36   18   40 1 
    37   18   41 1 
    38   19   42 1 
    39   19   43 1 
    40   20   21 1 
    41   20   44 1 
    42   20   45 1 
    43   21   46 1 
    44   21   47 1 
    45   22   23 1 
    46   22   30 2 
    47   23   24 1 
    48   23   25 1 
    49   23   48 1 
    50   24   25 1 
    51   24   49 1 
    52   24   50 1 
    53   25   51 1 
    54   25   52 1 
    55   26   27 ar
    56   26   32 1 
    57   27   28 ar
    58   27   53 1 
    59   28   54 1 
@<TRIPOS>SUBSTRUCTURE
1 MOL         1
@<TRIPOS>MOLECULE
query molecule
   55    59     1     0     0
SMALL
NO_CHARGE

@<TRIPOS>ATOM
      1 N          37.4044    4.9604   -5.6455 N.am      1 MOL    -0.2945
      2 N          34.9940    6.3554   -4.9632 N.am      1 MOL    -0.2983
      3 N          42.7789    0.3954   -7.4132 N.ar      1 MOL    -0.1750
      4 N          43.4574   -0.6423   -6.9402 N.ar      1 MOL    -0.2425
      5 C          43.3448   -1.9144   -7.5428 C.ar      1 MOL     0.2725
      6 C          42.5660   -2.0329   -8.7108 C.ar      1 MOL     0.0496
      7 C          42.5154   -3.2366   -9.4226 C.ar      1 MOL     0.0138
      8 C          41.6853   -3.3628  -10.5356 C.ar      1 MOL     0.0008
      9 C          40.8965   -2.2869  -10.9453 C.ar      1 MOL     0.0007
     10 C          40.9669   -1.0707  -10.2645 C.ar      1 MOL     0.0103
     11 C          41.8121   -0.9094   -9.1561 C.ar      1 MOL     0.0106
     12 C          41.9234    0.3137   -8.4738 C.ar      1 MOL     0.0736
     13 C          41.1352    1.5216   -8.8783 C.3       1 MOL     0.0925
     14 C          39.9036    1.6520   -8.0538 C.ar      1 MOL    -0.0406
     15 C          39.7208    2.7908   -7.2630 C.ar      1 MOL     0.0196
     16 C          38.5832    2.9378   -6.4447 C.ar      1 MOL     0.0723
     17 C          38.5059    4.1812   -5.6598 C.2       1 MOL     0.2495
     18 C          37.4895    6.2374   -4.9191 C.3       1 MOL     0.1268
     19 C          36.1746    6.5269   -4.1319 C.3       1 MOL     0.1265
     20 C          34.9313    5.1359   -5.7799 C.3       1 MOL     0.1265
     21 C          36.2731    4.8753   -6.5497 C.3       1 MOL     0.1268
     22 C          33.9358    7.2178   -4.9775 C.2       1 MOL     0.2187
     23 C          34.0323    8.4719   -4.1851 C.3       1 MOL     0.0752
     24 C          33.6493    8.3115   -2.7593 C.3       1 MOL     0.0134
     25 C          32.6738    8.9058   -3.7449 C.3       1 MOL     0.0134
     26 C          37.6506    1.9074   -6.4099 C.ar      1 MOL     0.1355
     27 C          37.8029    0.7799   -7.2271 C.ar      1 MOL     0.0392
     28 C          38.9206    0.6569   -8.0522 C.ar      1 MOL     0.0066
     29 O          43.8781   -2.8786   -6.9731 O.2       1 MOL    -0.2658
     30 O          32.8900    6.9638   -5.5863 O.2       1 MOL    -0.2753
     31 O          39.5321    4.4650   -5.0250 O.2       1 MOL    -0.2699
     32 F          36.5819    1.9545   -5.5846 F         1 MOL    -0.2047
     33 H          43.1243   -4.0683   -9.1027 H         1 MOL     0.0625
     34 H          41.6551   -4.2952  -11.0787 H         1 MOL     0.0618
     35 H          40.2328   -2.3966  -11.7899 H         1 MOL     0.0618
     36 H          40.3601   -0.2383  -10.5973 H         1 MOL     0.0624
     37 H          40.8504    1.4228   -9.9396 H         1 MOL     0.0377
     38 H          41.7606    2.4201   -8.7254 H         1 MOL     0.0377
     39 H          40.4666    3.5733   -7.2837 H         1 MOL     0.0629
     40 H          37.6624    7.0506   -5.6658 H         1 MOL     0.0480
     41 H          38.3684    6.2103   -4.2328 H         1 MOL     0.0480
     42 H          36.1881    7.5507   -3.7085 H         1 MOL     0.0480
     43 H          36.1194    5.7971   -3.2869 H         1 MOL     0.0480
     44 H          34.0616    5.2032   -6.4724 H         1 MOL     0.0480
     45 H          34.7565    4.2697   -5.0960 H         1 MOL     0.0480
     46 H          36.3996    5.6666   -7.3376 H         1 MOL     0.0480
     47 H          36.2630    3.8890   -7.0485 H         1 MOL     0.0480
     48 H          34.7454    9.1849   -4.5051 H         1 MOL     0.0394
     49 H          34.0973    8.9970   -2.0463 H         1 MOL     0.0273
     50 H          33.4563    7.3017   -2.4135 H         1 MOL     0.0273
     51 H          32.4820    9.9636   -3.6427 H         1 MOL     0.0273
     52 H          31.8316    8.2590   -3.9980 H         1 MOL     0.0273
     53 H          37.0560   -0.0013   -7.2193 H         1 MOL     0.0646
     54 H          39.0364   -0.2104   -8.6859 H         1 MOL     0.0621
     55 H          44.0674   -0.5769   -6.1408 H         1 MOL     0.1921
@<TRIPOS>BOND
     1    1   17 am
     2    1   18 1 
     3    1   21 1 
     4    2   19 1 
     5    2   20 1 
     6    2   22 am
     7    3    4 ar
     8    3   12 ar
     9    4    5 ar
    10    4   55 1 
    11    5    6 ar
    12    5   29 2 
    13    6    7 ar
    14    6   11 ar
    15    7    8 ar
    16    7   33 1 
    17    8    9 ar
    18    8   34 1 
    19    9   10 ar
    20    9   35 1 
    21   10   11 ar
    22   10   36 1 
    23   11   12 ar
    24   12   13 1 
    25   13   14 1 
    26   13   37 1 
    27   13   38 1 
    28   14   15 ar
    29   14   28 ar
    30   15   16 ar
    31   15   39 1 
    32   16   17 1 
    33   16   26 ar
    34   17   31 2 
    35   18   19 1 
    36   18   40 1 
    37   18   41 1 
    38   19   42 1 
    39   19   43 1 
    40   20   21 1 
    41   20   44 1 
    42   20   45 1 
    43   21   46 1 
    44   21   47 1 
    45   22   23 1 
    46   22   30 2 
    47   23   24 1 
    48   23   25 1 
    49   23   48 1 
    50   24   25 1 
    51   24   49 1 
    52   24   50 1 
    53   25   51 1 
    54   25   52 1 
    55   26   27 ar
    56   26   32 1 
    57   27   28 ar
    58   27   53 1 
    59   28   54 1 
@<TRIPOS>SUBSTRUCTURE
1 MOL         1
@<TRIPOS>MOLECULE
query molecule
   55    59     1     0     0
SMALL
NO_CHARGE

@<TRIPOS>ATOM
      1 N          18.4868  -14.8339   -4.3138 N.am      1 MOL    -0.2945
      2 N          20.8408  -16.0279   -3.2533 N.am      1 MOL    -0.2983
      3 N          12.1434  -16.1059   -2.1130 N.ar      1 MOL    -0.1750
      4 N          11.6218  -15.3001   -1.1915 N.ar      1 MOL    -0.2425
      5 C          12.0040  -15.4010    0.1618 C.ar      1 MOL     0.2725
      6 C          12.8589  -16.4585    0.5305 C.ar      1 MOL     0.0496
      7 C          13.1572  -16.6932    1.8733 C.ar      1 MOL     0.0138
      8 C          13.9914  -17.7532    2.2309 C.ar      1 MOL     0.0008
      9 C          14.5384  -18.5756    1.2458 C.ar      1 MOL     0.0007
     10 C          14.2497  -18.3435   -0.1000 C.ar      1 MOL     0.0103
     11 C          13.4021  -17.2934   -0.4865 C.ar      1 MOL     0.0106
     12 C          13.0824  -17.0547   -1.8382 C.ar      1 MOL     0.0736
     13 C          13.7349  -17.8225   -2.9378 C.3       1 MOL     0.0925
     14 C          14.4058  -16.9368   -3.9261 C.ar      1 MOL    -0.0406
     15 C          15.4697  -16.0923   -3.5843 C.ar      1 MOL     0.0196
     16 C          16.0912  -15.2992   -4.5595 C.ar      1 MOL     0.0723
     17 C          17.2147  -14.4104   -4.1990 C.2       1 MOL     0.2495
     18 C          19.6130  -13.9530   -4.0263 C.3       1 MOL     0.1268
     19 C          20.6085  -14.6120   -3.0234 C.3       1 MOL     0.1265
     20 C          19.7693  -16.8614   -3.8050 C.3       1 MOL     0.1265
     21 C          18.8697  -16.1307   -4.8337 C.3       1 MOL     0.1268
     22 C          21.9799  -16.6812   -2.8790 C.2       1 MOL     0.2187
     23 C          22.9613  -16.0015   -1.9912 C.3       1 MOL     0.0752
     24 C          23.3688  -16.9156   -0.8762 C.3       1 MOL     0.0134
     25 C          22.4402  -15.7673   -0.6128 C.3       1 MOL     0.0134
     26 C          15.6293  -15.3481   -5.8754 C.ar      1 MOL     0.1355
     27 C          14.5645  -16.1785   -6.2265 C.ar      1 MOL     0.0392
     28 C          13.9543  -16.9729   -5.2533 C.ar      1 MOL     0.0066
     29 O          11.6150  -14.5237    0.9490 O.2       1 MOL    -0.2658
     30 O          22.2283  -17.8380   -3.2637 O.2       1 MOL    -0.2753
     31 O          16.8949  -13.2867   -3.8030 O.2       1 MOL    -0.2699
     32 F          16.2153  -14.5892   -6.8315 F         1 MOL    -0.2047
     33 H          12.7385  -16.0547    2.6375 H         1 MOL     0.0625
     34 H          14.2127  -17.9362    3.2723 H         1 MOL     0.0618
     35 H          15.1827  -19.3958    1.5267 H         1 MOL     0.0618
     36 H          14.6789  -18.9881   -0.8549 H         1 MOL     0.0624
     37 H          12.9613  -18.4158   -3.4600 H         1 MOL     0.0377
     38 H          14.4951  -18.4915   -2.4920 H         1 MOL     0.0377
     39 H          15.8155  -16.0579   -2.5610 H         1 MOL     0.0629
     40 H          19.2343  -12.9821   -3.6334 H         1 MOL     0.0480
     41 H          20.1338  -13.7477   -4.9927 H         1 MOL     0.0480
     42 H          20.1605  -14.5115   -2.0012 H         1 MOL     0.0480
     43 H          21.5839  -14.0728   -3.0114 H         1 MOL     0.0480
     44 H          19.1168  -17.1722   -2.9496 H         1 MOL     0.0480
     45 H          20.2125  -17.7837   -4.2443 H         1 MOL     0.0480
     46 H          17.9538  -16.7206   -5.0600 H         1 MOL     0.0480
     47 H          19.4252  -15.9647   -5.7865 H         1 MOL     0.0480
     48 H          23.6616  -15.3607   -2.4564 H         1 MOL     0.0394
     49 H          24.3833  -16.8355   -0.5084 H         1 MOL     0.0273
     50 H          22.9221  -17.9048   -0.8772 H         1 MOL     0.0273
     51 H          22.8695  -14.9583   -0.0334 H         1 MOL     0.0273
     52 H          21.4048  -16.0215   -0.4198 H         1 MOL     0.0273
     53 H          14.2157  -16.2084   -7.2477 H         1 MOL     0.0646
     54 H          13.1316  -17.6195   -5.5248 H         1 MOL     0.0621
     55 H          10.9513  -14.5859   -1.4187 H         1 MOL     0.1921
@<TRIPOS>BOND
     1    1   17 am
     2    1   18 1 
     3    1   21 1 
     4    2   19 1 
     5    2   20 1 
     6    2   22 am
     7    3    4 ar
     8    3   12 ar
     9    4    5 ar
    10    4   55 1 
    11    5    6 ar
    12    5   29 2 
    13    6    7 ar
    14    6   11 ar
    15    7    8 ar
    16    7   33 1 
    17    8    9 ar
    18    8   34 1 
    19    9   10 ar
    20    9   35 1 
    21   10   11 ar
    22   10   36 1 
    23   11   12 ar
    24   12   13 1 
    25   13   14 1 
    26   13   37 1 
    27   13   38 1 
    28   14   15 ar
    29   14   28 ar
    30   15   16 ar
    31   15   39 1 
    32   16   17 1 
    33   16   26 ar
    34   17   31 2 
    35   18   19 1 
    36   18   40 1 
    37   18   41 1 
    38   19   42 1 
    39   19   43 1 
    40   20   21 1 
    41   20   44 1 
    42   20   45 1 
    43   21   46 1 
    44   21   47 1 
    45   22   23 1 
    46   22   30 2 
    47   23   24 1 
    48   23   25 1 
    49   23   48 1 
    50   24   25 1 
    51   24   49 1 
    52   24   50 1 
    53   25   51 1 
    54   25   52 1 
    55   26   27 ar
    56   26   32 1 
    57   27   28 ar
    58   27   53 1 
    59   28   54 1 
@<TRIPOS>SUBSTRUCTURE
1 MOL         1
@<TRIPOS>MOLECULE
query molecule
   55    59     1     0     0
SMALL
NO_CHARGE

@<TRIPOS>ATOM
      1 N          38.5307    2.1835   -8.9311 N.am      1 MOL    -0.2945
      2 N          40.2686    0.2484   -9.5936 N.am      1 MOL    -0.2983
      3 N          31.0987    2.1139   -7.0398 N.ar      1 MOL    -0.1750
      4 N          30.0593    1.3600   -7.3815 N.ar      1 MOL    -0.2425
      5 C          29.6273    1.3113   -8.7245 C.ar      1 MOL     0.2725
      6 C          30.3138    2.0928   -9.6819 C.ar      1 MOL     0.0496
      7 C          29.9021    2.1041  -11.0191 C.ar      1 MOL     0.0138
      8 C          30.5685    2.8983  -11.9521 C.ar      1 MOL     0.0008
      9 C          31.6658    3.6655  -11.5594 C.ar      1 MOL     0.0007
     10 C          32.1005    3.6419  -10.2325 C.ar      1 MOL     0.0103
     11 C          31.4332    2.8733   -9.2666 C.ar      1 MOL     0.0106
     12 C          31.8304    2.8571   -7.9179 C.ar      1 MOL     0.0736
     13 C          33.0039    3.6445   -7.4195 C.3       1 MOL     0.0925
     14 C          34.2077    2.8157   -7.1763 C.ar      1 MOL    -0.0406
     15 C          35.4559    3.2480   -7.6481 C.ar      1 MOL     0.0196
     16 C          36.6014    2.4619   -7.4441 C.ar      1 MOL     0.0723
     17 C          37.8973    2.9275   -7.9851 C.2       1 MOL     0.2495
     18 C          39.7834    2.6923   -9.4957 C.3       1 MOL     0.1268
     19 C          40.6791    1.5548  -10.0843 C.3       1 MOL     0.1265
     20 C          38.8694   -0.1220   -9.7897 C.3       1 MOL     0.1265
     21 C          37.8946    1.0820   -9.6403 C.3       1 MOL     0.1268
     22 C          41.0831   -0.6543   -8.9846 C.2       1 MOL     0.2187
     23 C          42.5048   -0.2848   -8.7620 C.3       1 MOL     0.0752
     24 C          43.3355   -0.5320   -9.9757 C.3       1 MOL     0.0134
     25 C          43.4074   -1.4696   -8.8034 C.3       1 MOL     0.0134
     26 C          36.4958    1.2612   -6.7428 C.ar      1 MOL     0.1355
     27 C          35.2613    0.8288   -6.2689 C.ar      1 MOL     0.0392
     28 C          34.1267    1.6093   -6.4776 C.ar      1 MOL     0.0066
     29 O          28.6729    0.5647   -8.9975 O.2       1 MOL    -0.2658
     30 O          40.6725   -1.7494   -8.5605 O.2       1 MOL    -0.2753
     31 O          38.3430    3.9800   -7.5284 O.2       1 MOL    -0.2699
     32 F          37.5951    0.5013   -6.5198 F         1 MOL    -0.2047
     33 H          29.0632    1.4987  -11.3318 H         1 MOL     0.0625
     34 H          30.2307    2.9234  -12.9782 H         1 MOL     0.0618
     35 H          32.1758    4.2821  -12.2854 H         1 MOL     0.0618
     36 H          32.9561    4.2361   -9.9452 H         1 MOL     0.0624
     37 H          32.7147    4.1212   -6.4628 H         1 MOL     0.0377
     38 H          33.2518    4.4192   -8.1688 H         1 MOL     0.0377
     39 H          35.5382    4.1852   -8.1816 H         1 MOL     0.0629
     40 H          40.3263    3.2472   -8.6947 H         1 MOL     0.0480
     41 H          39.5450    3.4217  -10.3076 H         1 MOL     0.0480
     42 H          41.7544    1.7262   -9.8589 H         1 MOL     0.0480
     43 H          40.5607    1.5496  -11.1980 H         1 MOL     0.0480
     44 H          38.6227   -0.9063   -9.0332 H         1 MOL     0.0480
     45 H          38.7481   -0.5774  -10.8002 H         1 MOL     0.0480
     46 H          36.9733    0.7735   -9.0945 H         1 MOL     0.0480
     47 H          37.5888    1.4468  -10.6501 H         1 MOL     0.0480
     48 H          42.6845    0.5393   -8.1224 H         1 MOL     0.0394
     49 H          44.2005    0.1035  -10.1276 H         1 MOL     0.0273
     50 H          42.8226   -0.8955  -10.8578 H         1 MOL     0.0273
     51 H          44.3049   -1.4260   -8.2015 H         1 MOL     0.0273
     52 H          42.9300   -2.4343   -8.9225 H         1 MOL     0.0273
     53 H          35.1828   -0.1080   -5.7376 H         1 MOL     0.0646
     54 H          33.1677    1.2748   -6.1045 H         1 MOL     0.0621
     55 H          29.5268    0.8331   -6.7127 H         1 MOL     0.1921
@<TRIPOS>BOND
     1    1   17 am
     2    1   18 1 
     3    1   21 1 
     4    2   19 1 
     5    2   20 1 
     6    2   22 am
     7    3    4 ar
     8    3   12 ar
     9    4    5 ar
    10    4   55 1 
    11    5    6 ar
    12    5   29 2 
    13    6    7 ar
    14    6   11 ar
    15    7    8 ar
    16    7   33 1 
    17    8    9 ar
    18    8   34 1 
    19    9   10 ar
    20    9   35 1 
    21   10   11 ar
    22   10   36 1 
    23   11   12 ar
    24   12   13 1 
    25   13   14 1 
    26   13   37 1 
    27   13   38 1 
    28   14   15 ar
    29   14   28 ar
    30   15   16 ar
    31   15   39 1 
    32   16   17 1 
    33   16   26 ar
    34   17   31 2 
    35   18   19 1 
    36   18   40 1 
    37   18   41 1 
    38   19   42 1 
    39   19   43 1 
    40   20   21 1 
    41   20   44 1 
    42   20   45 1 
    43   21   46 1 
    44   21   47 1 
    45   22   23 1 
    46   22   30 2 
    47   23   24 1 
    48   23   25 1 
    49   23   48 1 
    50   24   25 1 
    51   24   49 1 
    52   24   50 1 
    53   25   51 1 
    54   25   52 1 
    55   26   27 ar
    56   26   32 1 
    57   27   28 ar
    58   27   53 1 
    59   28   54 1 
@<TRIPOS>SUBSTRUCTURE
1 MOL         1
@<TRIPOS>MOLECULE
query molecule
   55    59     1     0     0
SMALL
NO_CHARGE

@<TRIPOS>ATOM
      1 N          27.1733  -16.0602   24.4688 N.am      1 MOL    -0.2945
      2 N          29.2418  -15.2598   26.2482 N.am      1 MOL    -0.2983
      3 N          30.2479  -14.0733   20.5841 N.ar      1 MOL    -0.1750
      4 N          31.1548  -13.2887   21.1473 N.ar      1 MOL    -0.2425
      5 C          31.1613  -11.8974   20.9001 C.ar      1 MOL     0.2725
      6 C          30.1426  -11.3667   20.0785 C.ar      1 MOL     0.0496
      7 C          30.0386   -9.9878   19.8926 C.ar      1 MOL     0.0138
      8 C          29.0347   -9.4759   19.0821 C.ar      1 MOL     0.0008
      9 C          28.1494  -10.3274   18.4230 C.ar      1 MOL     0.0007
     10 C          28.2429  -11.7058   18.6080 C.ar      1 MOL     0.0103
     11 C          29.2157  -12.2497   19.4606 C.ar      1 MOL     0.0106
     12 C          29.2853  -13.6274   19.7244 C.ar      1 MOL     0.0736
     13 C          28.3446  -14.6054   19.1018 C.3       1 MOL     0.0925
     14 C          27.2869  -15.0775   20.0326 C.ar      1 MOL    -0.0406
     15 C          27.5905  -15.6866   21.2586 C.ar      1 MOL     0.0196
     16 C          26.5671  -16.1400   22.0978 C.ar      1 MOL     0.0723
     17 C          26.8701  -16.7958   23.3837 C.2       1 MOL     0.2495
     18 C          27.2094  -16.6793   25.7870 C.3       1 MOL     0.1268
     19 C          28.6465  -16.5890   26.3701 C.3       1 MOL     0.1265
     20 C          28.9599  -14.4653   25.0540 C.3       1 MOL     0.1265
     21 C          27.5297  -14.6607   24.4791 C.3       1 MOL     0.1268
     22 C          30.1592  -14.7880   27.1421 C.2       1 MOL     0.2187
     23 C          30.9720  -15.7702   27.9124 C.3       1 MOL     0.0752
     24 C          32.4269  -15.5361   27.6493 C.3       1 MOL     0.0134
     25 C          31.7317  -16.7037   27.0262 C.3       1 MOL     0.0134
     26 C          25.2350  -15.9912   21.7008 C.ar      1 MOL     0.1355
     27 C          24.9177  -15.3842   20.4855 C.ar      1 MOL     0.0392
     28 C          25.9431  -14.9236   19.6530 C.ar      1 MOL     0.0066
     29 O          32.0655  -11.2170   21.3908 O.2       1 MOL    -0.2658
     30 O          30.3755  -13.5823   27.3328 O.2       1 MOL    -0.2753
     31 O          26.7641  -18.0279   23.4019 O.2       1 MOL    -0.2699
     32 F          24.2354  -16.4356   22.5001 F         1 MOL    -0.2047
     33 H          30.7314   -9.3217   20.3838 H         1 MOL     0.0625
     34 H          28.9457   -8.4066   18.9509 H         1 MOL     0.0618
     35 H          27.3928   -9.9199   17.7688 H         1 MOL     0.0618
     36 H          27.5507  -12.3606   18.0970 H         1 MOL     0.0624
     37 H          28.9266  -15.4823   18.7592 H         1 MOL     0.0377
     38 H          27.8542  -14.1168   18.2375 H         1 MOL     0.0377
     39 H          28.6234  -15.8089   21.5522 H         1 MOL     0.0629
     40 H          26.8640  -17.7339   25.7105 H         1 MOL     0.0480
     41 H          26.4944  -16.1293   26.4460 H         1 MOL     0.0480
     42 H          29.2896  -17.3036   25.7982 H         1 MOL     0.0480
     43 H          28.6622  -16.9018   27.4392 H         1 MOL     0.0480
     44 H          29.6711  -14.8121   24.2590 H         1 MOL     0.0480
     45 H          29.1862  -13.3954   25.2561 H         1 MOL     0.0480
     46 H          27.4547  -14.2514   23.4463 H         1 MOL     0.0480
     47 H          26.7914  -14.1177   25.1170 H         1 MOL     0.0480
     48 H          30.6104  -16.0466   28.8634 H         1 MOL     0.0394
     49 H          33.1274  -15.7608   28.4413 H         1 MOL     0.0273
     50 H          32.6769  -14.7245   26.9730 H         1 MOL     0.0273
     51 H          31.9739  -17.6805   27.4242 H         1 MOL     0.0273
     52 H          31.5214  -16.6396   25.9642 H         1 MOL     0.0273
     53 H          23.8854  -15.2692   20.1920 H         1 MOL     0.0646
     54 H          25.6988  -14.4520   18.7122 H         1 MOL     0.0621
     55 H          31.8288  -13.6305   21.8118 H         1 MOL     0.1921
@<TRIPOS>BOND
     1    1   17 am
     2    1   18 1 
     3    1   21 1 
     4    2   19 1 
     5    2   20 1 
     6    2   22 am
     7    3    4 ar
     8    3   12 ar
     9    4    5 ar
    10    4   55 1 
    11    5    6 ar
    12    5   29 2 
    13    6    7 ar
    14    6   11 ar
    15    7    8 ar
    16    7   33 1 
    17    8    9 ar
    18    8   34 1 
    19    9   10 ar
    20    9   35 1 
    21   10   11 ar
    22   10   36 1 
    23   11   12 ar
    24   12   13 1 
    25   13   14 1 
    26   13   37 1 
    27   13   38 1 
    28   14   15 ar
    29   14   28 ar
    30   15   16 ar
    31   15   39 1 
    32   16   17 1 
    33   16   26 ar
    34   17   31 2 
    35   18   19 1 
    36   18   40 1 
    37   18   41 1 
    38   19   42 1 
    39   19   43 1 
    40   20   21 1 
    41   20   44 1 
    42   20   45 1 
    43   21   46 1 
    44   21   47 1 
    45   22   23 1 
    46   22   30 2 
    47   23   24 1 
    48   23   25 1 
    49   23   48 1 
    50   24   25 1 
    51   24   49 1 
    52   24   50 1 
    53   25   51 1 
    54   25   52 1 
    55   26   27 ar
    56   26   32 1 
    57   27   28 ar
    58   27   53 1 
    59   28   54 1 
@<TRIPOS>SUBSTRUCTURE
1 MOL         1
@<TRIPOS>MOLECULE
query molecule
   55    59     1     0     0
SMALL
NO_CHARGE

@<TRIPOS>ATOM
      1 N          -6.5529   12.1207   21.1500 N.am      1 MOL    -0.2945
      2 N          -6.3805    9.7984   19.4745 N.am      1 MOL    -0.2983
      3 N          -7.9886   10.0932   25.4738 N.ar      1 MOL    -0.1750
      4 N          -8.1633    8.7879   25.3556 N.ar      1 MOL    -0.2425
      5 C          -9.0541    8.1144   26.2110 C.ar      1 MOL     0.2725
      6 C          -9.7725    8.8716   27.1627 C.ar      1 MOL     0.0496
      7 C         -10.6828    8.2529   28.0268 C.ar      1 MOL     0.0138
      8 C         -11.3983    9.0072   28.9552 C.ar      1 MOL     0.0008
      9 C         -11.2172   10.3886   29.0160 C.ar      1 MOL     0.0007
     10 C         -10.3093   11.0180   28.1625 C.ar      1 MOL     0.0103
     11 C          -9.5620   10.2793   27.2332 C.ar      1 MOL     0.0106
     12 C          -8.6274   10.8848   26.3813 C.ar      1 MOL     0.0736
     13 C          -8.3104   12.3451   26.4399 C.3       1 MOL     0.0925
     14 C          -8.4953   12.9907   25.1138 C.ar      1 MOL    -0.0406
     15 C          -7.5172   12.8425   24.1208 C.ar      1 MOL     0.0196
     16 C          -7.6816   13.4425   22.8674 C.ar      1 MOL     0.0723
     17 C          -6.6091   13.2787   21.8633 C.2       1 MOL     0.2495
     18 C          -5.2613   11.7324   20.5775 C.3       1 MOL     0.1268
     19 C          -5.2244   10.2095   20.2482 C.3       1 MOL     0.1265
     20 C          -7.6802   10.1900   20.0216 C.3       1 MOL     0.1265
     21 C          -7.7312   11.7035   20.3864 C.3       1 MOL     0.1268
     22 C          -6.3343    9.0269   18.3528 C.2       1 MOL     0.2187
     23 C          -5.0388    8.4249   17.9565 C.3       1 MOL     0.0752
     24 C          -4.2143    9.2922   17.0815 C.3       1 MOL     0.0134
     25 C          -4.9695    8.1300   16.4966 C.3       1 MOL     0.0134
     26 C          -8.8273   14.1877   22.6093 C.ar      1 MOL     0.1355
     27 C          -9.8065   14.3469   23.5941 C.ar      1 MOL     0.0392
     28 C          -9.6373   13.7520   24.8507 C.ar      1 MOL     0.0066
     29 O          -9.1568    6.8829   26.0875 O.2       1 MOL    -0.2658
     30 O          -7.3557    8.7487   17.7037 O.2       1 MOL    -0.2753
     31 O          -5.7444   14.1572   21.8340 O.2       1 MOL    -0.2699
     32 F          -9.0017   14.7663   21.3980 F         1 MOL    -0.2047
     33 H         -10.8204    7.1819   27.9826 H         1 MOL     0.0625
     34 H         -12.0862    8.5199   29.6309 H         1 MOL     0.0618
     35 H         -11.7814   10.9723   29.7305 H         1 MOL     0.0618
     36 H         -10.1854   12.0920   28.2190 H         1 MOL     0.0624
     37 H          -7.2503   12.4545   26.7346 H         1 MOL     0.0377
     38 H          -8.9729   12.8317   27.1773 H         1 MOL     0.0377
     39 H          -6.6327   12.2597   24.3293 H         1 MOL     0.0629
     40 H          -4.4507   12.0046   21.2917 H         1 MOL     0.0480
     41 H          -5.1040   12.3177   19.6403 H         1 MOL     0.0480
     42 H          -5.2270    9.6338   21.2068 H         1 MOL     0.0480
     43 H          -4.2961    9.9404   19.6959 H         1 MOL     0.0480
     44 H          -7.8564    9.5942   20.9510 H         1 MOL     0.0480
     45 H          -8.4799    9.9279   19.2925 H         1 MOL     0.0480
     46 H          -8.6515   11.9514   20.9618 H         1 MOL     0.0480
     47 H          -7.7534   12.2977   19.4388 H         1 MOL     0.0480
     48 H          -4.5990    7.7685   18.6650 H         1 MOL     0.0394
     49 H          -3.1384    9.1645   17.1373 H         1 MOL     0.0273
     50 H          -4.5855   10.2791   16.8418 H         1 MOL     0.0273
     51 H          -4.3927    7.2621   16.1969 H         1 MOL     0.0273
     52 H          -5.8387    8.3759   15.8955 H         1 MOL     0.0273
     53 H         -10.6920   14.9313   23.3847 H         1 MOL     0.0646
     54 H         -10.3911   13.8877   25.6134 H         1 MOL     0.0621
     55 H          -7.7711    8.2663   24.5930 H         1 MOL     0.1921
@<TRIPOS>BOND
     1    1   17 am
     2    1   18 1 
     3    1   21 1 
     4    2   19 1 
     5    2   20 1 
     6    2   22 am
     7    3    4 ar
     8    3   12 ar
     9    4    5 ar
    10    4   55 1 
    11    5    6 ar
    12    5   29 2 
    13    6    7 ar
    14    6   11 ar
    15    7    8 ar
    16    7   33 1 
    17    8    9 ar
    18    8   34 1 
    19    9   10 ar
    20    9   35 1 
    21   10   11 ar
    22   10   36 1 
    23   11   12 ar
    24   12   13 1 
    25   13   14 1 
    26   13   37 1 
    27   13   38 1 
    28   14   15 ar
    29   14   28 ar
    30   15   16 ar
    31   15   39 1 
    32   16   17 1 
    33   16   26 ar
    34   17   31 2 
    35   18   19 1 
    36   18   40 1 
    37   18   41 1 
    38   19   42 1 
    39   19   43 1 
    40   20   21 1 
    41   20   44 1 
    42   20   45 1 
    43   21   46 1 
    44   21   47 1 
    45   22   23 1 
    46   22   30 2 
    47   23   24 1 
    48   23   25 1 
    49   23   48 1 
    50   24   25 1 
    51   24   49 1 
    52   24   50 1 
    53   25   51 1 
    54   25   52 1 
    55   26   27 ar
    56   26   32 1 
    57   27   28 ar
    58   27   53 1 
    59   28   54 1 
@<TRIPOS>SUBSTRUCTURE
1 MOL         1
@<TRIPOS>MOLECULE
query molecule
   55    59     1     0     0
SMALL
NO_CHARGE

@<TRIPOS>ATOM
      1 N          -5.1122    8.8649   38.5559 N.am      1 MOL    -0.2945
      2 N          -5.9286    6.1409   38.8359 N.am      1 MOL    -0.2983
      3 N          -4.4664   13.1107   32.4677 N.ar      1 MOL    -0.1750
      4 N          -4.9054   13.7112   31.3633 N.ar      1 MOL    -0.2425
      5 C          -4.0002   14.0874   30.3451 C.ar      1 MOL     0.2725
      6 C          -2.6202   13.8824   30.5746 C.ar      1 MOL     0.0496
      7 C          -1.6599   14.3097   29.6483 C.ar      1 MOL     0.0138
      8 C          -0.2994   14.0987   29.8946 C.ar      1 MOL     0.0008
      9 C           0.1093   13.4653   31.0683 C.ar      1 MOL     0.0007
     10 C          -0.8384   13.0434   31.9951 C.ar      1 MOL     0.0103
     11 C          -2.2136   13.2336   31.7792 C.ar      1 MOL     0.0106
     12 C          -3.1723   12.7823   32.7172 C.ar      1 MOL     0.0736
     13 C          -2.7552   11.9505   33.8735 C.3       1 MOL     0.0925
     14 C          -3.5485   11.9259   35.1071 C.ar      1 MOL    -0.0406
     15 C          -3.4819   10.7549   35.8944 C.ar      1 MOL     0.0196
     16 C          -4.2408   10.6131   37.0721 C.ar      1 MOL     0.0723
     17 C          -4.0526    9.3993   37.9026 C.2       1 MOL     0.2495
     18 C          -4.9534    8.2352   39.8589 C.3       1 MOL     0.1268
     19 C          -4.9095    6.6823   39.7235 C.3       1 MOL     0.1265
     20 C          -6.3231    6.9077   37.6498 C.3       1 MOL     0.1265
     21 C          -6.3069    8.4524   37.8324 C.3       1 MOL     0.1268
     22 C          -6.4406    4.8789   38.9571 C.2       1 MOL     0.2187
     23 C          -5.9371    3.9698   40.0187 C.3       1 MOL     0.0752
     24 C          -7.0713    3.2331   40.6672 C.3       1 MOL     0.0134
     25 C          -6.3393    4.3146   41.4049 C.3       1 MOL     0.0134
     26 C          -5.1022   11.6475   37.4353 C.ar      1 MOL     0.1355
     27 C          -5.1347   12.8370   36.7000 C.ar      1 MOL     0.0392
     28 C          -4.3444   12.9782   35.5545 C.ar      1 MOL     0.0066
     29 O          -4.4641   14.5572   29.2938 O.2       1 MOL    -0.2658
     30 O          -7.2582    4.4168   38.1413 O.2       1 MOL    -0.2753
     31 O          -2.8903    9.0071   38.0701 O.2       1 MOL    -0.2699
     32 F          -5.9122   11.5425   38.5162 F         1 MOL    -0.2047
     33 H          -1.9685   14.8039   28.7376 H         1 MOL     0.0625
     34 H           0.4365   14.4244   29.1728 H         1 MOL     0.0618
     35 H           1.1603   13.3027   31.2548 H         1 MOL     0.0618
     36 H          -0.5103   12.5592   32.9056 H         1 MOL     0.0624
     37 H          -1.7192   12.2524   34.1414 H         1 MOL     0.0377
     38 H          -2.7277   10.8970   33.5044 H         1 MOL     0.0377
     39 H          -2.8419    9.9411   35.5802 H         1 MOL     0.0629
     40 H          -5.8342    8.5202   40.4878 H         1 MOL     0.0480
     41 H          -4.0395    8.6225   40.3610 H         1 MOL     0.0480
     42 H          -5.0045    6.2015   40.7209 H         1 MOL     0.0480
     43 H          -3.9097    6.4074   39.3074 H         1 MOL     0.0480
     44 H          -7.3161    6.5495   37.2923 H         1 MOL     0.0480
     45 H          -5.5776    6.6764   36.8521 H         1 MOL     0.0480
     46 H          -7.1985    8.7772   38.4181 H         1 MOL     0.0480
     47 H          -6.3327    8.9663   36.8451 H         1 MOL     0.0480
     48 H          -5.0379    3.4575   39.7907 H         1 MOL     0.0394
     49 H          -6.8774    2.2159   40.9848 H         1 MOL     0.0273
     50 H          -8.0772    3.4814   40.3488 H         1 MOL     0.0273
     51 H          -5.6662    3.9884   42.1932 H         1 MOL     0.0273
     52 H          -6.8463    5.2558   41.5464 H         1 MOL     0.0273
     53 H          -5.7738   13.6487   37.0190 H         1 MOL     0.0646
     54 H          -4.3653   13.9066   35.0056 H         1 MOL     0.0621
     55 H          -5.8785   13.9117   31.2130 H         1 MOL     0.1921
@<TRIPOS>BOND
     1    1   17 am
     2    1   18 1 
     3    1   21 1 
     4    2   19 1 
     5    2   20 1 
     6    2   22 am
     7    3    4 ar
     8    3   12 ar
     9    4    5 ar
    10    4   55 1 
    11    5    6 ar
    12    5   29 2 
    13    6    7 ar
    14    6   11 ar
    15    7    8 ar
    16    7   33 1 
    17    8    9 ar
    18    8   34 1 
    19    9   10 ar
    20    9   35 1 
    21   10   11 ar
    22   10   36 1 
    23   11   12 ar
    24   12   13 1 
    25   13   14 1 
    26   13   37 1 
    27   13   38 1 
    28   14   15 ar
    29   14   28 ar
    30   15   16 ar
    31   15   39 1 
    32   16   17 1 
    33   16   26 ar
    34   17   31 2 
    35   18   19 1 
    36   18   40 1 
    37   18   41 1 
    38   19   42 1 
    39   19   43 1 
    40   20   21 1 
    41   20   44 1 
    42   20   45 1 
    43   21   46 1 
    44   21   47 1 
    45   22   23 1 
    46   22   30 2 
    47   23   24 1 
    48   23   25 1 
    49   23   48 1 
    50   24   25 1 
    51   24   49 1 
    52   24   50 1 
    53   25   51 1 
    54   25   52 1 
    55   26   27 ar
    56   26   32 1 
    57   27   28 ar
    58   27   53 1 
    59   28   54 1 
@<TRIPOS>SUBSTRUCTURE
1 MOL         1
@<TRIPOS>MOLECULE
query molecule
   55    59     1     0     0
SMALL
NO_CHARGE

@<TRIPOS>ATOM
      1 N          10.0282  -15.8411   -3.7575 N.am      1 MOL    -0.2945
      2 N          10.0842  -16.0320   -0.9255 N.am      1 MOL    -0.2983
      3 N           6.0961  -13.1105   -3.1278 N.ar      1 MOL    -0.1750
      4 N           5.5752  -13.6889   -2.0548 N.ar      1 MOL    -0.2425
      5 C           5.7943  -13.1586   -0.7635 C.ar      1 MOL     0.2725
      6 C           6.5934  -12.0011   -0.6399 C.ar      1 MOL     0.0496
      7 C           6.8437  -11.4114    0.5987 C.ar      1 MOL     0.0138
      8 C           7.6058  -10.2563    0.7080 C.ar      1 MOL     0.0008
      9 C           8.1526   -9.6781   -0.4294 C.ar      1 MOL     0.0007
     10 C           7.9318  -10.2727   -1.6685 C.ar      1 MOL     0.0103
     11 C           7.1468  -11.4217   -1.8112 C.ar      1 MOL     0.0106
     12 C           6.8823  -11.9979   -3.0654 C.ar      1 MOL     0.0736
     13 C           7.4115  -11.4076   -4.3152 C.3       1 MOL     0.0925
     14 C           8.2004  -12.2806   -5.1841 C.ar      1 MOL    -0.0406
     15 C           8.8176  -13.4394   -4.7399 C.ar      1 MOL     0.0196
     16 C           9.5204  -14.2894   -5.6029 C.ar      1 MOL     0.0723
     17 C          10.1209  -15.5535   -5.0865 C.2       1 MOL     0.2495
     18 C          11.1051  -16.6141   -3.1367 C.3       1 MOL     0.1268
     19 C          11.3321  -16.1402   -1.6682 C.3       1 MOL     0.1265
     20 C           8.9000  -15.4856   -1.5841 C.3       1 MOL     0.1265
     21 C           8.7528  -15.9596   -3.0558 C.3       1 MOL     0.1268
     22 C           9.9705  -16.3092    0.4010 C.2       1 MOL     0.2187
     23 C          11.1979  -16.2659    1.2342 C.3       1 MOL     0.0752
     24 C          10.9619  -15.6094    2.5487 C.3       1 MOL     0.0134
     25 C          11.5280  -14.8157    1.4090 C.3       1 MOL     0.0134
     26 C           9.6307  -13.9031   -6.9462 C.ar      1 MOL     0.1355
     27 C           9.0465  -12.7180   -7.4088 C.ar      1 MOL     0.0392
     28 C           8.3237  -11.9137   -6.5292 C.ar      1 MOL     0.0066
     29 O           5.2516  -13.7341    0.1907 O.2       1 MOL    -0.2658
     30 O           8.8807  -16.5320    0.9490 O.2       1 MOL    -0.2753
     31 O          10.8043  -16.2402   -5.8588 O.2       1 MOL    -0.2699
     32 F          10.3056  -14.6654   -7.8404 F         1 MOL    -0.2047
     33 H           6.4318  -11.8635    1.4908 H         1 MOL     0.0625
     34 H           7.7760   -9.8129    1.6751 H         1 MOL     0.0618
     35 H           8.7442   -8.7795   -0.3500 H         1 MOL     0.0618
     36 H           8.3708   -9.8214   -2.5496 H         1 MOL     0.0624
     37 H           8.0529  -10.5429   -4.0321 H         1 MOL     0.0377
     38 H           6.5478  -11.0329   -4.9044 H         1 MOL     0.0377
     39 H           8.7385  -13.7071   -3.6930 H         1 MOL     0.0629
     40 H          12.0316  -16.5051   -3.7441 H         1 MOL     0.0480
     41 H          10.8075  -17.6905   -3.1536 H         1 MOL     0.0480
     42 H          11.8102  -15.1309   -1.6917 H         1 MOL     0.0480
     43 H          12.0219  -16.8321   -1.1324 H         1 MOL     0.0480
     44 H           9.0095  -14.3713   -1.5843 H         1 MOL     0.0480
     45 H           7.9998  -15.7339   -0.9778 H         1 MOL     0.0480
     46 H           7.9850  -15.3432   -3.5770 H         1 MOL     0.0480
     47 H           8.4271  -17.0248   -3.0888 H         1 MOL     0.0480
     48 H          11.9432  -16.9845    1.0565 H         1 MOL     0.0394
     49 H          11.6413  -15.8166    3.3642 H         1 MOL     0.0273
     50 H           9.9220  -15.4307    2.8037 H         1 MOL     0.0273
     51 H          12.5662  -14.5252    1.4827 H         1 MOL     0.0273
     52 H          10.8527  -14.1220    0.9164 H         1 MOL     0.0273
     53 H           9.1483  -12.4272   -8.4435 H         1 MOL     0.0646
     54 H           7.8560  -11.0051   -6.8801 H         1 MOL     0.0621
     55 H           5.0150  -14.5221   -2.1126 H         1 MOL     0.1921
@<TRIPOS>BOND
     1    1   17 am
     2    1   18 1 
     3    1   21 1 
     4    2   19 1 
     5    2   20 1 
     6    2   22 am
     7    3    4 ar
     8    3   12 ar
     9    4    5 ar
    10    4   55 1 
    11    5    6 ar
    12    5   29 2 
    13    6    7 ar
    14    6   11 ar
    15    7    8 ar
    16    7   33 1 
    17    8    9 ar
    18    8   34 1 
    19    9   10 ar
    20    9   35 1 
    21   10   11 ar
    22   10   36 1 
    23   11   12 ar
    24   12   13 1 
    25   13   14 1 
    26   13   37 1 
    27   13   38 1 
    28   14   15 ar
    29   14   28 ar
    30   15   16 ar
    31   15   39 1 
    32   16   17 1 
    33   16   26 ar
    34   17   31 2 
    35   18   19 1 
    36   18   40 1 
    37   18   41 1 
    38   19   42 1 
    39   19   43 1 
    40   20   21 1 
    41   20   44 1 
    42   20   45 1 
    43   21   46 1 
    44   21   47 1 
    45   22   23 1 
    46   22   30 2 
    47   23   24 1 
    48   23   25 1 
    49   23   48 1 
    50   24   25 1 
    51   24   49 1 
    52   24   50 1 
    53   25   51 1 
    54   25   52 1 
    55   26   27 ar
    56   26   32 1 
    57   27   28 ar
    58   27   53 1 
    59   28   54 1 
@<TRIPOS>SUBSTRUCTURE
1 MOL         1
@<TRIPOS>MOLECULE
query molecule
   55    59     1     0     0
SMALL
NO_CHARGE

@<TRIPOS>ATOM
      1 N          15.3765    7.5457   -5.7230 N.am      1 MOL    -0.2945
      2 N          14.0812    7.3569   -8.2493 N.am      1 MOL    -0.2983
      3 N          18.3278   10.3336    0.3210 N.ar      1 MOL    -0.1750
      4 N          19.3055   10.2354    1.2135 N.ar      1 MOL    -0.2425
      5 C          20.1716   11.3275    1.3993 C.ar      1 MOL     0.2725
      6 C          19.9032   12.5119    0.6706 C.ar      1 MOL     0.0496
      7 C          20.6814   13.6581    0.8502 C.ar      1 MOL     0.0138
      8 C          20.4048   14.8157    0.1225 C.ar      1 MOL     0.0008
      9 C          19.3552   14.8355   -0.7968 C.ar      1 MOL     0.0007
     10 C          18.5717   13.7003   -0.9893 C.ar      1 MOL     0.0103
     11 C          18.8216   12.5295   -0.2627 C.ar      1 MOL     0.0106
     12 C          18.0326   11.3940   -0.4470 C.ar      1 MOL     0.0736
     13 C          16.9046   11.3020   -1.4063 C.3       1 MOL     0.0925
     14 C          17.2800   10.6323   -2.6779 C.ar      1 MOL    -0.0406
     15 C          16.6220    9.4592   -3.0582 C.ar      1 MOL     0.0196
     16 C          16.9047    8.8290   -4.2792 C.ar      1 MOL     0.0723
     17 C          16.1922    7.5767   -4.6368 C.2       1 MOL     0.2495
     18 C          14.6463    6.3154   -6.0365 C.3       1 MOL     0.1268
     19 C          14.4644    6.1270   -7.5676 C.3       1 MOL     0.1265
     20 C          14.6045    8.6458   -7.8075 C.3       1 MOL     0.1265
     21 C          14.7880    8.7566   -6.2796 C.3       1 MOL     0.1268
     22 C          13.3644    7.3788   -9.4081 C.2       1 MOL     0.2187
     23 C          13.5080    6.2168  -10.3123 C.3       1 MOL     0.0752
     24 C          14.6729    6.4700  -11.2160 C.3       1 MOL     0.0134
     25 C          13.2702    6.5112  -11.7490 C.3       1 MOL     0.0134
     26 C          17.8572    9.4013   -5.1217 C.ar      1 MOL     0.1355
     27 C          18.5460   10.5557   -4.7452 C.ar      1 MOL     0.0392
     28 C          18.2581   11.1675   -3.5223 C.ar      1 MOL     0.0066
     29 O          21.1520   11.1657    2.1406 O.2       1 MOL    -0.2658
     30 O          12.6599    8.3395   -9.7474 O.2       1 MOL    -0.2753
     31 O          16.4093    6.5877   -3.9264 O.2       1 MOL    -0.2699
     32 F          18.1264    8.8425   -6.3252 F         1 MOL    -0.2047
     33 H          21.4966   13.6460    1.5577 H         1 MOL     0.0625
     34 H          21.0051   15.7006    0.2731 H         1 MOL     0.0618
     35 H          19.1482   15.7328   -1.3606 H         1 MOL     0.0618
     36 H          17.7626   13.7200   -1.7059 H         1 MOL     0.0624
     37 H          16.5684   12.3294   -1.6356 H         1 MOL     0.0377
     38 H          16.0854   10.7257   -0.9359 H         1 MOL     0.0377
     39 H          15.8770    9.0311   -2.4004 H         1 MOL     0.0629
     40 H          13.6383    6.3971   -5.5610 H         1 MOL     0.0480
     41 H          15.1724    5.4479   -5.5796 H         1 MOL     0.0480
     42 H          13.7276    5.3257   -7.7978 H         1 MOL     0.0480
     43 H          15.4515    5.8081   -7.9904 H         1 MOL     0.0480
     44 H          13.9665    9.4616   -8.2150 H         1 MOL     0.0480
     45 H          15.6192    8.7550   -8.2733 H         1 MOL     0.0480
     46 H          13.7953    8.9122   -5.7960 H         1 MOL     0.0480
     47 H          15.4359    9.6292   -6.0341 H         1 MOL     0.0480
     48 H          13.3556    5.2616   -9.8828 H         1 MOL     0.0394
     49 H          15.2787    5.6226  -11.5054 H         1 MOL     0.0273
     50 H          15.1633    7.4326  -11.1262 H         1 MOL     0.0273
     51 H          12.9787    5.6779  -12.3799 H         1 MOL     0.0273
     52 H          12.8437    7.4782  -11.9828 H         1 MOL     0.0273
     53 H          19.2955   10.9789   -5.3965 H         1 MOL     0.0646
     54 H          18.7881   12.0623   -3.2280 H         1 MOL     0.0621
     55 H          19.3531    9.4706    1.8668 H         1 MOL     0.1921
@<TRIPOS>BOND
     1    1   17 am
     2    1   18 1 
     3    1   21 1 
     4    2   19 1 
     5    2   20 1 
     6    2   22 am
     7    3    4 ar
     8    3   12 ar
     9    4    5 ar
    10    4   55 1 
    11    5    6 ar
    12    5   29 2 
    13    6    7 ar
    14    6   11 ar
    15    7    8 ar
    16    7   33 1 
    17    8    9 ar
    18    8   34 1 
    19    9   10 ar
    20    9   35 1 
    21   10   11 ar
    22   10   36 1 
    23   11   12 ar
    24   12   13 1 
    25   13   14 1 
    26   13   37 1 
    27   13   38 1 
    28   14   15 ar
    29   14   28 ar
    30   15   16 ar
    31   15   39 1 
    32   16   17 1 
    33   16   26 ar
    34   17   31 2 
    35   18   19 1 
    36   18   40 1 
    37   18   41 1 
    38   19   42 1 
    39   19   43 1 
    40   20   21 1 
    41   20   44 1 
    42   20   45 1 
    43   21   46 1 
    44   21   47 1 
    45   22   23 1 
    46   22   30 2 
    47   23   24 1 
    48   23   25 1 
    49   23   48 1 
    50   24   25 1 
    51   24   49 1 
    52   24   50 1 
    53   25   51 1 
    54   25   52 1 
    55   26   27 ar
    56   26   32 1 
    57   27   28 ar
    58   27   53 1 
    59   28   54 1 
@<TRIPOS>SUBSTRUCTURE
1 MOL         1
@<TRIPOS>MOLECULE
query molecule
   55    59     1     0     0
SMALL
NO_CHARGE

@<TRIPOS>ATOM
      1 N          37.1842   14.2409   27.0465 N.am      1 MOL    -0.2945
      2 N          39.7606   13.4054   26.3506 N.am      1 MOL    -0.2983
      3 N          31.8681   14.4829   32.9192 N.ar      1 MOL    -0.1750
      4 N          31.7757   14.0500   34.1720 N.ar      1 MOL    -0.2425
      5 C          32.8739   14.1415   35.0576 C.ar      1 MOL     0.2725
      6 C          34.0740   14.7218   34.5849 C.ar      1 MOL     0.0496
      7 C          35.2023   14.8373   35.4055 C.ar      1 MOL     0.0138
      8 C          36.3650   15.4374   34.9273 C.ar      1 MOL     0.0008
      9 C          36.4114   15.9338   33.6245 C.ar      1 MOL     0.0007
     10 C          35.2977   15.8170   32.7946 C.ar      1 MOL     0.0103
     11 C          34.1219   15.2010   33.2471 C.ar      1 MOL     0.0106
     12 C          33.0022   15.0471   32.4155 C.ar      1 MOL     0.0736
     13 C          33.0136   15.4844   30.9922 C.3       1 MOL     0.0925
     14 C          33.6328   14.4812   30.0915 C.ar      1 MOL    -0.0406
     15 C          34.4898   14.9417   29.0827 C.ar      1 MOL     0.0196
     16 C          35.0214   14.0428   28.1539 C.ar      1 MOL     0.0723
     17 C          35.8804   14.5833   27.0932 C.2       1 MOL     0.2495
     18 C          38.0787   15.1828   26.3685 C.3       1 MOL     0.1268
     19 C          39.1253   14.4106   25.5155 C.3       1 MOL     0.1265
     20 C          38.8601   12.4119   26.9293 C.3       1 MOL     0.1265
     21 C          37.8107   13.1652   27.8067 C.3       1 MOL     0.1268
     22 C          41.0754   13.3664   26.6694 C.2       1 MOL     0.2187
     23 C          41.8713   14.6196   26.5889 C.3       1 MOL     0.0752
     24 C          42.4059   14.9313   27.9549 C.3       1 MOL     0.0134
     25 C          41.2995   15.7549   27.3749 C.3       1 MOL     0.0134
     26 C          34.7245   12.6895   28.2406 C.ar      1 MOL     0.1355
     27 C          33.9177   12.2176   29.2711 C.ar      1 MOL     0.0392
     28 C          33.3750   13.1109   30.1983 C.ar      1 MOL     0.0066
     29 O          32.7296   13.7138   36.2132 O.2       1 MOL    -0.2658
     30 O          41.6318   12.3277   27.0581 O.2       1 MOL    -0.2753
     31 O          35.3589   15.4155   26.3420 O.2       1 MOL    -0.2699
     32 F          35.2229   11.8308   27.3150 F         1 MOL    -0.2047
     33 H          35.1666   14.4623   36.4189 H         1 MOL     0.0625
     34 H          37.2315   15.5217   35.5670 H         1 MOL     0.0618
     35 H          37.3108   16.4054   33.2577 H         1 MOL     0.0618
     36 H          35.3441   16.2005   31.7846 H         1 MOL     0.0624
     37 H          33.5871   16.4272   30.9177 H         1 MOL     0.0377
     38 H          31.9696   15.6451   30.6654 H         1 MOL     0.0377
     39 H          34.7237   15.9929   29.0094 H         1 MOL     0.0629
     40 H          38.6181   15.7720   27.1524 H         1 MOL     0.0480
     41 H          37.4777   15.8955   25.7631 H         1 MOL     0.0480
     42 H          39.8949   15.0899   25.0918 H         1 MOL     0.0480
     43 H          38.6035   13.8980   24.6729 H         1 MOL     0.0480
     44 H          39.4439   11.6689   27.5119 H         1 MOL     0.0480
     45 H          38.3393   11.8787   26.0985 H         1 MOL     0.0480
     46 H          38.3393   13.6178   28.6822 H         1 MOL     0.0480
     47 H          37.0278   12.4812   28.2003 H         1 MOL     0.0480
     48 H          42.4576   14.7621   25.7219 H         1 MOL     0.0394
     49 H          43.3728   15.4106   28.0234 H         1 MOL     0.0273
     50 H          42.1197   14.2571   28.7546 H         1 MOL     0.0273
     51 H          41.5585   16.7624   27.0728 H         1 MOL     0.0273
     52 H          40.3055   15.6068   27.7830 H         1 MOL     0.0273
     53 H          33.7012   11.1626   29.3480 H         1 MOL     0.0646
     54 H          32.7488   12.7450   30.9977 H         1 MOL     0.0621
     55 H          30.8946   13.7466   34.5594 H         1 MOL     0.1921
@<TRIPOS>BOND
     1    1   17 am
     2    1   18 1 
     3    1   21 1 
     4    2   19 1 
     5    2   20 1 
     6    2   22 am
     7    3    4 ar
     8    3   12 ar
     9    4    5 ar
    10    4   55 1 
    11    5    6 ar
    12    5   29 2 
    13    6    7 ar
    14    6   11 ar
    15    7    8 ar
    16    7   33 1 
    17    8    9 ar
    18    8   34 1 
    19    9   10 ar
    20    9   35 1 
    21   10   11 ar
    22   10   36 1 
    23   11   12 ar
    24   12   13 1 
    25   13   14 1 
    26   13   37 1 
    27   13   38 1 
    28   14   15 ar
    29   14   28 ar
    30   15   16 ar
    31   15   39 1 
    32   16   17 1 
    33   16   26 ar
    34   17   31 2 
    35   18   19 1 
    36   18   40 1 
    37   18   41 1 
    38   19   42 1 
    39   19   43 1 
    40   20   21 1 
    41   20   44 1 
    42   20   45 1 
    43   21   46 1 
    44   21   47 1 
    45   22   23 1 
    46   22   30 2 
    47   23   24 1 
    48   23   25 1 
    49   23   48 1 
    50   24   25 1 
    51   24   49 1 
    52   24   50 1 
    53   25   51 1 
    54   25   52 1 
    55   26   27 ar
    56   26   32 1 
    57   27   28 ar
    58   27   53 1 
    59   28   54 1 
@<TRIPOS>SUBSTRUCTURE
1 MOL         1
@<TRIPOS>MOLECULE
query molecule
   55    59     1     0     0
SMALL
NO_CHARGE

@<TRIPOS>ATOM
      1 N          33.9789   16.3310   28.4932 N.am      1 MOL    -0.2945
      2 N          32.1994   16.3815   30.7050 N.am      1 MOL    -0.2983
      3 N          40.7904   12.8665   28.1540 N.ar      1 MOL    -0.1750
      4 N          41.7069   12.1149   28.7510 N.ar      1 MOL    -0.2425
      5 C          41.9401   12.2083   30.1388 C.ar      1 MOL     0.2725
      6 C          41.1830   13.1359   30.8808 C.ar      1 MOL     0.0496
      7 C          41.3495   13.2446   32.2637 C.ar      1 MOL     0.0138
      8 C          40.6213   14.1898   32.9850 C.ar      1 MOL     0.0008
      9 C          39.7282   15.0348   32.3251 C.ar      1 MOL     0.0007
     10 C          39.5475   14.9240   30.9440 C.ar      1 MOL     0.0103
     11 C          40.2482   13.9652   30.1977 C.ar      1 MOL     0.0106
     12 C          40.0587   13.8084   28.8153 C.ar      1 MOL     0.0736
     13 C          39.0930   14.6382   28.0376 C.3       1 MOL     0.0925
     14 C          37.7319   14.0515   27.9011 C.ar      1 MOL    -0.0406
     15 C          36.6410   14.9314   27.8162 C.ar      1 MOL     0.0196
     16 C          35.3274   14.4440   27.6805 C.ar      1 MOL     0.0723
     17 C          34.1611   15.3492   27.5750 C.2       1 MOL     0.2495
     18 C          32.8000   17.1897   28.3869 C.3       1 MOL     0.1268
     19 C          31.6982   16.7053   29.3805 C.3       1 MOL     0.1265
     20 C          33.5393   15.8001   30.8515 C.3       1 MOL     0.1265
     21 C          34.5721   16.3297   29.8221 C.3       1 MOL     0.1268
     22 C          31.4565   16.4600   31.8493 C.2       1 MOL     0.2187
     23 C          30.0119   16.1445   31.8049 C.3       1 MOL     0.0752
     24 C          29.1173   17.0756   31.0875 C.3       1 MOL     0.0134
     25 C          29.2231   17.1547   32.5777 C.3       1 MOL     0.0134
     26 C          35.1239   13.0637   27.6436 C.ar      1 MOL     0.1355
     27 C          36.1977   12.1849   27.7214 C.ar      1 MOL     0.0392
     28 C          37.4995   12.6733   27.8472 C.ar      1 MOL     0.0066
     29 O          42.8069   11.4709   30.6337 O.2       1 MOL    -0.2658
     30 O          31.9849   16.6364   32.9615 O.2       1 MOL    -0.2753
     31 O          33.3816   15.1611   26.6310 O.2       1 MOL    -0.2699
     32 F          33.8653   12.5728   27.5364 F         1 MOL    -0.2047
     33 H          42.0483   12.5969   32.7733 H         1 MOL     0.0625
     34 H          40.7534   14.2697   34.0538 H         1 MOL     0.0618
     35 H          39.1711   15.7723   32.8850 H         1 MOL     0.0618
     36 H          38.8463   15.5794   30.4445 H         1 MOL     0.0624
     37 H          39.5083   14.7871   27.0210 H         1 MOL     0.0377
     38 H          38.9962   15.6172   28.5478 H         1 MOL     0.0377
     39 H          36.8137   15.9973   27.8537 H         1 MOL     0.0629
     40 H          32.4221   17.1623   27.3386 H         1 MOL     0.0480
     41 H          33.1148   18.2356   28.6142 H         1 MOL     0.0480
     42 H          31.2607   15.7818   28.9405 H         1 MOL     0.0480
     43 H          30.8718   17.4533   29.4738 H         1 MOL     0.0480
     44 H          33.4558   14.7013   30.6420 H         1 MOL     0.0480
     45 H          33.8749   15.9050   31.9064 H         1 MOL     0.0480
     46 H          35.4848   15.6897   29.8156 H         1 MOL     0.0480
     47 H          34.8811   17.3715   30.0716 H         1 MOL     0.0480
     48 H          29.7815   15.1078   31.9077 H         1 MOL     0.0394
     49 H          28.2133   16.6340   30.6822 H         1 MOL     0.0273
     50 H          29.5880   17.8609   30.5117 H         1 MOL     0.0273
     51 H          28.3957   16.7748   33.1656 H         1 MOL     0.0273
     52 H          29.7494   18.0155   32.9689 H         1 MOL     0.0273
     53 H          36.0281   11.1185   27.6879 H         1 MOL     0.0646
     54 H          38.3292   11.9858   27.9087 H         1 MOL     0.0621
     55 H          42.2152   11.3931   28.2649 H         1 MOL     0.1921
@<TRIPOS>BOND
     1    1   17 am
     2    1   18 1 
     3    1   21 1 
     4    2   19 1 
     5    2   20 1 
     6    2   22 am
     7    3    4 ar
     8    3   12 ar
     9    4    5 ar
    10    4   55 1 
    11    5    6 ar
    12    5   29 2 
    13    6    7 ar
    14    6   11 ar
    15    7    8 ar
    16    7   33 1 
    17    8    9 ar
    18    8   34 1 
    19    9   10 ar
    20    9   35 1 
    21   10   11 ar
    22   10   36 1 
    23   11   12 ar
    24   12   13 1 
    25   13   14 1 
    26   13   37 1 
    27   13   38 1 
    28   14   15 ar
    29   14   28 ar
    30   15   16 ar
    31   15   39 1 
    32   16   17 1 
    33   16   26 ar
    34   17   31 2 
    35   18   19 1 
    36   18   40 1 
    37   18   41 1 
    38   19   42 1 
    39   19   43 1 
    40   20   21 1 
    41   20   44 1 
    42   20   45 1 
    43   21   46 1 
    44   21   47 1 
    45   22   23 1 
    46   22   30 2 
    47   23   24 1 
    48   23   25 1 
    49   23   48 1 
    50   24   25 1 
    51   24   49 1 
    52   24   50 1 
    53   25   51 1 
    54   25   52 1 
    55   26   27 ar
    56   26   32 1 
    57   27   28 ar
    58   27   53 1 
    59   28   54 1 
@<TRIPOS>SUBSTRUCTURE
1 MOL         1
@<TRIPOS>MOLECULE
query molecule
   55    59     1     0     0
SMALL
NO_CHARGE

@<TRIPOS>ATOM
      1 N          39.0636    2.7034   31.5398 N.am      1 MOL    -0.2945
      2 N          38.4237    3.9304   34.0567 N.am      1 MOL    -0.2983
      3 N          33.8268    0.5938   31.8316 N.ar      1 MOL    -0.1750
      4 N          33.2828    1.0461   32.9529 N.ar      1 MOL    -0.2425
      5 C          33.8581    0.8043   34.2170 C.ar      1 MOL     0.2725
      6 C          35.0663    0.0782   34.2568 C.ar      1 MOL     0.0496
      7 C          35.7245   -0.1487   35.4691 C.ar      1 MOL     0.0138
      8 C          36.9400   -0.8333   35.4899 C.ar      1 MOL     0.0008
      9 C          37.4978   -1.3049   34.3006 C.ar      1 MOL     0.0007
     10 C          36.8338   -1.1055   33.0895 C.ar      1 MOL     0.0103
     11 C          35.6143   -0.4128   33.0360 C.ar      1 MOL     0.0106
     12 C          34.9395   -0.1927   31.8246 C.ar      1 MOL     0.0736
     13 C          35.3606   -0.7867   30.5306 C.3       1 MOL     0.0925
     14 C          36.3475   -0.0127   29.7477 C.ar      1 MOL    -0.0406
     15 C          37.3104    0.7915   30.3521 C.ar      1 MOL     0.0196
     16 C          38.3033    1.4283   29.6064 C.ar      1 MOL     0.0723
     17 C          39.3550    2.2197   30.2948 C.2       1 MOL     0.2495
     18 C          39.4882    4.0909   31.7433 C.3       1 MOL     0.1268
     19 C          38.6511    4.7461   32.8874 C.3       1 MOL     0.1265
     20 C          38.2148    2.4846   33.8689 C.3       1 MOL     0.1265
     21 C          39.1109    1.8567   32.7379 C.3       1 MOL     0.1268
     22 C          38.2469    4.3802   35.3269 C.2       1 MOL     0.2187
     23 C          38.2586    5.8437   35.6072 C.3       1 MOL     0.0752
     24 C          36.8877    6.2337   36.0712 C.3       1 MOL     0.0134
     25 C          37.3942    6.6808   34.7392 C.3       1 MOL     0.0134
     26 C          38.2901    1.2922   28.2181 C.ar      1 MOL     0.1355
     27 C          37.3097    0.5238   27.5888 C.ar      1 MOL     0.0392
     28 C          36.3388   -0.1288   28.3529 C.ar      1 MOL     0.0066
     29 O          33.2740    1.2382   35.2191 O.2       1 MOL    -0.2658
     30 O          38.1387    3.6292   36.2925 O.2       1 MOL    -0.2753
     31 O          40.3837    2.5280   29.6944 O.2       1 MOL    -0.2699
     32 F          39.2238    1.9028   27.4515 F         1 MOL    -0.2047
     33 H          35.2940    0.2115   36.3927 H         1 MOL     0.0625
     34 H          37.4502   -0.9979   36.4279 H         1 MOL     0.0618
     35 H          38.4454   -1.8236   34.3192 H         1 MOL     0.0618
     36 H          37.2740   -1.4816   32.1752 H         1 MOL     0.0624
     37 H          34.4512   -0.8983   29.9019 H         1 MOL     0.0377
     38 H          35.7929   -1.7866   30.7349 H         1 MOL     0.0377
     39 H          37.2994    0.9126   31.4275 H         1 MOL     0.0629
     40 H          39.3168    4.6521   30.7858 H         1 MOL     0.0480
     41 H          40.5800    4.0855   32.0029 H         1 MOL     0.0480
     42 H          37.6241    4.9321   32.4831 H         1 MOL     0.0480
     43 H          39.1100    5.7245   33.1717 H         1 MOL     0.0480
     44 H          37.1417    2.4075   33.5665 H         1 MOL     0.0480
     45 H          38.3772    1.9519   34.8327 H         1 MOL     0.0480
     46 H          38.7539    0.8240   32.4981 H         1 MOL     0.0480
     47 H          40.1783    1.8361   33.1002 H         1 MOL     0.0480
     48 H          39.1349    6.2155   36.0819 H         1 MOL     0.0394
     49 H          36.8263    7.0107   36.8181 H         1 MOL     0.0273
     50 H          36.0948    5.4958   36.0466 H         1 MOL     0.0273
     51 H          37.7069    7.7082   34.6390 H         1 MOL     0.0273
     52 H          36.9796    6.2036   33.8569 H         1 MOL     0.0273
     53 H          37.3078    0.4291   26.5138 H         1 MOL     0.0646
     54 H          35.5852   -0.7315   27.8658 H         1 MOL     0.0621
     55 H          32.4745    1.6432   32.9425 H         1 MOL     0.1921
@<TRIPOS>BOND
     1    1   17 am
     2    1   18 1 
     3    1   21 1 
     4    2   19 1 
     5    2   20 1 
     6    2   22 am
     7    3    4 ar
     8    3   12 ar
     9    4    5 ar
    10    4   55 1 
    11    5    6 ar
    12    5   29 2 
    13    6    7 ar
    14    6   11 ar
    15    7    8 ar
    16    7   33 1 
    17    8    9 ar
    18    8   34 1 
    19    9   10 ar
    20    9   35 1 
    21   10   11 ar
    22   10   36 1 
    23   11   12 ar
    24   12   13 1 
    25   13   14 1 
    26   13   37 1 
    27   13   38 1 
    28   14   15 ar
    29   14   28 ar
    30   15   16 ar
    31   15   39 1 
    32   16   17 1 
    33   16   26 ar
    34   17   31 2 
    35   18   19 1 
    36   18   40 1 
    37   18   41 1 
    38   19   42 1 
    39   19   43 1 
    40   20   21 1 
    41   20   44 1 
    42   20   45 1 
    43   21   46 1 
    44   21   47 1 
    45   22   23 1 
    46   22   30 2 
    47   23   24 1 
    48   23   25 1 
    49   23   48 1 
    50   24   25 1 
    51   24   49 1 
    52   24   50 1 
    53   25   51 1 
    54   25   52 1 
    55   26   27 ar
    56   26   32 1 
    57   27   28 ar
    58   27   53 1 
    59   28   54 1 
@<TRIPOS>SUBSTRUCTURE
1 MOL         1
@<TRIPOS>MOLECULE
query molecule
   55    59     1     0     0
SMALL
NO_CHARGE

@<TRIPOS>ATOM
      1 N          36.1962   -0.8093   15.1713 N.am      1 MOL    -0.2945
      2 N          37.2168   -2.1199   12.8427 N.am      1 MOL    -0.2983
      3 N          37.2152   -4.9497   19.3384 N.ar      1 MOL    -0.1750
      4 N          37.2610   -6.1787   19.8305 N.ar      1 MOL    -0.2425
      5 C          37.8555   -6.4492   21.0803 C.ar      1 MOL     0.2725
      6 C          38.2554   -5.3628   21.8792 C.ar      1 MOL     0.0496
      7 C          38.6513   -5.5395   23.2067 C.ar      1 MOL     0.0138
      8 C          39.0022   -4.4334   23.9835 C.ar      1 MOL     0.0008
      9 C          38.9782   -3.1520   23.4307 C.ar      1 MOL     0.0007
     10 C          38.6106   -2.9748   22.0975 C.ar      1 MOL     0.0103
     11 C          38.2401   -4.0630   21.3023 C.ar      1 MOL     0.0106
     12 C          37.8884   -3.9338   19.9540 C.ar      1 MOL     0.0736
     13 C          38.2992   -2.8047   19.1379 C.3       1 MOL     0.0925
     14 C          37.4925   -1.6219   19.0563 C.ar      1 MOL    -0.0406
     15 C          36.8473   -1.4435   17.8456 C.ar      1 MOL     0.0196
     16 C          36.1768   -0.2585   17.5429 C.ar      1 MOL     0.0723
     17 C          35.5856   -0.1208   16.1875 C.2       1 MOL     0.2495
     18 C          36.4733   -0.0350   13.9598 C.3       1 MOL     0.1268
     19 C          37.5496   -0.7204   13.0696 C.3       1 MOL     0.1265
     20 C          37.0149   -2.9119   14.0549 C.3       1 MOL     0.1265
     21 C          35.9299   -2.2378   14.9674 C.3       1 MOL     0.1268
     22 C          37.1338   -2.6959   11.6122 C.2       1 MOL     0.2187
     23 C          36.9590   -1.8181   10.4264 C.3       1 MOL     0.0752
     24 C          35.6265   -1.1497   10.3524 C.3       1 MOL     0.0134
     25 C          35.9127   -2.3494    9.4983 C.3       1 MOL     0.0134
     26 C          36.1360    0.7470   18.5086 C.ar      1 MOL     0.1355
     27 C          36.7604    0.5694   19.7504 C.ar      1 MOL     0.0392
     28 C          37.4487   -0.6207   20.0217 C.ar      1 MOL     0.0066
     29 O          38.0500   -7.6369   21.3830 O.2       1 MOL    -0.2658
     30 O          37.2454   -3.9156   11.4367 O.2       1 MOL    -0.2753
     31 O          34.7013    0.7216   16.0082 O.2       1 MOL    -0.2699
     32 F          35.5204    1.9292   18.2702 F         1 MOL    -0.2047
     33 H          38.6740   -6.5282   23.6387 H         1 MOL     0.0625
     34 H          39.2878   -4.5658   25.0155 H         1 MOL     0.0618
     35 H          39.2408   -2.2959   24.0328 H         1 MOL     0.0618
     36 H          38.6067   -1.9832   21.6698 H         1 MOL     0.0624
     37 H          38.3821   -3.1939   18.0926 H         1 MOL     0.0377
     38 H          39.3058   -2.5046   19.4798 H         1 MOL     0.0377
     39 H          36.8772   -2.2373   17.1104 H         1 MOL     0.0629
     40 H          36.7849    0.9928   14.2508 H         1 MOL     0.0480
     41 H          35.5265    0.0430   13.3791 H         1 MOL     0.0480
     42 H          38.5384   -0.6755   13.5924 H         1 MOL     0.0480
     43 H          37.6508   -0.1965   12.0954 H         1 MOL     0.0480
     44 H          37.9851   -2.9684   14.6033 H         1 MOL     0.0480
     45 H          36.7153   -3.9457   13.7722 H         1 MOL     0.0480
     46 H          35.8633   -2.7454   15.9565 H         1 MOL     0.0480
     47 H          34.9357   -2.3347   14.4673 H         1 MOL     0.0480
     48 H          37.8342   -1.3462   10.0675 H         1 MOL     0.0394
     49 H          35.5888   -0.1932    9.8446 H         1 MOL     0.0273
     50 H          34.9573   -1.2917   11.1894 H         1 MOL     0.0273
     51 H          36.0491   -2.1571    8.4420 H         1 MOL     0.0273
     52 H          35.4162   -3.2673    9.7835 H         1 MOL     0.0273
     53 H          36.7250    1.3548   20.4917 H         1 MOL     0.0646
     54 H          37.9485   -0.7540   20.9680 H         1 MOL     0.0621
     55 H          36.8049   -6.9518   19.3767 H         1 MOL     0.1921
@<TRIPOS>BOND
     1    1   17 am
     2    1   18 1 
     3    1   21 1 
     4    2   19 1 
     5    2   20 1 
     6    2   22 am
     7    3    4 ar
     8    3   12 ar
     9    4    5 ar
    10    4   55 1 
    11    5    6 ar
    12    5   29 2 
    13    6    7 ar
    14    6   11 ar
    15    7    8 ar
    16    7   33 1 
    17    8    9 ar
    18    8   34 1 
    19    9   10 ar
    20    9   35 1 
    21   10   11 ar
    22   10   36 1 
    23   11   12 ar
    24   12   13 1 
    25   13   14 1 
    26   13   37 1 
    27   13   38 1 
    28   14   15 ar
    29   14   28 ar
    30   15   16 ar
    31   15   39 1 
    32   16   17 1 
    33   16   26 ar
    34   17   31 2 
    35   18   19 1 
    36   18   40 1 
    37   18   41 1 
    38   19   42 1 
    39   19   43 1 
    40   20   21 1 
    41   20   44 1 
    42   20   45 1 
    43   21   46 1 
    44   21   47 1 
    45   22   23 1 
    46   22   30 2 
    47   23   24 1 
    48   23   25 1 
    49   23   48 1 
    50   24   25 1 
    51   24   49 1 
    52   24   50 1 
    53   25   51 1 
    54   25   52 1 
    55   26   27 ar
    56   26   32 1 
    57   27   28 ar
    58   27   53 1 
    59   28   54 1 
@<TRIPOS>SUBSTRUCTURE
1 MOL         1
@<TRIPOS>MOLECULE
query molecule
   55    59     1     0     0
SMALL
NO_CHARGE

@<TRIPOS>ATOM
      1 N          29.0087  -15.2972   20.2892 N.am      1 MOL    -0.2945
      2 N          29.8912  -12.5905   20.0634 N.am      1 MOL    -0.2983
      3 N          27.5888  -14.5818   25.9510 N.ar      1 MOL    -0.1750
      4 N          28.3162  -14.1986   26.9961 N.ar      1 MOL    -0.2425
      5 C          28.0895  -14.7587   28.2673 C.ar      1 MOL     0.2725
      6 C          27.0488  -15.6935   28.4116 C.ar      1 MOL     0.0496
      7 C          26.7521  -16.2504   29.6595 C.ar      1 MOL     0.0138
      8 C          25.6944  -17.1498   29.7950 C.ar      1 MOL     0.0008
      9 C          24.9234  -17.4967   28.6850 C.ar      1 MOL     0.0007
     10 C          25.2165  -16.9553   27.4319 C.ar      1 MOL     0.0103
     11 C          26.2832  -16.0592   27.2673 C.ar      1 MOL     0.0106
     12 C          26.6117  -15.5242   26.0147 C.ar      1 MOL     0.0736
     13 C          25.9444  -15.9552   24.7500 C.3       1 MOL     0.0925
     14 C          26.8940  -16.7264   23.8961 C.ar      1 MOL    -0.0406
     15 C          27.1940  -16.2719   22.6055 C.ar      1 MOL     0.0196
     16 C          28.0832  -16.9891   21.7915 C.ar      1 MOL     0.0723
     17 C          28.4063  -16.5048   20.4288 C.2       1 MOL     0.2495
     18 C          29.2424  -14.7527   18.9547 C.3       1 MOL     0.1268
     19 C          29.1668  -13.1949   18.9568 C.3       1 MOL     0.1265
     20 C          29.8182  -13.2313   21.3745 C.3       1 MOL     0.1265
     21 C          29.8950  -14.7713   21.3218 C.3       1 MOL     0.1268
     22 C          30.5315  -11.3898   20.0042 C.2       1 MOL     0.2187
     23 C          30.4227  -10.5727   18.7735 C.3       1 MOL     0.0752
     24 C          31.3371  -11.0170   17.6891 C.3       1 MOL     0.0134
     25 C          31.6812   -9.8119   18.5136 C.3       1 MOL     0.0134
     26 C          28.6649  -18.1626   22.2723 C.ar      1 MOL     0.1355
     27 C          28.3759  -18.6231   23.5560 C.ar      1 MOL     0.0392
     28 C          27.4915  -17.9070   24.3636 C.ar      1 MOL     0.0066
     29 O          28.8211  -14.4044   29.2024 O.2       1 MOL    -0.2658
     30 O          31.1302  -10.9123   20.9807 O.2       1 MOL    -0.2753
     31 O          28.0526  -17.2129   19.4804 O.2       1 MOL    -0.2699
     32 F          29.5256  -18.8654   21.4978 F         1 MOL    -0.2047
     33 H          27.3388  -15.9747   30.5238 H         1 MOL     0.0625
     34 H          25.4683  -17.5752   30.7622 H         1 MOL     0.0618
     35 H          24.0992  -18.1865   28.7948 H         1 MOL     0.0618
     36 H          24.6132  -17.2297   26.5774 H         1 MOL     0.0624
     37 H          25.6071  -15.0620   24.1961 H         1 MOL     0.0377
     38 H          25.0872  -16.6032   25.0041 H         1 MOL     0.0377
     39 H          26.7370  -15.3680   22.2291 H         1 MOL     0.0629
     40 H          28.5033  -15.1865   18.2438 H         1 MOL     0.0480
     41 H          30.2607  -15.0753   18.6271 H         1 MOL     0.0480
     42 H          28.0942  -12.8912   19.0431 H         1 MOL     0.0480
     43 H          29.5564  -12.7823   17.9970 H         1 MOL     0.0480
     44 H          28.8269  -12.9519   21.8227 H         1 MOL     0.0480
     45 H          30.6103  -12.8103   22.0318 H         1 MOL     0.0480
     46 H          29.6079  -15.2117   22.3060 H         1 MOL     0.0480
     47 H          30.9357  -15.0948   21.0894 H         1 MOL     0.0480
     48 H          29.4718  -10.1475   18.5844 H         1 MOL     0.0394
     49 H          31.0252  -10.8156   16.6698 H         1 MOL     0.0273
     50 H          31.8976  -11.9244   17.8695 H         1 MOL     0.0273
     51 H          31.5850   -8.8449   18.0361 H         1 MOL     0.0273
     52 H          32.4715   -9.9283   19.2461 H         1 MOL     0.0273
     53 H          28.8339  -19.5289   23.9229 H         1 MOL     0.0646
     54 H          27.2660  -18.2638   25.3587 H         1 MOL     0.0621
     55 H          28.8829  -13.3647   26.9665 H         1 MOL     0.1921
@<TRIPOS>BOND
     1    1   17 am
     2    1   18 1 
     3    1   21 1 
     4    2   19 1 
     5    2   20 1 
     6    2   22 am
     7    3    4 ar
     8    3   12 ar
     9    4    5 ar
    10    4   55 1 
    11    5    6 ar
    12    5   29 2 
    13    6    7 ar
    14    6   11 ar
    15    7    8 ar
    16    7   33 1 
    17    8    9 ar
    18    8   34 1 
    19    9   10 ar
    20    9   35 1 
    21   10   11 ar
    22   10   36 1 
    23   11   12 ar
    24   12   13 1 
    25   13   14 1 
    26   13   37 1 
    27   13   38 1 
    28   14   15 ar
    29   14   28 ar
    30   15   16 ar
    31   15   39 1 
    32   16   17 1 
    33   16   26 ar
    34   17   31 2 
    35   18   19 1 
    36   18   40 1 
    37   18   41 1 
    38   19   42 1 
    39   19   43 1 
    40   20   21 1 
    41   20   44 1 
    42   20   45 1 
    43   21   46 1 
    44   21   47 1 
    45   22   23 1 
    46   22   30 2 
    47   23   24 1 
    48   23   25 1 
    49   23   48 1 
    50   24   25 1 
    51   24   49 1 
    52   24   50 1 
    53   25   51 1 
    54   25   52 1 
    55   26   27 ar
    56   26   32 1 
    57   27   28 ar
    58   27   53 1 
    59   28   54 1 
@<TRIPOS>SUBSTRUCTURE
1 MOL         1
@<TRIPOS>MOLECULE
query molecule
   55    59     1     0     0
SMALL
NO_CHARGE

@<TRIPOS>ATOM
      1 N          23.2657    9.4619   39.9785 N.am      1 MOL    -0.2945
      2 N          24.3030   12.1109   40.2407 N.am      1 MOL    -0.2983
      3 N          27.8397    6.6086   39.3002 N.ar      1 MOL    -0.1750
      4 N          29.0065    7.2490   39.3326 N.ar      1 MOL    -0.2425
      5 C          30.1883    6.5920   38.9432 C.ar      1 MOL     0.2725
      6 C          30.1099    5.2561   38.5176 C.ar      1 MOL     0.0496
      7 C          31.2573    4.5659   38.1184 C.ar      1 MOL     0.0138
      8 C          31.1631    3.2490   37.6747 C.ar      1 MOL     0.0008
      9 C          29.9219    2.6161   37.6366 C.ar      1 MOL     0.0007
     10 C          28.7690    3.2893   38.0358 C.ar      1 MOL     0.0103
     11 C          28.8363    4.6147   38.4896 C.ar      1 MOL     0.0106
     12 C          27.6888    5.3126   38.9061 C.ar      1 MOL     0.0736
     13 C          26.3351    4.6650   38.9234 C.3       1 MOL     0.0925
     14 C          25.2815    5.5889   38.4275 C.ar      1 MOL    -0.0406
     15 C          24.5752    6.4044   39.3257 C.ar      1 MOL     0.0196
     16 C          23.6142    7.3197   38.8581 C.ar      1 MOL     0.0723
     17 C          22.8875    8.1601   39.8495 C.2       1 MOL     0.2495
     18 C          23.0826   10.1517   41.2548 C.3       1 MOL     0.1268
     19 C          24.1183   11.3067   41.4380 C.3       1 MOL     0.1265
     20 C          24.2730   11.4501   38.9459 C.3       1 MOL     0.1265
     21 C          23.2364   10.3366   38.8137 C.3       1 MOL     0.1268
     22 C          24.6536   13.4313   40.2602 C.2       1 MOL     0.2187
     23 C          25.3601   13.9401   41.4587 C.3       1 MOL     0.0752
     24 C          24.4706   14.5860   42.4561 C.3       1 MOL     0.0134
     25 C          25.3487   15.4254   41.5725 C.3       1 MOL     0.0134
     26 C          23.3809    7.3962   37.4869 C.ar      1 MOL     0.1355
     27 C          24.0411    6.5554   36.5920 C.ar      1 MOL     0.0392
     28 C          24.9948    5.6492   37.0595 C.ar      1 MOL     0.0066
     29 O          31.2560    7.2434   38.9904 O.2       1 MOL    -0.2658
     30 O          24.5131   14.1770   39.2789 O.2       1 MOL    -0.2753
     31 O          22.0824    7.6104   40.6148 O.2       1 MOL    -0.2699
     32 F          22.5012    8.2965   36.9856 F         1 MOL    -0.2047
     33 H          32.2177    5.0588   38.1522 H         1 MOL     0.0625
     34 H          32.0504    2.7204   37.3601 H         1 MOL     0.0618
     35 H          29.8543    1.5941   37.2895 H         1 MOL     0.0618
     36 H          27.8147    2.7826   37.9938 H         1 MOL     0.0624
     37 H          26.0936    4.3708   39.9600 H         1 MOL     0.0377
     38 H          26.3612    3.7768   38.2648 H         1 MOL     0.0377
     39 H          24.7831    6.3280   40.3842 H         1 MOL     0.0629
     40 H          23.1668    9.4131   42.0840 H         1 MOL     0.0480
     41 H          22.0463   10.5680   41.2727 H         1 MOL     0.0480
     42 H          25.1029   10.8621   41.7225 H         1 MOL     0.0480
     43 H          23.8086   11.9867   42.2670 H         1 MOL     0.0480
     44 H          25.2706   10.9615   38.7928 H         1 MOL     0.0480
     45 H          24.1580   12.2189   38.1494 H         1 MOL     0.0480
     46 H          23.4470    9.7278   37.9042 H         1 MOL     0.0480
     47 H          22.2131   10.7634   38.7105 H         1 MOL     0.0480
     48 H          26.2162   13.3815   41.7508 H         1 MOL     0.0394
     49 H          24.7790   14.4882   43.4925 H         1 MOL     0.0273
     50 H          23.4091   14.6066   42.2533 H         1 MOL     0.0273
     51 H          26.2263   15.8769   42.0215 H         1 MOL     0.0273
     52 H          24.8539   15.9932   40.7952 H         1 MOL     0.0273
     53 H          23.8168    6.6046   35.5381 H         1 MOL     0.0646
     54 H          25.5113    4.9982   36.3698 H         1 MOL     0.0621
     55 H          29.0691    8.2458   39.4376 H         1 MOL     0.1921
@<TRIPOS>BOND
     1    1   17 am
     2    1   18 1 
     3    1   21 1 
     4    2   19 1 
     5    2   20 1 
     6    2   22 am
     7    3    4 ar
     8    3   12 ar
     9    4    5 ar
    10    4   55 1 
    11    5    6 ar
    12    5   29 2 
    13    6    7 ar
    14    6   11 ar
    15    7    8 ar
    16    7   33 1 
    17    8    9 ar
    18    8   34 1 
    19    9   10 ar
    20    9   35 1 
    21   10   11 ar
    22   10   36 1 
    23   11   12 ar
    24   12   13 1 
    25   13   14 1 
    26   13   37 1 
    27   13   38 1 
    28   14   15 ar
    29   14   28 ar
    30   15   16 ar
    31   15   39 1 
    32   16   17 1 
    33   16   26 ar
    34   17   31 2 
    35   18   19 1 
    36   18   40 1 
    37   18   41 1 
    38   19   42 1 
    39   19   43 1 
    40   20   21 1 
    41   20   44 1 
    42   20   45 1 
    43   21   46 1 
    44   21   47 1 
    45   22   23 1 
    46   22   30 2 
    47   23   24 1 
    48   23   25 1 
    49   23   48 1 
    50   24   25 1 
    51   24   49 1 
    52   24   50 1 
    53   25   51 1 
    54   25   52 1 
    55   26   27 ar
    56   26   32 1 
    57   27   28 ar
    58   27   53 1 
    59   28   54 1 
@<TRIPOS>SUBSTRUCTURE
1 MOL         1
