@<TRIPOS>MOLECULE
query molecule
   55    59     1     0     0
SMALL
NO_CHARGE

@<TRIPOS>ATOM
      1 N          -2.5424   -0.4104    3.9117 N.am      1 MOL    -0.2945
      2 N          -4.8646   -0.0705    5.3008 N.am      1 MOL    -0.2983
      3 N           0.5918   -6.0822    0.1984 N.ar      1 MOL    -0.1750
      4 N           0.7993   -7.3642   -0.0618 N.ar      1 MOL    -0.2425
      5 C           1.4911   -7.7320   -1.2384 C.ar      1 MOL     0.2725
      6 C           2.0043   -6.7082   -2.0655 C.ar      1 MOL     0.0496
      7 C           2.8058   -7.0199   -3.1691 C.ar      1 MOL     0.0138
      8 C           3.3773   -5.9999   -3.9314 C.ar      1 MOL     0.0008
      9 C           3.1293   -4.6643   -3.6092 C.ar      1 MOL     0.0007
     10 C           2.3004   -4.3456   -2.5318 C.ar      1 MOL     0.0103
     11 C           1.7260   -5.3514   -1.7363 C.ar      1 MOL     0.0106
     12 C           0.9109   -5.0520   -0.6264 C.ar      1 MOL     0.0736
     13 C           0.4781   -3.6625   -0.3466 C.3       1 MOL     0.0925
     14 C          -0.7044   -3.4604    0.5131 C.ar      1 MOL    -0.0406
     15 C          -0.7096   -2.3042    1.3061 C.ar      1 MOL     0.0196
     16 C          -1.7649   -1.9824    2.1797 C.ar      1 MOL     0.0723
     17 C          -1.6144   -0.7252    2.9638 C.2       1 MOL     0.2495
     18 C          -2.9489    0.9864    4.1009 C.3       1 MOL     0.1268
     19 C          -4.0948    1.1511    5.1606 C.3       1 MOL     0.1265
     20 C          -4.1186   -1.2861    5.6123 C.3       1 MOL     0.1265
     21 C          -2.6496   -1.2560    5.0993 C.3       1 MOL     0.1268
     22 C          -6.2179   -0.1668    5.1828 C.2       1 MOL     0.2187
     23 C          -7.0063    1.0678    4.9361 C.3       1 MOL     0.0752
     24 C          -8.3000    1.0103    5.6831 C.3       1 MOL     0.0134
     25 C          -8.2728    0.8176    4.1945 C.3       1 MOL     0.0134
     26 C          -2.8456   -2.8563    2.2144 C.ar      1 MOL     0.1355
     27 C          -2.8671   -4.0230    1.4373 C.ar      1 MOL     0.0392
     28 C          -1.8013   -4.3136    0.5858 C.ar      1 MOL     0.0066
     29 O           1.6000   -8.9380   -1.4980 O.2       1 MOL    -0.2658
     30 O          -6.8251   -1.2412    5.3307 O.2       1 MOL    -0.2753
     31 O          -0.6976    0.0495    2.6508 O.2       1 MOL    -0.2699
     32 F          -3.9318   -2.6214    2.9859 F         1 MOL    -0.2047
     33 H           2.9983   -8.0522   -3.4237 H         1 MOL     0.0625
     34 H           4.0148   -6.2447   -4.7683 H         1 MOL     0.0618
     35 H           3.5808   -3.8778   -4.1960 H         1 MOL     0.0618
     36 H           2.1055   -3.3074   -2.3009 H         1 MOL     0.0624
     37 H           0.2676   -3.1772   -1.3238 H         1 MOL     0.0377
     38 H           1.3334   -3.1432    0.1374 H         1 MOL     0.0377
     39 H           0.1369   -1.6296    1.2472 H         1 MOL     0.0629
     40 H          -3.2904    1.3815    3.1128 H         1 MOL     0.0480
     41 H          -2.0638    1.5868    4.4169 H         1 MOL     0.0480
     42 H          -4.7690    2.0006    4.9206 H         1 MOL     0.0480
     43 H          -3.6237    1.3601    6.1540 H         1 MOL     0.0480
     44 H          -4.6619   -2.1371    5.1255 H         1 MOL     0.0480
     45 H          -4.1366   -1.4701    6.7103 H         1 MOL     0.0480
     46 H          -2.2839   -2.2793    4.8632 H         1 MOL     0.0480
     47 H          -1.9862   -0.8220    5.8860 H         1 MOL     0.0480
     48 H          -6.4654    1.9732    4.8376 H         1 MOL     0.0394
     49 H          -8.6859    1.9456    6.0608 H         1 MOL     0.0273
     50 H          -8.4785    0.1159    6.2709 H         1 MOL     0.0273
     51 H          -8.6848    1.6399    3.6181 H         1 MOL     0.0273
     52 H          -8.4644   -0.1839    3.8298 H         1 MOL     0.0273
     53 H          -3.7092   -4.6967    1.4932 H         1 MOL     0.0646
     54 H          -1.8231   -5.2110   -0.0163 H         1 MOL     0.0621
     55 H           0.8122   -8.0336    0.6976 H         1 MOL     0.1921
@<TRIPOS>BOND
     1    1   17 am
     2    1   18 1 
     3    1   21 1 
     4    2   19 1 
     5    2   20 1 
     6    2   22 am
     7    3    4 ar
     8    3   12 ar
     9    4    5 ar
    10    4   55 1 
    11    5    6 ar
    12    5   29 2 
    13    6    7 ar
    14    6   11 ar
    15    7    8 ar
    16    7   33 1 
    17    8    9 ar
    18    8   34 1 
    19    9   10 ar
    20    9   35 1 
    21   10   11 ar
    22   10   36 1 
    23   11   12 ar
    24   12   13 1 
    25   13   14 1 
    26   13   37 1 
    27   13   38 1 
    28   14   15 ar
    29   14   28 ar
    30   15   16 ar
    31   15   39 1 
    32   16   17 1 
    33   16   26 ar
    34   17   31 2 
    35   18   19 1 
    36   18   40 1 
    37   18   41 1 
    38   19   42 1 
    39   19   43 1 
    40   20   21 1 
    41   20   44 1 
    42   20   45 1 
    43   21   46 1 
    44   21   47 1 
    45   22   23 1 
    46   22   30 2 
    47   23   24 1 
    48   23   25 1 
    49   23   48 1 
    50   24   25 1 
    51   24   49 1 
    52   24   50 1 
    53   25   51 1 
    54   25   52 1 
    55   26   27 ar
    56   26   32 1 
    57   27   28 ar
    58   27   53 1 
    59   28   54 1 
@<TRIPOS>SUBSTRUCTURE
1 MOL         1
@<TRIPOS>MOLECULE
query molecule
   55    59     1     0     0
SMALL
NO_CHARGE

@<TRIPOS>ATOM
      1 N          16.1902   13.0195    9.9138 N.am      1 MOL    -0.2945
      2 N          16.2904   12.9440   12.7637 N.am      1 MOL    -0.2983
      3 N          12.7910    8.9302    5.5909 N.ar      1 MOL    -0.1750
      4 N          11.6442    9.2761    5.0198 N.ar      1 MOL    -0.2425
      5 C          10.4301    9.1806    5.7326 C.ar      1 MOL     0.2725
      6 C          10.4608    8.6713    7.0526 C.ar      1 MOL     0.0496
      7 C           9.2925    8.5420    7.8071 C.ar      1 MOL     0.0138
      8 C           9.3314    7.9998    9.0882 C.ar      1 MOL     0.0008
      9 C          10.5389    7.5499    9.6226 C.ar      1 MOL     0.0007
     10 C          11.7147    7.6815    8.8848 C.ar      1 MOL     0.0103
     11 C          11.7092    8.2709    7.6097 C.ar      1 MOL     0.0106
     12 C          12.8897    8.4765    6.8727 C.ar      1 MOL     0.0736
     13 C          14.2314    8.1997    7.4612 C.3       1 MOL     0.0925
     14 C          15.1685    9.3478    7.3343 C.ar      1 MOL    -0.0406
     15 C          14.9919   10.5412    8.0509 C.ar      1 MOL     0.0196
     16 C          15.8913   11.6065    7.9189 C.ar      1 MOL     0.0723
     17 C          15.6950   12.8726    8.6656 C.2       1 MOL     0.2495
     18 C          16.1333   14.2980   10.6191 C.3       1 MOL     0.1268
     19 C          15.7507   14.1243   12.1233 C.3       1 MOL     0.1265
     20 C          16.7117   11.7937   11.9671 C.3       1 MOL     0.1265
     21 C          17.1368   12.1077   10.5187 C.3       1 MOL     0.1268
     22 C          16.3622   12.7378   14.1063 C.2       1 MOL     0.2187
     23 C          15.6331   13.5833   15.0542 C.3       1 MOL     0.0752
     24 C          14.6800   12.6394   15.7457 C.3       1 MOL     0.0134
     25 C          14.1759   13.7593   14.9095 C.3       1 MOL     0.0134
     26 C          16.9759   11.4649    7.0475 C.ar      1 MOL     0.1355
     27 C          17.1678   10.2830    6.3277 C.ar      1 MOL     0.0392
     28 C          16.2673    9.2237    6.4723 C.ar      1 MOL     0.0066
     29 O           9.3897    9.5272    5.1514 O.2       1 MOL    -0.2658
     30 O          17.0618   11.8293   14.5931 O.2       1 MOL    -0.2753
     31 O          15.0546   13.7539    8.0810 O.2       1 MOL    -0.2699
     32 F          17.8578   12.4825    6.8926 F         1 MOL    -0.2047
     33 H           8.3517    8.8680    7.3901 H         1 MOL     0.0625
     34 H           8.4203    7.9179    9.6664 H         1 MOL     0.0618
     35 H          10.5617    7.1030   10.6046 H         1 MOL     0.0618
     36 H          12.6457    7.3259    9.2994 H         1 MOL     0.0624
     37 H          14.6670    7.3252    6.9441 H         1 MOL     0.0377
     38 H          14.0971    7.9760    8.5393 H         1 MOL     0.0377
     39 H          14.1434   10.6372    8.7147 H         1 MOL     0.0629
     40 H          15.4243   14.9773   10.0972 H         1 MOL     0.0480
     41 H          17.1534   14.7583   10.5520 H         1 MOL     0.0480
     42 H          14.6319   14.0248   12.1462 H         1 MOL     0.0480
     43 H          16.0079   15.0259   12.7226 H         1 MOL     0.0480
     44 H          15.8303   11.1035   11.9016 H         1 MOL     0.0480
     45 H          17.5165   11.2499   12.5149 H         1 MOL     0.0480
     46 H          17.1958   11.1755    9.9145 H         1 MOL     0.0480
     47 H          18.1416   12.5920   10.5115 H         1 MOL     0.0480
     48 H          16.2428   14.2172   15.6536 H         1 MOL     0.0394
     49 H          14.6062   12.7381   16.8216 H         1 MOL     0.0273
     50 H          14.5383   11.6563   15.3193 H         1 MOL     0.0273
     51 H          13.7348   14.5774   15.4790 H         1 MOL     0.0273
     52 H          13.7150   13.5214   13.9631 H         1 MOL     0.0273
     53 H          18.0105   10.1895    5.6587 H         1 MOL     0.0646
     54 H          16.4172    8.3102    5.9150 H         1 MOL     0.0621
     55 H          11.5901    9.5826    4.0647 H         1 MOL     0.1921
@<TRIPOS>BOND
     1    1   17 am
     2    1   18 1 
     3    1   21 1 
     4    2   19 1 
     5    2   20 1 
     6    2   22 am
     7    3    4 ar
     8    3   12 ar
     9    4    5 ar
    10    4   55 1 
    11    5    6 ar
    12    5   29 2 
    13    6    7 ar
    14    6   11 ar
    15    7    8 ar
    16    7   33 1 
    17    8    9 ar
    18    8   34 1 
    19    9   10 ar
    20    9   35 1 
    21   10   11 ar
    22   10   36 1 
    23   11   12 ar
    24   12   13 1 
    25   13   14 1 
    26   13   37 1 
    27   13   38 1 
    28   14   15 ar
    29   14   28 ar
    30   15   16 ar
    31   15   39 1 
    32   16   17 1 
    33   16   26 ar
    34   17   31 2 
    35   18   19 1 
    36   18   40 1 
    37   18   41 1 
    38   19   42 1 
    39   19   43 1 
    40   20   21 1 
    41   20   44 1 
    42   20   45 1 
    43   21   46 1 
    44   21   47 1 
    45   22   23 1 
    46   22   30 2 
    47   23   24 1 
    48   23   25 1 
    49   23   48 1 
    50   24   25 1 
    51   24   49 1 
    52   24   50 1 
    53   25   51 1 
    54   25   52 1 
    55   26   27 ar
    56   26   32 1 
    57   27   28 ar
    58   27   53 1 
    59   28   54 1 
@<TRIPOS>SUBSTRUCTURE
1 MOL         1
@<TRIPOS>MOLECULE
query molecule
   55    59     1     0     0
SMALL
NO_CHARGE

@<TRIPOS>ATOM
      1 N          29.0171    9.1348   20.6568 N.am      1 MOL    -0.2945
      2 N          26.3849    9.4713   21.7447 N.am      1 MOL    -0.2983
      3 N          30.3114    3.5476   16.9440 N.ar      1 MOL    -0.1750
      4 N          29.8136    2.3776   16.5532 N.ar      1 MOL    -0.2425
      5 C          30.6232    1.2205   16.5058 C.ar      1 MOL     0.2725
      6 C          31.9745    1.3396   16.8955 C.ar      1 MOL     0.0496
      7 C          32.8185    0.2276   16.8944 C.ar      1 MOL     0.0138
      8 C          34.1564    0.3611   17.2664 C.ar      1 MOL     0.0008
      9 C          34.6605    1.6113   17.6253 C.ar      1 MOL     0.0007
     10 C          33.8265    2.7322   17.6189 C.ar      1 MOL     0.0103
     11 C          32.4702    2.6251   17.2714 C.ar      1 MOL     0.0106
     12 C          31.6156    3.7447   17.2895 C.ar      1 MOL     0.0736
     13 C          32.0969    5.1164   17.6158 C.3       1 MOL     0.0925
     14 C          31.7434    5.6862   18.9359 C.ar      1 MOL    -0.0406
     15 C          31.1508    6.9637   18.9874 C.ar      1 MOL     0.0196
     16 C          30.8771    7.6004   20.2199 C.ar      1 MOL     0.0723
     17 C          30.2757    8.9617   20.1687 C.2       1 MOL     0.2495
     18 C          28.0609    9.9929   19.9532 C.3       1 MOL     0.1268
     19 C          26.5814    9.6084   20.3151 C.3       1 MOL     0.1265
     20 C          27.3993    8.7350   22.4617 C.3       1 MOL     0.1265
     21 C          28.8336    9.1751   22.0993 C.3       1 MOL     0.1268
     22 C          25.3296    9.9093   22.4766 C.2       1 MOL     0.2187
     23 C          24.3508   10.7826   21.7953 C.3       1 MOL     0.0752
     24 C          23.0070   10.7077   22.4178 C.3       1 MOL     0.0134
     25 C          23.2704   10.0229   21.1089 C.3       1 MOL     0.0134
     26 C          31.2028    6.9317   21.3964 C.ar      1 MOL     0.1355
     27 C          31.7644    5.6517   21.3621 C.ar      1 MOL     0.0392
     28 C          32.0321    5.0357   20.1376 C.ar      1 MOL     0.0066
     29 O          30.1046    0.1639   16.1054 O.2       1 MOL    -0.2658
     30 O          25.2116    9.6643   23.6907 O.2       1 MOL    -0.2753
     31 O          30.8782    9.8320   19.5305 O.2       1 MOL    -0.2699
     32 F          31.0109    7.4912   22.6145 F         1 MOL    -0.2047
     33 H          32.4347   -0.7416   16.6075 H         1 MOL     0.0625
     34 H          34.8024   -0.5042   17.2807 H         1 MOL     0.0618
     35 H          35.6950    1.7106   17.9215 H         1 MOL     0.0618
     36 H          34.2289    3.6951   17.9061 H         1 MOL     0.0624
     37 H          31.6883    5.8006   16.8409 H         1 MOL     0.0377
     38 H          33.2053    5.1093   17.5430 H         1 MOL     0.0377
     39 H          30.9091    7.4713   18.0614 H         1 MOL     0.0629
     40 H          28.2400    9.9190   18.8579 H         1 MOL     0.0480
     41 H          28.2532   11.0477   20.2666 H         1 MOL     0.0480
     42 H          26.3664    8.6130   19.8478 H         1 MOL     0.0480
     43 H          25.8512   10.3426   19.9105 H         1 MOL     0.0480
     44 H          27.2885    7.6562   22.1739 H         1 MOL     0.0480
     45 H          27.2074    8.7973   23.5550 H         1 MOL     0.0480
     46 H          29.5825    8.5037   22.5772 H         1 MOL     0.0480
     47 H          29.0066   10.2110   22.4652 H         1 MOL     0.0480
     48 H          24.7341   11.6855   21.3936 H         1 MOL     0.0394
     49 H          22.4173   11.6157   22.3850 H         1 MOL     0.0273
     50 H          22.8941   10.0659   23.2804 H         1 MOL     0.0273
     51 H          22.8354   10.4894   20.2302 H         1 MOL     0.0273
     52 H          23.3099    8.9420   21.1292 H         1 MOL     0.0273
     53 H          31.9930    5.1522   22.2919 H         1 MOL     0.0646
     54 H          32.4774    4.0518   20.1264 H         1 MOL     0.0621
     55 H          28.8484    2.2604   16.2982 H         1 MOL     0.1921
@<TRIPOS>BOND
     1    1   17 am
     2    1   18 1 
     3    1   21 1 
     4    2   19 1 
     5    2   20 1 
     6    2   22 am
     7    3    4 ar
     8    3   12 ar
     9    4    5 ar
    10    4   55 1 
    11    5    6 ar
    12    5   29 2 
    13    6    7 ar
    14    6   11 ar
    15    7    8 ar
    16    7   33 1 
    17    8    9 ar
    18    8   34 1 
    19    9   10 ar
    20    9   35 1 
    21   10   11 ar
    22   10   36 1 
    23   11   12 ar
    24   12   13 1 
    25   13   14 1 
    26   13   37 1 
    27   13   38 1 
    28   14   15 ar
    29   14   28 ar
    30   15   16 ar
    31   15   39 1 
    32   16   17 1 
    33   16   26 ar
    34   17   31 2 
    35   18   19 1 
    36   18   40 1 
    37   18   41 1 
    38   19   42 1 
    39   19   43 1 
    40   20   21 1 
    41   20   44 1 
    42   20   45 1 
    43   21   46 1 
    44   21   47 1 
    45   22   23 1 
    46   22   30 2 
    47   23   24 1 
    48   23   25 1 
    49   23   48 1 
    50   24   25 1 
    51   24   49 1 
    52   24   50 1 
    53   25   51 1 
    54   25   52 1 
    55   26   27 ar
    56   26   32 1 
    57   27   28 ar
    58   27   53 1 
    59   28   54 1 
@<TRIPOS>SUBSTRUCTURE
1 MOL         1
@<TRIPOS>MOLECULE
query molecule
   55    59     1     0     0
SMALL
NO_CHARGE

@<TRIPOS>ATOM
      1 N          -2.4745  -11.4981   22.6434 N.am      1 MOL    -0.2945
      2 N          -1.3601  -13.5131   24.3096 N.am      1 MOL    -0.2983
      3 N          -6.1830   -7.5232   22.1043 N.ar      1 MOL    -0.1750
      4 N          -6.0986   -6.2338   22.4064 N.ar      1 MOL    -0.2425
      5 C          -6.8729   -5.2737   21.7133 C.ar      1 MOL     0.2725
      6 C          -7.7155   -5.7186   20.6702 C.ar      1 MOL     0.0496
      7 C          -8.4696   -4.8102   19.9178 C.ar      1 MOL     0.0138
      8 C          -9.3005   -5.2655   18.8917 C.ar      1 MOL     0.0008
      9 C          -9.3862   -6.6325   18.6167 C.ar      1 MOL     0.0007
     10 C          -8.6380   -7.5469   19.3626 C.ar      1 MOL     0.0103
     11 C          -7.7851   -7.1156   20.3915 C.ar      1 MOL     0.0106
     12 C          -7.0046   -8.0205   21.1351 C.ar      1 MOL     0.0736
     13 C          -7.0555   -9.4971   20.8987 C.3       1 MOL     0.0925
     14 C          -5.8036  -10.0233   20.2945 C.ar      1 MOL    -0.0406
     15 C          -4.6828  -10.2838   21.0921 C.ar      1 MOL     0.0196
     16 C          -3.4973  -10.7722   20.5308 C.ar      1 MOL     0.0723
     17 C          -2.3133  -11.0107   21.3839 C.2       1 MOL     0.2495
     18 C          -1.5360  -11.1066   23.6888 C.3       1 MOL     0.1268
     19 C          -0.6096  -12.2904   24.0932 C.3       1 MOL     0.1265
     20 C          -2.3323  -13.8841   23.2726 C.3       1 MOL     0.1265
     21 C          -3.2636  -12.6865   22.8993 C.3       1 MOL     0.1268
     22 C          -1.2246  -14.3677   25.3613 C.2       1 MOL     0.2187
     23 C          -0.4837  -13.9337   26.5620 C.3       1 MOL     0.0752
     24 C           0.9825  -13.7809   26.4887 C.3       1 MOL     0.0134
     25 C           0.3886  -15.0619   26.9964 C.3       1 MOL     0.0134
     26 C          -3.4478  -11.0041   19.1511 C.ar      1 MOL     0.1355
     27 C          -4.5645  -10.7669   18.3450 C.ar      1 MOL     0.0392
     28 C          -5.7406  -10.2744   18.9181 C.ar      1 MOL     0.0066
     29 O          -6.7917   -4.0890   22.0721 O.2       1 MOL    -0.2658
     30 O          -1.7999  -15.4686   25.3835 O.2       1 MOL    -0.2753
     31 O          -1.2097  -10.6602   20.9557 O.2       1 MOL    -0.2699
     32 F          -2.3170  -11.4703   18.5710 F         1 MOL    -0.2047
     33 H          -8.4112   -3.7532   20.1321 H         1 MOL     0.0625
     34 H          -9.8811   -4.5632   18.3127 H         1 MOL     0.0618
     35 H         -10.0343   -6.9849   17.8270 H         1 MOL     0.0618
     36 H          -8.7138   -8.6028   19.1404 H         1 MOL     0.0624
     37 H          -7.8952   -9.7145   20.2123 H         1 MOL     0.0377
     38 H          -7.2157  -10.0025   21.8697 H         1 MOL     0.0377
     39 H          -4.7334  -10.0974   22.1573 H         1 MOL     0.0629
     40 H          -2.1329  -10.7961   24.5832 H         1 MOL     0.0480
     41 H          -0.9540  -10.2221   23.3462 H         1 MOL     0.0480
     42 H           0.0249  -12.0606   24.9795 H         1 MOL     0.0480
     43 H           0.0788  -12.4705   23.2283 H         1 MOL     0.0480
     44 H          -2.9298  -14.7525   23.6313 H         1 MOL     0.0480
     45 H          -1.7711  -14.2019   22.3606 H         1 MOL     0.0480
     46 H          -3.9488  -12.4719   23.7574 H         1 MOL     0.0480
     47 H          -3.8958  -12.9188   22.0137 H         1 MOL     0.0480
     48 H          -1.0707  -13.4202   27.2890 H         1 MOL     0.0394
     49 H           1.4545  -13.1999   27.2753 H         1 MOL     0.0273
     50 H           1.4867  -13.8221   25.5345 H         1 MOL     0.0273
     51 H           0.4091  -15.2718   28.0591 H         1 MOL     0.0273
     52 H           0.4674  -15.9173   26.3349 H         1 MOL     0.0273
     53 H          -4.5200  -10.9621   17.2842 H         1 MOL     0.0646
     54 H          -6.6070  -10.0900   18.2981 H         1 MOL     0.0621
     55 H          -5.4553   -5.8798   23.0925 H         1 MOL     0.1921
@<TRIPOS>BOND
     1    1   17 am
     2    1   18 1 
     3    1   21 1 
     4    2   19 1 
     5    2   20 1 
     6    2   22 am
     7    3    4 ar
     8    3   12 ar
     9    4    5 ar
    10    4   55 1 
    11    5    6 ar
    12    5   29 2 
    13    6    7 ar
    14    6   11 ar
    15    7    8 ar
    16    7   33 1 
    17    8    9 ar
    18    8   34 1 
    19    9   10 ar
    20    9   35 1 
    21   10   11 ar
    22   10   36 1 
    23   11   12 ar
    24   12   13 1 
    25   13   14 1 
    26   13   37 1 
    27   13   38 1 
    28   14   15 ar
    29   14   28 ar
    30   15   16 ar
    31   15   39 1 
    32   16   17 1 
    33   16   26 ar
    34   17   31 2 
    35   18   19 1 
    36   18   40 1 
    37   18   41 1 
    38   19   42 1 
    39   19   43 1 
    40   20   21 1 
    41   20   44 1 
    42   20   45 1 
    43   21   46 1 
    44   21   47 1 
    45   22   23 1 
    46   22   30 2 
    47   23   24 1 
    48   23   25 1 
    49   23   48 1 
    50   24   25 1 
    51   24   49 1 
    52   24   50 1 
    53   25   51 1 
    54   25   52 1 
    55   26   27 ar
    56   26   32 1 
    57   27   28 ar
    58   27   53 1 
    59   28   54 1 
@<TRIPOS>SUBSTRUCTURE
1 MOL         1
@<TRIPOS>MOLECULE
query molecule
   55    59     1     0     0
SMALL
NO_CHARGE

@<TRIPOS>ATOM
      1 N          16.4718   -6.8025   12.3939 N.am      1 MOL    -0.2945
      2 N          17.5177   -5.7987   14.8526 N.am      1 MOL    -0.2983
      3 N          16.2897  -10.5416    6.8394 N.ar      1 MOL    -0.1750
      4 N          17.2663  -10.6901    5.9588 N.ar      1 MOL    -0.2425
      5 C          17.8272  -11.9428    5.6541 C.ar      1 MOL     0.2725
      6 C          17.3110  -13.0695    6.3212 C.ar      1 MOL     0.0496
      7 C          17.7996  -14.3501    6.0493 C.ar      1 MOL     0.0138
      8 C          17.2802  -15.4580    6.7202 C.ar      1 MOL     0.0008
      9 C          16.2670  -15.2892    7.6675 C.ar      1 MOL     0.0007
     10 C          15.7647  -14.0148    7.9454 C.ar      1 MOL     0.0103
     11 C          16.2706  -12.8837    7.2829 C.ar      1 MOL     0.0106
     12 C          15.7763  -11.5916    7.5380 C.ar      1 MOL     0.0736
     13 C          14.6960  -11.3290    8.5332 C.3       1 MOL     0.0925
     14 C          15.2237  -10.7693    9.8035 C.ar      1 MOL    -0.0406
     15 C          15.4059   -9.3914    9.9603 C.ar      1 MOL     0.0196
     16 C          15.8311   -8.8426   11.1907 C.ar      1 MOL     0.0723
     17 C          15.9128   -7.3596   11.2882 C.2       1 MOL     0.2495
     18 C          15.9123   -5.5607   12.9229 C.3       1 MOL     0.1268
     19 C          16.1528   -5.4683   14.4621 C.3       1 MOL     0.1265
     20 C          18.2134   -6.8797   14.1527 C.3       1 MOL     0.1265
     21 C          17.9055   -6.9467   12.6327 C.3       1 MOL     0.1268
     22 C          18.1659   -5.2238   15.9111 C.2       1 MOL     0.2187
     23 C          17.3953   -4.3203   16.8043 C.3       1 MOL     0.0752
     24 C          17.9854   -4.1509   18.1591 C.3       1 MOL     0.0134
     25 C          16.8379   -5.0942   17.9557 C.3       1 MOL     0.0134
     26 C          16.1047   -9.7200   12.2397 C.ar      1 MOL     0.1355
     27 C          15.9575  -11.1027   12.0826 C.ar      1 MOL     0.0392
     28 C          15.5096  -11.6277   10.8703 C.ar      1 MOL     0.0066
     29 O          18.7532  -11.9775    4.8323 O.2       1 MOL    -0.2658
     30 O          19.3666   -5.4341   16.1478 O.2       1 MOL    -0.2753
     31 O          15.3430   -6.6884   10.4166 O.2       1 MOL    -0.2699
     32 F          16.4976   -9.2776   13.4550 F         1 MOL    -0.2047
     33 H          18.5750  -14.4813    5.3098 H         1 MOL     0.0625
     34 H          17.6564  -16.4475    6.4996 H         1 MOL     0.0618
     35 H          15.8657  -16.1514    8.1813 H         1 MOL     0.0618
     36 H          14.9741  -13.9027    8.6769 H         1 MOL     0.0624
     37 H          14.1816  -12.2817    8.7582 H         1 MOL     0.0377
     38 H          13.9884  -10.5997    8.0992 H         1 MOL     0.0377
     39 H          15.2038   -8.7313    9.1273 H         1 MOL     0.0629
     40 H          14.8252   -5.5185   12.6852 H         1 MOL     0.0480
     41 H          16.4103   -4.7095   12.3993 H         1 MOL     0.0480
     42 H          15.4680   -6.1954   14.9629 H         1 MOL     0.0480
     43 H          15.9014   -4.4493   14.8380 H         1 MOL     0.0480
     44 H          17.8668   -7.8443   14.6035 H         1 MOL     0.0480
     45 H          19.3085   -6.7943   14.3399 H         1 MOL     0.0480
     46 H          18.2563   -7.9122   12.2027 H         1 MOL     0.0480
     47 H          18.4308   -6.1205   12.0960 H         1 MOL     0.0480
     48 H          16.8165   -3.5731   16.3266 H         1 MOL     0.0394
     49 H          17.7546   -3.2316   18.6854 H         1 MOL     0.0273
     50 H          18.9559   -4.5977   18.3347 H         1 MOL     0.0273
     51 H          15.8767   -4.7856   18.3481 H         1 MOL     0.0273
     52 H          17.0800   -6.1496   18.0158 H         1 MOL     0.0273
     53 H          16.1760  -11.7639   12.9089 H         1 MOL     0.0646
     54 H          15.3743  -12.6944   10.7628 H         1 MOL     0.0621
     55 H          17.5839   -9.9148    5.4070 H         1 MOL     0.1921
@<TRIPOS>BOND
     1    1   17 am
     2    1   18 1 
     3    1   21 1 
     4    2   19 1 
     5    2   20 1 
     6    2   22 am
     7    3    4 ar
     8    3   12 ar
     9    4    5 ar
    10    4   55 1 
    11    5    6 ar
    12    5   29 2 
    13    6    7 ar
    14    6   11 ar
    15    7    8 ar
    16    7   33 1 
    17    8    9 ar
    18    8   34 1 
    19    9   10 ar
    20    9   35 1 
    21   10   11 ar
    22   10   36 1 
    23   11   12 ar
    24   12   13 1 
    25   13   14 1 
    26   13   37 1 
    27   13   38 1 
    28   14   15 ar
    29   14   28 ar
    30   15   16 ar
    31   15   39 1 
    32   16   17 1 
    33   16   26 ar
    34   17   31 2 
    35   18   19 1 
    36   18   40 1 
    37   18   41 1 
    38   19   42 1 
    39   19   43 1 
    40   20   21 1 
    41   20   44 1 
    42   20   45 1 
    43   21   46 1 
    44   21   47 1 
    45   22   23 1 
    46   22   30 2 
    47   23   24 1 
    48   23   25 1 
    49   23   48 1 
    50   24   25 1 
    51   24   49 1 
    52   24   50 1 
    53   25   51 1 
    54   25   52 1 
    55   26   27 ar
    56   26   32 1 
    57   27   28 ar
    58   27   53 1 
    59   28   54 1 
@<TRIPOS>SUBSTRUCTURE
1 MOL         1
@<TRIPOS>MOLECULE
query molecule
   55    59     1     0     0
SMALL
NO_CHARGE

@<TRIPOS>ATOM
      1 N          15.9959   -7.0480   12.7237 N.am      1 MOL    -0.2945
      2 N          16.6770   -7.8789   10.0767 N.am      1 MOL    -0.2983
      3 N          17.0948   -1.4996   11.7749 N.ar      1 MOL    -0.1750
      4 N          17.0035   -0.7287   10.6997 N.ar      1 MOL    -0.2425
      5 C          16.9351    0.6740   10.8303 C.ar      1 MOL     0.2725
      6 C          16.9468    1.2383   12.1246 C.ar      1 MOL     0.0496
      7 C          16.8842    2.6212   12.3185 C.ar      1 MOL     0.0138
      8 C          16.9137    3.1614   13.5988 C.ar      1 MOL     0.0008
      9 C          16.9991    2.3217   14.7069 C.ar      1 MOL     0.0007
     10 C          17.0599    0.9400   14.5331 C.ar      1 MOL     0.0103
     11 C          17.0406    0.3722   13.2488 C.ar      1 MOL     0.0106
     12 C          17.1325   -1.0169   13.0472 C.ar      1 MOL     0.0736
     13 C          17.3192   -1.9393   14.1980 C.3       1 MOL     0.0925
     14 C          16.2467   -2.9371   14.3645 C.ar      1 MOL    -0.0406
     15 C          16.4675   -4.2739   14.0040 C.ar      1 MOL     0.0196
     16 C          15.5049   -5.2418   14.3023 C.ar      1 MOL     0.0723
     17 C          15.7247   -6.6560   13.9883 C.2       1 MOL     0.2495
     18 C          16.4380   -8.4270   12.5101 C.3       1 MOL     0.1268
     19 C          17.2948   -8.5382   11.2181 C.3       1 MOL     0.1265
     20 C          15.9974   -6.6009   10.2872 C.3       1 MOL     0.1265
     21 C          15.2177   -6.4997   11.6161 C.3       1 MOL     0.1268
     22 C          16.8187   -8.3111    8.7879 C.2       1 MOL     0.2187
     23 C          17.6748   -9.4968    8.5365 C.3       1 MOL     0.0752
     24 C          17.2449  -10.2678    7.3353 C.3       1 MOL     0.0134
     25 C          16.9687  -10.7920    8.7137 C.3       1 MOL     0.0134
     26 C          14.3268   -4.8766   14.9511 C.ar      1 MOL     0.1355
     27 C          14.0895   -3.5410   15.2404 C.ar      1 MOL     0.0392
     28 C          15.0323   -2.5615   14.9441 C.ar      1 MOL     0.0066
     29 O          16.8869    1.3403    9.7871 O.2       1 MOL    -0.2658
     30 O          16.3191   -7.6983    7.8325 O.2       1 MOL    -0.2753
     31 O          15.7088   -7.4056   14.9534 O.2       1 MOL    -0.2699
     32 F          13.4134   -5.8115   15.3101 F         1 MOL    -0.2047
     33 H          16.8163    3.2798   11.4637 H         1 MOL     0.0625
     34 H          16.8719    4.2318   13.7350 H         1 MOL     0.0618
     35 H          17.0217    2.7440   15.7010 H         1 MOL     0.0618
     36 H          17.1298    0.3001   15.4021 H         1 MOL     0.0624
     37 H          17.3577   -1.3272   15.1237 H         1 MOL     0.0377
     38 H          18.2774   -2.4764   14.0645 H         1 MOL     0.0377
     39 H          17.3910   -4.5584   13.5231 H         1 MOL     0.0629
     40 H          15.5242   -9.0635   12.4100 H         1 MOL     0.0480
     41 H          17.0019   -8.7776   13.4025 H         1 MOL     0.0480
     42 H          17.5021   -9.6014   10.9609 H         1 MOL     0.0480
     43 H          18.2742   -8.0356   11.4130 H         1 MOL     0.0480
     44 H          15.3372   -6.3868    9.4151 H         1 MOL     0.0480
     45 H          16.7890   -5.8083   10.3072 H         1 MOL     0.0480
     46 H          14.2712   -7.0883   11.5364 H         1 MOL     0.0480
     47 H          14.9450   -5.4436   11.8392 H         1 MOL     0.0480
     48 H          18.6990   -9.3812    8.7879 H         1 MOL     0.0394
     49 H          18.0312  -10.7435    6.7633 H         1 MOL     0.0273
     50 H          16.3969   -9.8741    6.7868 H         1 MOL     0.0273
     51 H          17.5691  -11.6451    9.0120 H         1 MOL     0.0273
     52 H          15.9400  -10.7677    9.0463 H         1 MOL     0.0273
     53 H          13.1535   -3.2575   15.7041 H         1 MOL     0.0646
     54 H          14.8314   -1.5276   15.1775 H         1 MOL     0.0621
     55 H          17.1068   -1.0683    9.7556 H         1 MOL     0.1921
@<TRIPOS>BOND
     1    1   17 am
     2    1   18 1 
     3    1   21 1 
     4    2   19 1 
     5    2   20 1 
     6    2   22 am
     7    3    4 ar
     8    3   12 ar
     9    4    5 ar
    10    4   55 1 
    11    5    6 ar
    12    5   29 2 
    13    6    7 ar
    14    6   11 ar
    15    7    8 ar
    16    7   33 1 
    17    8    9 ar
    18    8   34 1 
    19    9   10 ar
    20    9   35 1 
    21   10   11 ar
    22   10   36 1 
    23   11   12 ar
    24   12   13 1 
    25   13   14 1 
    26   13   37 1 
    27   13   38 1 
    28   14   15 ar
    29   14   28 ar
    30   15   16 ar
    31   15   39 1 
    32   16   17 1 
    33   16   26 ar
    34   17   31 2 
    35   18   19 1 
    36   18   40 1 
    37   18   41 1 
    38   19   42 1 
    39   19   43 1 
    40   20   21 1 
    41   20   44 1 
    42   20   45 1 
    43   21   46 1 
    44   21   47 1 
    45   22   23 1 
    46   22   30 2 
    47   23   24 1 
    48   23   25 1 
    49   23   48 1 
    50   24   25 1 
    51   24   49 1 
    52   24   50 1 
    53   25   51 1 
    54   25   52 1 
    55   26   27 ar
    56   26   32 1 
    57   27   28 ar
    58   27   53 1 
    59   28   54 1 
@<TRIPOS>SUBSTRUCTURE
1 MOL         1
@<TRIPOS>MOLECULE
query molecule
   55    59     1     0     0
SMALL
NO_CHARGE

@<TRIPOS>ATOM
      1 N          27.6032    6.3382    1.1115 N.am      1 MOL    -0.2945
      2 N          29.9412    7.9520    0.9705 N.am      1 MOL    -0.2983
      3 N          21.6435    4.9292    3.9515 N.ar      1 MOL    -0.1750
      4 N          21.3512    4.1613    4.9944 N.ar      1 MOL    -0.2425
      5 C          20.9324    4.7205    6.2213 C.ar      1 MOL     0.2725
      6 C          20.7917    6.1175    6.3072 C.ar      1 MOL     0.0496
      7 C          20.3982    6.7265    7.4912 C.ar      1 MOL     0.0138
      8 C          20.1565    8.0963    7.5514 C.ar      1 MOL     0.0008
      9 C          20.3362    8.8789    6.4114 C.ar      1 MOL     0.0007
     10 C          20.7912    8.2902    5.2300 C.ar      1 MOL     0.0103
     11 C          21.0458    6.9097    5.1622 C.ar      1 MOL     0.0106
     12 C          21.5469    6.2905    4.0030 C.ar      1 MOL     0.0736
     13 C          21.9565    7.1508    2.8614 C.3       1 MOL     0.0925
     14 C          22.9903    6.5336    2.0182 C.ar      1 MOL    -0.0406
     15 C          24.3229    6.4259    2.4132 C.ar      1 MOL     0.0196
     16 C          25.2636    5.9038    1.5164 C.ar      1 MOL     0.0723
     17 C          26.6793    5.7834    1.9239 C.2       1 MOL     0.2495
     18 C          28.8783    5.6775    0.9245 C.3       1 MOL     0.1268
     19 C          30.0043    6.5895    1.4571 C.3       1 MOL     0.1265
     20 C          28.6277    8.5971    0.9612 C.3       1 MOL     0.1265
     21 C          27.4658    7.6583    0.5171 C.3       1 MOL     0.1268
     22 C          31.0501    8.6906    0.6628 C.2       1 MOL     0.2187
     23 C          32.3513    8.2706    1.2400 C.3       1 MOL     0.0752
     24 C          33.5286    8.8977    0.5853 C.3       1 MOL     0.0134
     25 C          33.2174    7.4482    0.3630 C.3       1 MOL     0.0134
     26 C          24.8642    5.4868    0.2385 C.ar      1 MOL     0.1355
     27 C          23.5239    5.5680   -0.1338 C.ar      1 MOL     0.0392
     28 C          22.5962    6.0716    0.7667 C.ar      1 MOL     0.0066
     29 O          20.6834    3.9506    7.1608 O.2       1 MOL    -0.2658
     30 O          30.9752    9.7577    0.0339 O.2       1 MOL    -0.2753
     31 O          26.9457    5.0706    2.8954 O.2       1 MOL    -0.2699
     32 F          25.7732    4.9803   -0.6223 F         1 MOL    -0.2047
     33 H          20.2515    6.1209    8.3759 H         1 MOL     0.0625
     34 H          19.8249    8.5469    8.4752 H         1 MOL     0.0618
     35 H          20.1289    9.9382    6.4460 H         1 MOL     0.0618
     36 H          20.9518    8.9075    4.3566 H         1 MOL     0.0624
     37 H          22.3687    8.0923    3.2764 H         1 MOL     0.0377
     38 H          21.0679    7.3657    2.2417 H         1 MOL     0.0377
     39 H          24.6270    6.7478    3.3975 H         1 MOL     0.0629
     40 H          29.0206    5.4929   -0.1670 H         1 MOL     0.0480
     41 H          28.8614    4.6929    1.4400 H         1 MOL     0.0480
     42 H          31.0144    6.1606    1.2498 H         1 MOL     0.0480
     43 H          29.8749    6.6317    2.5686 H         1 MOL     0.0480
     44 H          28.6717    9.5214    0.3440 H         1 MOL     0.0480
     45 H          28.4092    8.9068    2.0155 H         1 MOL     0.0480
     46 H          27.5060    7.5409   -0.5945 H         1 MOL     0.0480
     47 H          26.4711    8.0850    0.7738 H         1 MOL     0.0480
     48 H          32.3431    8.1207    2.2971 H         1 MOL     0.0394
     49 H          34.3670    9.1397    1.2259 H         1 MOL     0.0273
     50 H          33.3313    9.5733   -0.2342 H         1 MOL     0.0273
     51 H          33.8979    6.7606    0.8585 H         1 MOL     0.0273
     52 H          32.8461    7.1714   -0.6132 H         1 MOL     0.0273
     53 H          23.2049    5.2426   -1.1117 H         1 MOL     0.0646
     54 H          21.5517    6.1273    0.4920 H         1 MOL     0.0621
     55 H          21.3908    3.1557    4.9680 H         1 MOL     0.1921
@<TRIPOS>BOND
     1    1   17 am
     2    1   18 1 
     3    1   21 1 
     4    2   19 1 
     5    2   20 1 
     6    2   22 am
     7    3    4 ar
     8    3   12 ar
     9    4    5 ar
    10    4   55 1 
    11    5    6 ar
    12    5   29 2 
    13    6    7 ar
    14    6   11 ar
    15    7    8 ar
    16    7   33 1 
    17    8    9 ar
    18    8   34 1 
    19    9   10 ar
    20    9   35 1 
    21   10   11 ar
    22   10   36 1 
    23   11   12 ar
    24   12   13 1 
    25   13   14 1 
    26   13   37 1 
    27   13   38 1 
    28   14   15 ar
    29   14   28 ar
    30   15   16 ar
    31   15   39 1 
    32   16   17 1 
    33   16   26 ar
    34   17   31 2 
    35   18   19 1 
    36   18   40 1 
    37   18   41 1 
    38   19   42 1 
    39   19   43 1 
    40   20   21 1 
    41   20   44 1 
    42   20   45 1 
    43   21   46 1 
    44   21   47 1 
    45   22   23 1 
    46   22   30 2 
    47   23   24 1 
    48   23   25 1 
    49   23   48 1 
    50   24   25 1 
    51   24   49 1 
    52   24   50 1 
    53   25   51 1 
    54   25   52 1 
    55   26   27 ar
    56   26   32 1 
    57   27   28 ar
    58   27   53 1 
    59   28   54 1 
@<TRIPOS>SUBSTRUCTURE
1 MOL         1
@<TRIPOS>MOLECULE
query molecule
   55    59     1     0     0
SMALL
NO_CHARGE

@<TRIPOS>ATOM
      1 N          -1.9406   14.3866   31.7027 N.am      1 MOL    -0.2945
      2 N          -2.9027   12.9080   33.9479 N.am      1 MOL    -0.2983
      3 N           1.0693   13.6930   26.5427 N.ar      1 MOL    -0.1750
      4 N           2.2965   13.4162   26.9571 N.ar      1 MOL    -0.2425
      5 C           3.3171   14.3873   26.8983 C.ar      1 MOL     0.2725
      6 C           3.0014   15.6486   26.3447 C.ar      1 MOL     0.0496
      7 C           3.9631   16.6560   26.2449 C.ar      1 MOL     0.0138
      8 C           3.6544   17.8826   25.6615 C.ar      1 MOL     0.0008
      9 C           2.3679   18.1189   25.1772 C.ar      1 MOL     0.0007
     10 C           1.3857   17.1327   25.2907 C.ar      1 MOL     0.0103
     11 C           1.6754   15.8919   25.8800 C.ar      1 MOL     0.0106
     12 C           0.6954   14.9015   26.0369 C.ar      1 MOL     0.0736
     13 C          -0.7467   15.1329   25.7009 C.3       1 MOL     0.0925
     14 C          -1.6236   14.7812   26.8584 C.ar      1 MOL    -0.0406
     15 C          -1.2701   15.1137   28.1728 C.ar      1 MOL     0.0196
     16 C          -2.0663   14.7436   29.2702 C.ar      1 MOL     0.0723
     17 C          -1.5679   15.1144   30.6176 C.2       1 MOL     0.2495
     18 C          -1.8538   15.0014   33.0280 C.3       1 MOL     0.1268
     19 C          -2.8765   14.3617   34.0133 C.3       1 MOL     0.1265
     20 C          -2.7680   12.2561   32.6467 C.3       1 MOL     0.1265
     21 C          -1.7357   12.9407   31.7158 C.3       1 MOL     0.1268
     22 C          -3.1494   12.0985   35.0148 C.2       1 MOL     0.2187
     23 C          -3.6244   12.6946   36.2874 C.3       1 MOL     0.0752
     24 C          -4.7369   11.8837   36.8708 C.3       1 MOL     0.0134
     25 C          -5.0339   13.1750   36.1689 C.3       1 MOL     0.0134
     26 C          -3.2593   14.0708   29.0210 C.ar      1 MOL     0.1355
     27 C          -3.6402   13.7461   27.7138 C.ar      1 MOL     0.0392
     28 C          -2.8223   14.0948   26.6348 C.ar      1 MOL     0.0066
     29 O           4.4405   14.0790   27.3304 O.2       1 MOL    -0.2658
     30 O          -2.9956   10.8671   34.9726 O.2       1 MOL    -0.2753
     31 O          -0.8899   16.1481   30.7045 O.2       1 MOL    -0.2699
     32 F          -4.0881   13.7185   30.0333 F         1 MOL    -0.2047
     33 H           4.9606   16.4764   26.6217 H         1 MOL     0.0625
     34 H           4.4123   18.6480   25.5867 H         1 MOL     0.0618
     35 H           2.1333   19.0680   24.7181 H         1 MOL     0.0618
     36 H           0.3889   17.3320   24.9217 H         1 MOL     0.0624
     37 H          -1.0217   14.5050   24.8369 H         1 MOL     0.0377
     38 H          -0.8868   16.2039   25.4646 H         1 MOL     0.0377
     39 H          -0.3504   15.6583   28.3486 H         1 MOL     0.0629
     40 H          -2.0301   16.0979   32.9368 H         1 MOL     0.0480
     41 H          -0.8144   14.8549   33.4095 H         1 MOL     0.0480
     42 H          -3.8975   14.7339   33.7552 H         1 MOL     0.0480
     43 H          -2.6582   14.6751   35.0610 H         1 MOL     0.0480
     44 H          -3.7668   12.3141   32.1438 H         1 MOL     0.0480
     45 H          -2.5301   11.1789   32.7982 H         1 MOL     0.0480
     46 H          -1.8215   12.5487   30.6770 H         1 MOL     0.0480
     47 H          -0.7001   12.7378   32.0781 H         1 MOL     0.0480
     48 H          -2.9066   13.1799   36.8901 H         1 MOL     0.0394
     49 H          -4.8438   11.8838   37.9480 H         1 MOL     0.0273
     50 H          -5.0068   10.9763   36.3434 H         1 MOL     0.0273
     51 H          -5.3306   14.0054   36.7981 H         1 MOL     0.0273
     52 H          -5.4914   13.1055   35.1892 H         1 MOL     0.0273
     53 H          -4.5689   13.2240   27.5369 H         1 MOL     0.0646
     54 H          -3.1134   13.8361   25.6275 H         1 MOL     0.0621
     55 H           2.5408   12.5142   27.3296 H         1 MOL     0.1921
@<TRIPOS>BOND
     1    1   17 am
     2    1   18 1 
     3    1   21 1 
     4    2   19 1 
     5    2   20 1 
     6    2   22 am
     7    3    4 ar
     8    3   12 ar
     9    4    5 ar
    10    4   55 1 
    11    5    6 ar
    12    5   29 2 
    13    6    7 ar
    14    6   11 ar
    15    7    8 ar
    16    7   33 1 
    17    8    9 ar
    18    8   34 1 
    19    9   10 ar
    20    9   35 1 
    21   10   11 ar
    22   10   36 1 
    23   11   12 ar
    24   12   13 1 
    25   13   14 1 
    26   13   37 1 
    27   13   38 1 
    28   14   15 ar
    29   14   28 ar
    30   15   16 ar
    31   15   39 1 
    32   16   17 1 
    33   16   26 ar
    34   17   31 2 
    35   18   19 1 
    36   18   40 1 
    37   18   41 1 
    38   19   42 1 
    39   19   43 1 
    40   20   21 1 
    41   20   44 1 
    42   20   45 1 
    43   21   46 1 
    44   21   47 1 
    45   22   23 1 
    46   22   30 2 
    47   23   24 1 
    48   23   25 1 
    49   23   48 1 
    50   24   25 1 
    51   24   49 1 
    52   24   50 1 
    53   25   51 1 
    54   25   52 1 
    55   26   27 ar
    56   26   32 1 
    57   27   28 ar
    58   27   53 1 
    59   28   54 1 
@<TRIPOS>SUBSTRUCTURE
1 MOL         1
@<TRIPOS>MOLECULE
query molecule
   55    59     1     0     0
SMALL
NO_CHARGE

@<TRIPOS>ATOM
      1 N          33.2938   14.3382   24.8637 N.am      1 MOL    -0.2945
      2 N          32.5140   13.3506   22.3026 N.am      1 MOL    -0.2983
      3 N          40.3742   12.7536   27.4858 N.ar      1 MOL    -0.1750
      4 N          41.2690   11.8407   27.0967 N.ar      1 MOL    -0.2425
      5 C          41.4059   11.5013   25.7378 C.ar      1 MOL     0.2725
      6 C          40.6060   12.1690   24.7907 C.ar      1 MOL     0.0496
      7 C          40.7261   11.8796   23.4307 C.ar      1 MOL     0.0138
      8 C          39.9614   12.5781   22.5022 C.ar      1 MOL     0.0008
      9 C          39.0599   13.5546   22.9284 C.ar      1 MOL     0.0007
     10 C          38.9118   13.8309   24.2843 C.ar      1 MOL     0.0103
     11 C          39.6801   13.1522   25.2404 C.ar      1 MOL     0.0106
     12 C          39.5641   13.4143   26.6139 C.ar      1 MOL     0.0736
     13 C          38.5899   14.3996   27.1639 C.3       1 MOL     0.0925
     14 C          37.2175   13.8431   27.2565 C.ar      1 MOL    -0.0406
     15 C          36.1703   14.5397   26.6308 C.ar      1 MOL     0.0196
     16 C          34.8536   14.0787   26.7305 C.ar      1 MOL     0.0723
     17 C          33.7556   14.8135   26.0528 C.2       1 MOL     0.2495
     18 C          32.5566   15.2277   23.9664 C.3       1 MOL     0.1268
     19 C          32.7034   14.7792   22.4803 C.3       1 MOL     0.1265
     20 C          33.1071   12.4566   23.2840 C.3       1 MOL     0.1265
     21 C          32.9358   12.9343   24.7319 C.3       1 MOL     0.1268
     22 C          31.9401   12.7574   21.2170 C.2       1 MOL     0.2187
     23 C          31.5519   13.6165   20.0726 C.3       1 MOL     0.0752
     24 C          31.7391   12.9455   18.7552 C.3       1 MOL     0.0134
     25 C          32.7497   13.9463   19.2345 C.3       1 MOL     0.0134
     26 C          34.6035   12.9318   27.4790 C.ar      1 MOL     0.1355
     27 C          35.6339   12.2158   28.0800 C.ar      1 MOL     0.0392
     28 C          36.9472   12.6663   27.9621 C.ar      1 MOL     0.0066
     29 O          42.2326   10.6200   25.4399 O.2       1 MOL    -0.2658
     30 O          31.7421   11.5367   21.1535 O.2       1 MOL    -0.2753
     31 O          33.3771   15.8811   26.5417 O.2       1 MOL    -0.2699
     32 F          33.3345   12.4958   27.6230 F         1 MOL    -0.2047
     33 H          41.4153   11.1168   23.1011 H         1 MOL     0.0625
     34 H          40.0619   12.3600   21.4488 H         1 MOL     0.0618
     35 H          38.4702   14.0942   22.2010 H         1 MOL     0.0618
     36 H          38.1985   14.5800   24.6001 H         1 MOL     0.0624
     37 H          38.5656   15.2852   26.5022 H         1 MOL     0.0377
     38 H          38.9187   14.6890   28.1795 H         1 MOL     0.0377
     39 H          36.3891   15.4377   26.0704 H         1 MOL     0.0629
     40 H          32.9174   16.2717   24.1085 H         1 MOL     0.0480
     41 H          31.4794   15.1936   24.2612 H         1 MOL     0.0480
     42 H          33.7421   15.0248   22.1421 H         1 MOL     0.0480
     43 H          31.9956   15.3333   21.8214 H         1 MOL     0.0480
     44 H          34.2066   12.4219   23.0700 H         1 MOL     0.0480
     45 H          32.7080   11.4283   23.1391 H         1 MOL     0.0480
     46 H          33.5700   12.3295   25.4207 H         1 MOL     0.0480
     47 H          31.8719   12.8123   25.0460 H         1 MOL     0.0480
     48 H          30.7921   14.3316   20.2444 H         1 MOL     0.0394
     49 H          31.0903   13.2694   17.9485 H         1 MOL     0.0273
     50 H          32.0387   11.9064   18.7677 H         1 MOL     0.0273
     51 H          32.7522   14.9111   18.7431 H         1 MOL     0.0273
     52 H          33.7065   13.5499   19.5543 H         1 MOL     0.0273
     53 H          35.4129   11.3201   28.6412 H         1 MOL     0.0646
     54 H          37.7515   12.1124   28.4228 H         1 MOL     0.0621
     55 H          41.8783   11.3792   27.7431 H         1 MOL     0.1921
@<TRIPOS>BOND
     1    1   17 am
     2    1   18 1 
     3    1   21 1 
     4    2   19 1 
     5    2   20 1 
     6    2   22 am
     7    3    4 ar
     8    3   12 ar
     9    4    5 ar
    10    4   55 1 
    11    5    6 ar
    12    5   29 2 
    13    6    7 ar
    14    6   11 ar
    15    7    8 ar
    16    7   33 1 
    17    8    9 ar
    18    8   34 1 
    19    9   10 ar
    20    9   35 1 
    21   10   11 ar
    22   10   36 1 
    23   11   12 ar
    24   12   13 1 
    25   13   14 1 
    26   13   37 1 
    27   13   38 1 
    28   14   15 ar
    29   14   28 ar
    30   15   16 ar
    31   15   39 1 
    32   16   17 1 
    33   16   26 ar
    34   17   31 2 
    35   18   19 1 
    36   18   40 1 
    37   18   41 1 
    38   19   42 1 
    39   19   43 1 
    40   20   21 1 
    41   20   44 1 
    42   20   45 1 
    43   21   46 1 
    44   21   47 1 
    45   22   23 1 
    46   22   30 2 
    47   23   24 1 
    48   23   25 1 
    49   23   48 1 
    50   24   25 1 
    51   24   49 1 
    52   24   50 1 
    53   25   51 1 
    54   25   52 1 
    55   26   27 ar
    56   26   32 1 
    57   27   28 ar
    58   27   53 1 
    59   28   54 1 
@<TRIPOS>SUBSTRUCTURE
1 MOL         1
@<TRIPOS>MOLECULE
query molecule
   55    59     1     0     0
SMALL
NO_CHARGE

@<TRIPOS>ATOM
      1 N          22.1305    6.5773   38.8030 N.am      1 MOL    -0.2945
      2 N          21.6309    4.7963   36.7600 N.am      1 MOL    -0.2983
      3 N          26.9662   11.4575   40.9440 N.ar      1 MOL    -0.1750
      4 N          28.1865   11.8661   40.6167 N.ar      1 MOL    -0.2425
      5 C          28.4216   13.1901   40.1800 C.ar      1 MOL     0.2725
      6 C          27.3263   14.0818   40.1282 C.ar      1 MOL     0.0496
      7 C          27.4880   15.4041   39.7069 C.ar      1 MOL     0.0138
      8 C          26.3907   16.2657   39.6537 C.ar      1 MOL     0.0008
      9 C          25.1265   15.8162   40.0369 C.ar      1 MOL     0.0007
     10 C          24.9527   14.4994   40.4616 C.ar      1 MOL     0.0103
     11 C          26.0361   13.6089   40.5028 C.ar      1 MOL     0.0106
     12 C          25.8707   12.2669   40.8850 C.ar      1 MOL     0.0736
     13 C          24.5254   11.7017   41.2141 C.3       1 MOL     0.0925
     14 C          23.9700   10.9118   40.0865 C.ar      1 MOL    -0.0406
     15 C          23.4334    9.6498   40.3460 C.ar      1 MOL     0.0196
     16 C          22.8927    8.8638   39.3087 C.ar      1 MOL     0.0723
     17 C          22.2661    7.5848   39.7089 C.2       1 MOL     0.2495
     18 C          21.0641    5.6078   39.0605 C.3       1 MOL     0.1268
     19 C          21.0112    4.4577   38.0288 C.3       1 MOL     0.1265
     20 C          22.9341    5.4561   36.7423 C.3       1 MOL     0.1265
     21 C          23.3175    6.0826   38.1117 C.3       1 MOL     0.1268
     22 C          21.0729    4.4415   35.5675 C.2       1 MOL     0.2187
     23 C          19.6246    4.1226   35.5560 C.3       1 MOL     0.0752
     24 C          18.9255    4.2444   34.2583 C.3       1 MOL     0.0134
     25 C          18.8562    5.3696   35.2172 C.3       1 MOL     0.0134
     26 C          22.9433    9.3535   38.0107 C.ar      1 MOL     0.1355
     27 C          23.4451   10.6248   37.7393 C.ar      1 MOL     0.0392
     28 C          23.9522   11.3952   38.7801 C.ar      1 MOL     0.0066
     29 O          29.5794   13.4978   39.8564 O.2       1 MOL    -0.2658
     30 O          21.7545    4.3494   34.5366 O.2       1 MOL    -0.2753
     31 O          21.7703    7.5503   40.8415 O.2       1 MOL    -0.2699
     32 F          22.5157    8.6228   36.9626 F         1 MOL    -0.2047
     33 H          28.4654   15.7586   39.4146 H         1 MOL     0.0625
     34 H          26.5199   17.2837   39.3167 H         1 MOL     0.0618
     35 H          24.2811   16.4876   40.0070 H         1 MOL     0.0618
     36 H          23.9704   14.1591   40.7590 H         1 MOL     0.0624
     37 H          23.8348   12.5337   41.4392 H         1 MOL     0.0377
     38 H          24.6277   11.0359   42.0910 H         1 MOL     0.0377
     39 H          23.4284    9.2740   41.3604 H         1 MOL     0.0629
     40 H          20.0929    6.1573   39.0806 H         1 MOL     0.0480
     41 H          21.2173    5.1623   40.0737 H         1 MOL     0.0480
     42 H          19.9711    4.1026   37.8595 H         1 MOL     0.0480
     43 H          21.5948    3.5991   38.4516 H         1 MOL     0.0480
     44 H          22.8960    6.2559   35.9610 H         1 MOL     0.0480
     45 H          23.7127    4.7223   36.4302 H         1 MOL     0.0480
     46 H          24.0517    6.9090   37.9900 H         1 MOL     0.0480
     47 H          23.7844    5.2989   38.7566 H         1 MOL     0.0480
     48 H          19.2833    3.4715   36.3265 H         1 MOL     0.0394
     49 H          18.0491    3.6192   34.1364 H         1 MOL     0.0273
     50 H          19.5672    4.3449   33.3943 H         1 MOL     0.0273
     51 H          17.8892    5.5110   35.6889 H         1 MOL     0.0273
     52 H          19.4270    6.2460   34.9436 H         1 MOL     0.0273
     53 H          23.4384   11.0078   36.7307 H         1 MOL     0.0646
     54 H          24.3407   12.3824   38.5719 H         1 MOL     0.0621
     55 H          28.9905   11.2652   40.6819 H         1 MOL     0.1921
@<TRIPOS>BOND
     1    1   17 am
     2    1   18 1 
     3    1   21 1 
     4    2   19 1 
     5    2   20 1 
     6    2   22 am
     7    3    4 ar
     8    3   12 ar
     9    4    5 ar
    10    4   55 1 
    11    5    6 ar
    12    5   29 2 
    13    6    7 ar
    14    6   11 ar
    15    7    8 ar
    16    7   33 1 
    17    8    9 ar
    18    8   34 1 
    19    9   10 ar
    20    9   35 1 
    21   10   11 ar
    22   10   36 1 
    23   11   12 ar
    24   12   13 1 
    25   13   14 1 
    26   13   37 1 
    27   13   38 1 
    28   14   15 ar
    29   14   28 ar
    30   15   16 ar
    31   15   39 1 
    32   16   17 1 
    33   16   26 ar
    34   17   31 2 
    35   18   19 1 
    36   18   40 1 
    37   18   41 1 
    38   19   42 1 
    39   19   43 1 
    40   20   21 1 
    41   20   44 1 
    42   20   45 1 
    43   21   46 1 
    44   21   47 1 
    45   22   23 1 
    46   22   30 2 
    47   23   24 1 
    48   23   25 1 
    49   23   48 1 
    50   24   25 1 
    51   24   49 1 
    52   24   50 1 
    53   25   51 1 
    54   25   52 1 
    55   26   27 ar
    56   26   32 1 
    57   27   28 ar
    58   27   53 1 
    59   28   54 1 
@<TRIPOS>SUBSTRUCTURE
1 MOL         1
@<TRIPOS>MOLECULE
query molecule
   55    59     1     0     0
SMALL
NO_CHARGE

@<TRIPOS>ATOM
      1 N          36.2944  -12.2976   22.6136 N.am      1 MOL    -0.2945
      2 N          37.3528   -9.6940   23.1564 N.am      1 MOL    -0.2983
      3 N          31.4191  -10.2854   19.4848 N.ar      1 MOL    -0.1750
      4 N          30.3611   -9.5371   19.7641 N.ar      1 MOL    -0.2425
      5 C          29.0805   -9.8800   19.2873 C.ar      1 MOL     0.2725
      6 C          28.9515  -11.0167   18.4671 C.ar      1 MOL     0.0496
      7 C          27.7131  -11.3732   17.9264 C.ar      1 MOL     0.0138
      8 C          27.6060  -12.4854   17.0908 C.ar      1 MOL     0.0008
      9 C          28.7374  -13.2484   16.7965 C.ar      1 MOL     0.0007
     10 C          29.9762  -12.9070   17.3448 C.ar      1 MOL     0.0103
     11 C          30.1097  -11.7946   18.1889 C.ar      1 MOL     0.0106
     12 C          31.3384  -11.4365   18.7656 C.ar      1 MOL     0.0736
     13 C          32.5654  -12.2761   18.6265 C.3       1 MOL     0.0925
     14 C          32.8629  -12.9885   19.9025 C.ar      1 MOL    -0.0406
     15 C          34.1487  -12.9029   20.4563 C.ar      1 MOL     0.0196
     16 C          34.4573  -13.5906   21.6376 C.ar      1 MOL     0.0723
     17 C          35.8155  -13.5088   22.2279 C.2       1 MOL     0.2495
     18 C          37.6671  -12.1844   23.1046 C.3       1 MOL     0.1268
     19 C          38.2701  -10.7706   22.8318 C.3       1 MOL     0.1265
     20 C          35.9412   -9.8701   22.8323 C.3       1 MOL     0.1265
     21 C          35.3882  -11.2762   23.1263 C.3       1 MOL     0.1268
     22 C          37.7166   -8.4595   23.6047 C.2       1 MOL     0.2187
     23 C          39.1377   -8.0574   23.5231 C.3       1 MOL     0.0752
     24 C          39.9702   -8.4955   24.6705 C.3       1 MOL     0.0134
     25 C          39.5140   -7.0689   24.5760 C.3       1 MOL     0.0134
     26 C          33.4726  -14.3603   22.2611 C.ar      1 MOL     0.1355
     27 C          32.1864  -14.4394   21.7274 C.ar      1 MOL     0.0392
     28 C          31.8830  -13.7548   20.5510 C.ar      1 MOL     0.0066
     29 O          28.1330   -9.1608   19.6223 O.2       1 MOL    -0.2658
     30 O          36.8771   -7.6205   23.9660 O.2       1 MOL    -0.2753
     31 O          36.4686  -14.5561   22.2864 O.2       1 MOL    -0.2699
     32 F          33.7534  -15.0289   23.4053 F         1 MOL    -0.2047
     33 H          26.8366  -10.7836   18.1515 H         1 MOL     0.0625
     34 H          26.6484  -12.7566   16.6712 H         1 MOL     0.0618
     35 H          28.6552  -14.1067   16.1453 H         1 MOL     0.0618
     36 H          30.8453  -13.5086   17.1158 H         1 MOL     0.0624
     37 H          33.4175  -11.6205   18.3763 H         1 MOL     0.0377
     38 H          32.3990  -13.0233   17.8306 H         1 MOL     0.0377
     39 H          34.9054  -12.3090   19.9642 H         1 MOL     0.0629
     40 H          38.2918  -12.9802   22.6405 H         1 MOL     0.0480
     41 H          37.6498  -12.3641   24.2078 H         1 MOL     0.0480
     42 H          38.5314  -10.6858   21.7487 H         1 MOL     0.0480
     43 H          39.2109  -10.6338   23.4153 H         1 MOL     0.0480
     44 H          35.8280   -9.6833   21.7354 H         1 MOL     0.0480
     45 H          35.3443   -9.0932   23.3645 H         1 MOL     0.0480
     46 H          34.3875  -11.4046   22.6513 H         1 MOL     0.0480
     47 H          35.2669  -11.4283   24.2236 H         1 MOL     0.0480
     48 H          39.5266   -7.9710   22.5381 H         1 MOL     0.0394
     49 H          41.0204   -8.6702   24.4590 H         1 MOL     0.0273
     50 H          39.5086   -9.0964   25.4411 H         1 MOL     0.0273
     51 H          40.2583   -6.3311   24.2992 H         1 MOL     0.0273
     52 H          38.7589   -6.7694   25.2918 H         1 MOL     0.0273
     53 H          31.4288  -15.0271   22.2233 H         1 MOL     0.0646
     54 H          30.8867  -13.8162   20.1364 H         1 MOL     0.0621
     55 H          30.4499   -8.6217   20.1801 H         1 MOL     0.1921
@<TRIPOS>BOND
     1    1   17 am
     2    1   18 1 
     3    1   21 1 
     4    2   19 1 
     5    2   20 1 
     6    2   22 am
     7    3    4 ar
     8    3   12 ar
     9    4    5 ar
    10    4   55 1 
    11    5    6 ar
    12    5   29 2 
    13    6    7 ar
    14    6   11 ar
    15    7    8 ar
    16    7   33 1 
    17    8    9 ar
    18    8   34 1 
    19    9   10 ar
    20    9   35 1 
    21   10   11 ar
    22   10   36 1 
    23   11   12 ar
    24   12   13 1 
    25   13   14 1 
    26   13   37 1 
    27   13   38 1 
    28   14   15 ar
    29   14   28 ar
    30   15   16 ar
    31   15   39 1 
    32   16   17 1 
    33   16   26 ar
    34   17   31 2 
    35   18   19 1 
    36   18   40 1 
    37   18   41 1 
    38   19   42 1 
    39   19   43 1 
    40   20   21 1 
    41   20   44 1 
    42   20   45 1 
    43   21   46 1 
    44   21   47 1 
    45   22   23 1 
    46   22   30 2 
    47   23   24 1 
    48   23   25 1 
    49   23   48 1 
    50   24   25 1 
    51   24   49 1 
    52   24   50 1 
    53   25   51 1 
    54   25   52 1 
    55   26   27 ar
    56   26   32 1 
    57   27   28 ar
    58   27   53 1 
    59   28   54 1 
@<TRIPOS>SUBSTRUCTURE
1 MOL         1
@<TRIPOS>MOLECULE
query molecule
   55    59     1     0     0
SMALL
NO_CHARGE

@<TRIPOS>ATOM
      1 N          28.9498   -4.1994   38.4923 N.am      1 MOL    -0.2945
      2 N          26.1924   -3.5691   38.1778 N.am      1 MOL    -0.2983
      3 N          33.0195   -3.2748   34.7575 N.ar      1 MOL    -0.1750
      4 N          33.5609   -4.0931   33.8626 N.ar      1 MOL    -0.2425
      5 C          34.4691   -3.5764   32.9077 C.ar      1 MOL     0.2725
      6 C          34.7489   -2.1912   32.9181 C.ar      1 MOL     0.0496
      7 C          35.5789   -1.6238   31.9443 C.ar      1 MOL     0.0138
      8 C          35.7880   -0.2454   31.9143 C.ar      1 MOL     0.0008
      9 C          35.1869    0.5749   32.8701 C.ar      1 MOL     0.0007
     10 C          34.3755    0.0201   33.8603 C.ar      1 MOL     0.0103
     11 C          34.1334   -1.3626   33.9040 C.ar      1 MOL     0.0106
     12 C          33.2757   -1.9379   34.8607 C.ar      1 MOL     0.0736
     13 C          32.6346   -1.0917   35.9149 C.3       1 MOL     0.0925
     14 C          32.4290   -1.8110   37.1942 C.ar      1 MOL    -0.0406
     15 C          31.4221   -2.7744   37.3213 C.ar      1 MOL     0.0196
     16 C          31.2808   -3.5083   38.5023 C.ar      1 MOL     0.0723
     17 C          30.2528   -4.5712   38.6213 C.2       1 MOL     0.2495
     18 C          27.9689   -4.8288   39.3772 C.3       1 MOL     0.1268
     19 C          26.7005   -3.9274   39.4926 C.3       1 MOL     0.1265
     20 C          27.1403   -3.1092   37.1723 C.3       1 MOL     0.1265
     21 C          28.4511   -3.9312   37.1501 C.3       1 MOL     0.1268
     22 C          24.8611   -3.5505   37.8706 C.2       1 MOL     0.2187
     23 C          23.9187   -3.4533   39.0100 C.3       1 MOL     0.0752
     24 C          23.0010   -4.6282   39.0508 C.3       1 MOL     0.0134
     25 C          22.5000   -3.2798   38.5892 C.3       1 MOL     0.0134
     26 C          32.1321   -3.2338   39.5767 C.ar      1 MOL     0.1355
     27 C          33.1089   -2.2407   39.4784 C.ar      1 MOL     0.0392
     28 C          33.2586   -1.5286   38.2849 C.ar      1 MOL     0.0066
     29 O          34.9688   -4.3741   32.0960 O.2       1 MOL    -0.2658
     30 O          24.4459   -3.5533   36.7048 O.2       1 MOL    -0.2753
     31 O          30.5995   -5.7080   38.9646 O.2       1 MOL    -0.2699
     32 F          32.0144   -3.9279   40.7344 F         1 MOL    -0.2047
     33 H          36.0460   -2.2574   31.2048 H         1 MOL     0.0625
     34 H          36.4166    0.1863   31.1495 H         1 MOL     0.0618
     35 H          35.3519    1.6421   32.8418 H         1 MOL     0.0618
     36 H          33.9190    0.6677   34.5965 H         1 MOL     0.0624
     37 H          31.6416   -0.7597   35.5400 H         1 MOL     0.0377
     38 H          33.2762   -0.2149   36.1072 H         1 MOL     0.0377
     39 H          30.7586   -2.9633   36.4893 H         1 MOL     0.0629
     40 H          28.4316   -5.0082   40.3730 H         1 MOL     0.0480
     41 H          27.6914   -5.8195   38.9429 H         1 MOL     0.0480
     42 H          26.9703   -2.9886   40.0343 H         1 MOL     0.0480
     43 H          25.8993   -4.4409   40.0701 H         1 MOL     0.0480
     44 H          27.4141   -2.0542   37.4295 H         1 MOL     0.0480
     45 H          26.6499   -3.0951   36.1740 H         1 MOL     0.0480
     46 H          29.2415   -3.4225   36.5545 H         1 MOL     0.0480
     47 H          28.2447   -4.9189   36.6653 H         1 MOL     0.0480
     48 H          24.2916   -2.9992   39.8925 H         1 MOL     0.0394
     49 H          22.6752   -4.9487   40.0280 H         1 MOL     0.0273
     50 H          23.1623   -5.3753   38.2932 H         1 MOL     0.0273
     51 H          21.8492   -2.7522   39.2687 H         1 MOL     0.0273
     52 H          22.3255   -3.1690   37.5275 H         1 MOL     0.0273
     53 H          33.7481   -2.0251   40.3216 H         1 MOL     0.0646
     54 H          34.0170   -0.7636   38.2050 H         1 MOL     0.0621
     55 H          33.1883   -5.0145   33.6776 H         1 MOL     0.1921
@<TRIPOS>BOND
     1    1   17 am
     2    1   18 1 
     3    1   21 1 
     4    2   19 1 
     5    2   20 1 
     6    2   22 am
     7    3    4 ar
     8    3   12 ar
     9    4    5 ar
    10    4   55 1 
    11    5    6 ar
    12    5   29 2 
    13    6    7 ar
    14    6   11 ar
    15    7    8 ar
    16    7   33 1 
    17    8    9 ar
    18    8   34 1 
    19    9   10 ar
    20    9   35 1 
    21   10   11 ar
    22   10   36 1 
    23   11   12 ar
    24   12   13 1 
    25   13   14 1 
    26   13   37 1 
    27   13   38 1 
    28   14   15 ar
    29   14   28 ar
    30   15   16 ar
    31   15   39 1 
    32   16   17 1 
    33   16   26 ar
    34   17   31 2 
    35   18   19 1 
    36   18   40 1 
    37   18   41 1 
    38   19   42 1 
    39   19   43 1 
    40   20   21 1 
    41   20   44 1 
    42   20   45 1 
    43   21   46 1 
    44   21   47 1 
    45   22   23 1 
    46   22   30 2 
    47   23   24 1 
    48   23   25 1 
    49   23   48 1 
    50   24   25 1 
    51   24   49 1 
    52   24   50 1 
    53   25   51 1 
    54   25   52 1 
    55   26   27 ar
    56   26   32 1 
    57   27   28 ar
    58   27   53 1 
    59   28   54 1 
@<TRIPOS>SUBSTRUCTURE
1 MOL         1
