@<TRIPOS>MOLECULE
query molecule
   55    59     1     0     0
SMALL
NO_CHARGE

@<TRIPOS>ATOM
      1 N          32.0203   -5.3526   41.4658 N.am      1 MOL    -0.2945
      2 N          30.1265   -5.8054   39.7463 N.am      1 MOL    -0.2983
      3 N          35.7729   -7.0877   38.7616 N.ar      1 MOL    -0.1750
      4 N          35.0086   -8.0919   38.4066 N.ar      1 MOL    -0.2425
      5 C          34.7898   -9.1605   39.1858 C.ar      1 MOL     0.2725
      6 C          35.3958   -9.2140   40.4241 C.ar      1 MOL     0.0496
      7 C          35.2180  -10.3120   41.2666 C.ar      1 MOL     0.0138
      8 C          35.8504  -10.3535   42.4905 C.ar      1 MOL     0.0008
      9 C          36.6463   -9.2768   42.8199 C.ar      1 MOL     0.0007
     10 C          36.8320   -8.1810   41.9937 C.ar      1 MOL     0.0103
     11 C          36.1996   -8.1487   40.7858 C.ar      1 MOL     0.0106
     12 C          36.4079   -7.0662   39.9738 C.ar      1 MOL     0.0736
     13 C          37.1737   -5.8631   40.2723 C.3       1 MOL     0.0925
     14 C          36.2636   -4.7103   40.5174 C.ar      1 MOL    -0.0406
     15 C          35.0384   -5.0258   41.1314 C.ar      1 MOL     0.0196
     16 C          34.1269   -4.0302   41.3895 C.ar      1 MOL     0.0723
     17 C          32.8273   -4.3310   42.0314 C.2       1 MOL     0.2495
     18 C          30.7630   -5.6745   42.0596 C.3       1 MOL     0.1268
     19 C          29.7821   -6.2618   41.0677 C.3       1 MOL     0.1265
     20 C          31.4387   -6.2042   39.2258 C.3       1 MOL     0.1265
     21 C          32.4977   -6.0517   40.2872 C.3       1 MOL     0.1268
     22 C          29.2665   -5.0167   38.9765 C.2       1 MOL     0.2187
     23 C          27.9392   -4.5281   39.3596 C.3       1 MOL     0.0752
     24 C          27.2813   -3.5628   38.3996 C.3       1 MOL     0.0134
     25 C          27.7219   -3.1020   39.7182 C.3       1 MOL     0.0134
     26 C          34.3442   -2.7091   41.0771 C.ar      1 MOL     0.1355
     27 C          35.5438   -2.4015   40.4760 C.ar      1 MOL     0.0392
     28 C          36.4757   -3.4150   40.2104 C.ar      1 MOL     0.0066
     29 O          34.0593  -10.1323   38.8635 O.2       1 MOL    -0.2658
     30 O          29.6635   -4.6722   37.8065 O.2       1 MOL    -0.2753
     31 O          32.4258   -3.7171   43.0467 O.2       1 MOL    -0.2699
     32 F          33.4064   -1.7568   41.3534 F         1 MOL    -0.2047
     33 H          34.6117  -11.0940   40.9734 H         1 MOL     0.0625
     34 H          35.7341  -11.1537   43.1303 H         1 MOL     0.0618
     35 H          37.1299   -9.2884   43.7310 H         1 MOL     0.0618
     36 H          37.4395   -7.3998   42.2871 H         1 MOL     0.0624
     37 H          37.8125   -5.6375   39.4440 H         1 MOL     0.0377
     38 H          37.7564   -6.0344   41.1535 H         1 MOL     0.0377
     39 H          34.8243   -6.0022   41.3871 H         1 MOL     0.0629
     40 H          30.3405   -4.7817   42.4720 H         1 MOL     0.0480
     41 H          30.9414   -6.4127   42.8141 H         1 MOL     0.0480
     42 H          28.7905   -5.9432   41.3114 H         1 MOL     0.0480
     43 H          29.8246   -7.3306   41.1054 H         1 MOL     0.0480
     44 H          31.6888   -5.5865   38.3888 H         1 MOL     0.0480
     45 H          31.3956   -7.2308   38.9272 H         1 MOL     0.0480
     46 H          33.3182   -5.5022   39.8748 H         1 MOL     0.0480
     47 H          32.7890   -7.0338   40.5933 H         1 MOL     0.0480
     48 H          27.7004   -5.4538   39.8395 H         1 MOL     0.0394
     49 H          26.2366   -3.6504   38.1846 H         1 MOL     0.0273
     50 H          27.4625   -3.2572   37.3903 H         1 MOL     0.0273
     51 H          26.9952   -2.8458   40.4607 H         1 MOL     0.0273
     52 H          28.3572   -2.3122   40.0588 H         1 MOL     0.0273
     53 H          35.7571   -1.4239   40.2212 H         1 MOL     0.0646
     54 H          37.3673   -3.1572   39.7585 H         1 MOL     0.0621
     55 H          34.5731   -8.0591   37.5239 H         1 MOL     0.1921
@<TRIPOS>BOND
     1    1   17 am
     2    1   18 1 
     3    1   21 1 
     4    2   19 1 
     5    2   20 1 
     6    2   22 am
     7    3    4 ar
     8    3   12 ar
     9    4    5 ar
    10    4   55 1 
    11    5    6 ar
    12    5   29 2 
    13    6    7 ar
    14    6   11 ar
    15    7    8 ar
    16    7   33 1 
    17    8    9 ar
    18    8   34 1 
    19    9   10 ar
    20    9   35 1 
    21   10   11 ar
    22   10   36 1 
    23   11   12 ar
    24   12   13 1 
    25   13   14 1 
    26   13   37 1 
    27   13   38 1 
    28   14   15 ar
    29   14   28 ar
    30   15   16 ar
    31   15   39 1 
    32   16   17 1 
    33   16   26 ar
    34   17   31 2 
    35   18   19 1 
    36   18   40 1 
    37   18   41 1 
    38   19   42 1 
    39   19   43 1 
    40   20   21 1 
    41   20   44 1 
    42   20   45 1 
    43   21   46 1 
    44   21   47 1 
    45   22   23 1 
    46   22   30 2 
    47   23   24 1 
    48   23   25 1 
    49   23   48 1 
    50   24   25 1 
    51   24   49 1 
    52   24   50 1 
    53   25   51 1 
    54   25   52 1 
    55   26   27 ar
    56   26   32 1 
    57   27   28 ar
    58   27   53 1 
    59   28   54 1 
@<TRIPOS>SUBSTRUCTURE
1 MOL         1
@<TRIPOS>MOLECULE
query molecule
   55    59     1     0     0
SMALL
NO_CHARGE

@<TRIPOS>ATOM
      1 N         -12.2496   10.3102   40.1291 N.am      1 MOL    -0.2945
      2 N         -13.3298    8.4056   41.5270 N.am      1 MOL    -0.2983
      3 N          -8.4385    8.7347   37.0946 N.ar      1 MOL    -0.1750
      4 N          -7.7869    8.2464   38.1220 N.ar      1 MOL    -0.2425
      5 C          -6.9055    8.9577   38.8390 C.ar      1 MOL     0.2725
      6 C          -6.6664   10.2694   38.4843 C.ar      1 MOL     0.0496
      7 C          -5.7443   11.0485   39.1842 C.ar      1 MOL     0.0138
      8 C          -5.5058   12.3501   38.7987 C.ar      1 MOL     0.0008
      9 C          -6.2119   12.8196   37.7114 C.ar      1 MOL     0.0007
     10 C          -7.1294   12.0576   37.0075 C.ar      1 MOL     0.0103
     11 C          -7.3599   10.7717   37.3987 C.ar      1 MOL     0.0106
     12 C          -8.2571   10.0268   36.6812 C.ar      1 MOL     0.0736
     13 C          -9.0904   10.4645   35.5691 C.3       1 MOL     0.0925
     14 C         -10.5312   10.4100   35.9411 C.ar      1 MOL    -0.0406
     15 C         -10.8344   10.8214   37.2512 C.ar      1 MOL     0.0196
     16 C         -12.1361   10.7968   37.6913 C.ar      1 MOL     0.0723
     17 C         -12.4867   11.2202   39.0658 C.2       1 MOL     0.2495
     18 C         -12.5702   10.6845   41.4686 C.3       1 MOL     0.1268
     19 C         -12.8704    9.4926   42.3519 C.3       1 MOL     0.1265
     20 C         -12.3877    7.8813   40.5323 C.3       1 MOL     0.1265
     21 C         -11.6816    9.0098   39.8258 C.3       1 MOL     0.1268
     22 C         -14.6108    7.8594   41.6495 C.2       1 MOL     0.2187
     23 C         -15.6630    8.2802   42.5784 C.3       1 MOL     0.0752
     24 C         -16.9933    7.5746   42.4430 C.3       1 MOL     0.0134
     25 C         -16.8744    8.9917   42.0925 C.3       1 MOL     0.0134
     26 C         -13.1890   10.3846   36.9093 C.ar      1 MOL     0.1355
     27 C         -12.8910    9.9820   35.6271 C.ar      1 MOL     0.0392
     28 C         -11.5638   10.0049   35.1751 C.ar      1 MOL     0.0066
     29 O          -6.2720    8.5075   39.8279 O.2       1 MOL    -0.2658
     30 O         -14.9182    6.8850   40.8741 O.2       1 MOL    -0.2753
     31 O         -12.9799   12.3447   39.3130 O.2       1 MOL    -0.2699
     32 F         -14.4651   10.3777   37.3932 F         1 MOL    -0.2047
     33 H          -5.2405   10.6501   39.9920 H         1 MOL     0.0625
     34 H          -4.8297   12.9454   39.3004 H         1 MOL     0.0618
     35 H          -6.0474   13.7909   37.4055 H         1 MOL     0.0618
     36 H          -7.6320   12.4565   36.1990 H         1 MOL     0.0624
     37 H          -8.9194    9.8255   34.7279 H         1 MOL     0.0377
     38 H          -8.8366   11.4750   35.3242 H         1 MOL     0.0377
     39 H         -10.0816   11.1405   37.8805 H         1 MOL     0.0629
     40 H         -13.4294   11.3223   41.4496 H         1 MOL     0.0480
     41 H         -11.7161   11.1836   41.8779 H         1 MOL     0.0480
     42 H         -13.6289    9.7523   43.0601 H         1 MOL     0.0480
     43 H         -11.9860    9.2000   42.8789 H         1 MOL     0.0480
     44 H         -12.9227    7.2969   39.8134 H         1 MOL     0.0480
     45 H         -11.6586    7.2769   41.0304 H         1 MOL     0.0480
     46 H         -11.7485    8.8472   38.7702 H         1 MOL     0.0480
     47 H         -10.6676    9.0162   40.1648 H         1 MOL     0.0480
     48 H         -14.9485    8.4820   43.3486 H         1 MOL     0.0394
     49 H         -17.5362    7.2833   43.3180 H         1 MOL     0.0273
     50 H         -17.3360    6.6952   41.9387 H         1 MOL     0.0273
     51 H         -17.3392    9.7317   42.7100 H         1 MOL     0.0273
     52 H         -17.1036    9.5665   41.2205 H         1 MOL     0.0273
     53 H         -13.6455    9.6634   34.9981 H         1 MOL     0.0646
     54 H         -11.3677    9.6976   34.2094 H         1 MOL     0.0621
     55 H          -7.9537    7.3107   38.3800 H         1 MOL     0.1921
@<TRIPOS>BOND
     1    1   17 am
     2    1   18 1 
     3    1   21 1 
     4    2   19 1 
     5    2   20 1 
     6    2   22 am
     7    3    4 ar
     8    3   12 ar
     9    4    5 ar
    10    4   55 1 
    11    5    6 ar
    12    5   29 2 
    13    6    7 ar
    14    6   11 ar
    15    7    8 ar
    16    7   33 1 
    17    8    9 ar
    18    8   34 1 
    19    9   10 ar
    20    9   35 1 
    21   10   11 ar
    22   10   36 1 
    23   11   12 ar
    24   12   13 1 
    25   13   14 1 
    26   13   37 1 
    27   13   38 1 
    28   14   15 ar
    29   14   28 ar
    30   15   16 ar
    31   15   39 1 
    32   16   17 1 
    33   16   26 ar
    34   17   31 2 
    35   18   19 1 
    36   18   40 1 
    37   18   41 1 
    38   19   42 1 
    39   19   43 1 
    40   20   21 1 
    41   20   44 1 
    42   20   45 1 
    43   21   46 1 
    44   21   47 1 
    45   22   23 1 
    46   22   30 2 
    47   23   24 1 
    48   23   25 1 
    49   23   48 1 
    50   24   25 1 
    51   24   49 1 
    52   24   50 1 
    53   25   51 1 
    54   25   52 1 
    55   26   27 ar
    56   26   32 1 
    57   27   28 ar
    58   27   53 1 
    59   28   54 1 
@<TRIPOS>SUBSTRUCTURE
1 MOL         1
@<TRIPOS>MOLECULE
query molecule
   55    59     1     0     0
SMALL
NO_CHARGE

@<TRIPOS>ATOM
      1 N         -17.8744    6.6655    3.5506 N.am      1 MOL    -0.2945
      2 N         -17.0514    6.0829    5.9447 N.am      1 MOL    -0.2983
      3 N         -12.3990    6.7177    1.6976 N.ar      1 MOL    -0.1750
      4 N         -11.5642    6.7315    2.7083 N.ar      1 MOL    -0.2425
      5 C         -10.8705    5.6548    3.1035 C.ar      1 MOL     0.2725
      6 C         -11.0380    4.4692    2.4179 C.ar      1 MOL     0.0496
      7 C         -10.3557    3.3134    2.7997 C.ar      1 MOL     0.0138
      8 C         -10.5548    2.1349    2.1134 C.ar      1 MOL     0.0008
      9 C         -11.4438    2.1674    1.0598 C.ar      1 MOL     0.0007
     10 C         -12.1279    3.3068    0.6703 C.ar      1 MOL     0.0103
     11 C         -11.9216    4.4684    1.3545 C.ar      1 MOL     0.0106
     12 C         -12.6191    5.5812    0.9675 C.ar      1 MOL     0.0736
     13 C         -13.5198    5.7170   -0.1698 C.3       1 MOL     0.0925
     14 C         -14.6541    6.6216    0.1657 C.ar      1 MOL    -0.0406
     15 C         -15.6534    6.0626    0.9821 C.ar      1 MOL     0.0196
     16 C         -16.7462    6.8163    1.3377 C.ar      1 MOL     0.0723
     17 C         -17.8164    6.2552    2.1929 C.2       1 MOL     0.2495
     18 C         -18.8949    6.1500    4.4049 C.3       1 MOL     0.1268
     19 C         -18.4876    6.1432    5.8627 C.3       1 MOL     0.1265
     20 C         -16.3047    7.2089    5.3732 C.3       1 MOL     0.1265
     21 C         -16.8861    7.6079    4.0413 C.3       1 MOL     0.1268
     22 C         -16.3775    5.0103    6.5359 C.2       1 MOL     0.2187
     23 C         -16.9772    3.8143    7.1334 C.3       1 MOL     0.0752
     24 C         -17.6121    3.9952    8.4937 C.3       1 MOL     0.0134
     25 C         -16.3953    3.1924    8.3517 C.3       1 MOL     0.0134
     26 C         -16.9280    8.1181    0.9349 C.ar      1 MOL     0.1355
     27 C         -15.9491    8.6642    0.1358 C.ar      1 MOL     0.0392
     28 C         -14.8333    7.8977   -0.2298 C.ar      1 MOL     0.0066
     29 O         -10.0646    5.6487    4.0691 O.2       1 MOL    -0.2658
     30 O         -15.0961    5.0585    6.5683 O.2       1 MOL    -0.2753
     31 O         -18.6611    5.4396    1.7570 O.2       1 MOL    -0.2699
     32 F         -18.0319    8.8251    1.3147 F         1 MOL    -0.2047
     33 H          -9.7005    3.3409    3.5965 H         1 MOL     0.0625
     34 H         -10.0619    1.2682    2.3764 H         1 MOL     0.0618
     35 H         -11.6084    1.2956    0.5335 H         1 MOL     0.0618
     36 H         -12.7839    3.2782   -0.1260 H         1 MOL     0.0624
     37 H         -13.9036    4.7533   -0.4322 H         1 MOL     0.0377
     38 H         -12.9774    6.1361   -0.9917 H         1 MOL     0.0377
     39 H         -15.5666    5.0891    1.3129 H         1 MOL     0.0629
     40 H         -19.1170    5.1465    4.1062 H         1 MOL     0.0480
     41 H         -19.7487    6.7889    4.3105 H         1 MOL     0.0480
     42 H         -18.9120    5.2908    6.3503 H         1 MOL     0.0480
     43 H         -18.8418    7.0320    6.3422 H         1 MOL     0.0480
     44 H         -15.2827    6.9224    5.2387 H         1 MOL     0.0480
     45 H         -16.3697    8.0423    6.0412 H         1 MOL     0.0480
     46 H         -16.0920    7.6709    3.3268 H         1 MOL     0.0480
     47 H         -17.3782    8.5478    4.1746 H         1 MOL     0.0480
     48 H         -17.2570    3.4344    6.1733 H         1 MOL     0.0394
     49 H         -18.5443    3.5194    8.7168 H         1 MOL     0.0273
     50 H         -17.8999    4.8364    9.0890 H         1 MOL     0.0273
     51 H         -16.4419    2.1312    8.4803 H         1 MOL     0.0273
     52 H         -15.4305    3.2119    8.8122 H         1 MOL     0.0273
     53 H         -16.0369    9.6387   -0.1940 H         1 MOL     0.0646
     54 H         -14.1141    8.3312   -0.8301 H         1 MOL     0.0621
     55 H         -11.4403    7.5751    3.2012 H         1 MOL     0.1921
@<TRIPOS>BOND
     1    1   17 am
     2    1   18 1 
     3    1   21 1 
     4    2   19 1 
     5    2   20 1 
     6    2   22 am
     7    3    4 ar
     8    3   12 ar
     9    4    5 ar
    10    4   55 1 
    11    5    6 ar
    12    5   29 2 
    13    6    7 ar
    14    6   11 ar
    15    7    8 ar
    16    7   33 1 
    17    8    9 ar
    18    8   34 1 
    19    9   10 ar
    20    9   35 1 
    21   10   11 ar
    22   10   36 1 
    23   11   12 ar
    24   12   13 1 
    25   13   14 1 
    26   13   37 1 
    27   13   38 1 
    28   14   15 ar
    29   14   28 ar
    30   15   16 ar
    31   15   39 1 
    32   16   17 1 
    33   16   26 ar
    34   17   31 2 
    35   18   19 1 
    36   18   40 1 
    37   18   41 1 
    38   19   42 1 
    39   19   43 1 
    40   20   21 1 
    41   20   44 1 
    42   20   45 1 
    43   21   46 1 
    44   21   47 1 
    45   22   23 1 
    46   22   30 2 
    47   23   24 1 
    48   23   25 1 
    49   23   48 1 
    50   24   25 1 
    51   24   49 1 
    52   24   50 1 
    53   25   51 1 
    54   25   52 1 
    55   26   27 ar
    56   26   32 1 
    57   27   28 ar
    58   27   53 1 
    59   28   54 1 
@<TRIPOS>SUBSTRUCTURE
1 MOL         1
@<TRIPOS>MOLECULE
query molecule
   55    59     1     0     0
SMALL
NO_CHARGE

@<TRIPOS>ATOM
      1 N          31.1774    7.4585   20.5361 N.am      1 MOL    -0.2945
      2 N          32.3518    5.2769   19.7553 N.am      1 MOL    -0.2983
      3 N          33.4612   14.7724   22.4323 N.ar      1 MOL    -0.1750
      4 N          34.2264   15.8314   22.3248 N.ar      1 MOL    -0.2425
      5 C          34.2645   16.6026   21.2290 C.ar      1 MOL     0.2725
      6 C          33.4617   16.2720   20.1567 C.ar      1 MOL     0.0496
      7 C          33.4772   17.0289   18.9845 C.ar      1 MOL     0.0138
      8 C          32.6825   16.6674   17.9180 C.ar      1 MOL     0.0008
      9 C          31.8968   15.5454   18.0758 C.ar      1 MOL     0.0007
     10 C          31.8717   14.7848   19.2328 C.ar      1 MOL     0.0103
     11 C          32.6599   15.1526   20.2832 C.ar      1 MOL     0.0106
     12 C          32.6363   14.3799   21.4132 C.ar      1 MOL     0.0736
     13 C          31.7898   13.2256   21.6853 C.3       1 MOL     0.0925
     14 C          32.1676   12.0812   20.8106 C.ar      1 MOL    -0.0406
     15 C          31.2906   10.9822   20.8386 C.ar      1 MOL     0.0196
     16 C          31.5599    9.8733   20.0727 C.ar      1 MOL     0.0723
     17 C          30.6580    8.6995   20.0832 C.2       1 MOL     0.2495
     18 C          30.3369    6.3054   20.5653 C.3       1 MOL     0.1268
     19 C          31.1147    5.0127   20.4429 C.3       1 MOL     0.1265
     20 C          33.2917    6.1959   20.4065 C.3       1 MOL     0.1265
     21 C          32.5628    7.3919   20.9628 C.3       1 MOL     0.1268
     22 C          32.6642    4.6969   18.5223 C.2       1 MOL     0.2187
     23 C          31.8297    3.7773   17.7444 C.3       1 MOL     0.0752
     24 C          32.0865    3.7419   16.2548 C.3       1 MOL     0.0134
     25 C          30.8293    4.2880   16.7707 C.3       1 MOL     0.0134
     26 C          32.6625    9.7688   19.2582 C.ar      1 MOL     0.1355
     27 C          33.5202   10.8451   19.2317 C.ar      1 MOL     0.0392
     28 C          33.2491   11.9777   20.0127 C.ar      1 MOL     0.0066
     29 O          34.9905   17.6224   21.1075 O.2       1 MOL    -0.2658
     30 O          33.7980    4.9887   17.9983 O.2       1 MOL    -0.2753
     31 O          29.4649    8.7704   19.7086 O.2       1 MOL    -0.2699
     32 F          32.8862    8.6450   18.5168 F         1 MOL    -0.2047
     33 H          34.0839   17.8609   18.9160 H         1 MOL     0.0625
     34 H          32.6764   17.2111   17.0419 H         1 MOL     0.0618
     35 H          31.2953   15.2566   17.2890 H         1 MOL     0.0618
     36 H          31.2655   13.9522   19.3002 H         1 MOL     0.0624
     37 H          30.7684   13.4867   21.5019 H         1 MOL     0.0377
     38 H          31.9201   12.9349   22.7070 H         1 MOL     0.0377
     39 H          30.4475   11.0082   21.4328 H         1 MOL     0.0629
     40 H          29.6433    6.3665   19.7525 H         1 MOL     0.0480
     41 H          29.8369    6.2937   21.5119 H         1 MOL     0.0480
     42 H          30.5409    4.2992   19.8899 H         1 MOL     0.0480
     43 H          31.3176    4.6181   21.4169 H         1 MOL     0.0480
     44 H          34.0146    6.5268   19.6906 H         1 MOL     0.0480
     45 H          33.7765    5.6831   21.2108 H         1 MOL     0.0480
     46 H          33.0627    8.2796   20.6352 H         1 MOL     0.0480
     47 H          32.5659    7.3025   22.0283 H         1 MOL     0.0480
     48 H          31.7807    3.0823   18.5561 H         1 MOL     0.0394
     49 H          32.0904    2.8067   15.7344 H         1 MOL     0.0273
     50 H          32.8620    4.1021   15.6114 H         1 MOL     0.0273
     51 H          29.9157    3.7523   16.6175 H         1 MOL     0.0273
     52 H          30.3127    5.2161   16.6479 H         1 MOL     0.0273
     53 H          34.3633   10.8181   18.6361 H         1 MOL     0.0646
     54 H          33.9087   12.7708   19.9746 H         1 MOL     0.0621
     55 H          34.8014   16.0725   23.0871 H         1 MOL     0.1921
@<TRIPOS>BOND
     1    1   17 am
     2    1   18 1 
     3    1   21 1 
     4    2   19 1 
     5    2   20 1 
     6    2   22 am
     7    3    4 ar
     8    3   12 ar
     9    4    5 ar
    10    4   55 1 
    11    5    6 ar
    12    5   29 2 
    13    6    7 ar
    14    6   11 ar
    15    7    8 ar
    16    7   33 1 
    17    8    9 ar
    18    8   34 1 
    19    9   10 ar
    20    9   35 1 
    21   10   11 ar
    22   10   36 1 
    23   11   12 ar
    24   12   13 1 
    25   13   14 1 
    26   13   37 1 
    27   13   38 1 
    28   14   15 ar
    29   14   28 ar
    30   15   16 ar
    31   15   39 1 
    32   16   17 1 
    33   16   26 ar
    34   17   31 2 
    35   18   19 1 
    36   18   40 1 
    37   18   41 1 
    38   19   42 1 
    39   19   43 1 
    40   20   21 1 
    41   20   44 1 
    42   20   45 1 
    43   21   46 1 
    44   21   47 1 
    45   22   23 1 
    46   22   30 2 
    47   23   24 1 
    48   23   25 1 
    49   23   48 1 
    50   24   25 1 
    51   24   49 1 
    52   24   50 1 
    53   25   51 1 
    54   25   52 1 
    55   26   27 ar
    56   26   32 1 
    57   27   28 ar
    58   27   53 1 
    59   28   54 1 
@<TRIPOS>SUBSTRUCTURE
1 MOL         1
@<TRIPOS>MOLECULE
query molecule
   55    59     1     0     0
SMALL
NO_CHARGE

@<TRIPOS>ATOM
      1 N         -16.9344  -10.0524   43.7255 N.am      1 MOL    -0.2945
      2 N         -18.0288   -8.4078   42.0385 N.am      1 MOL    -0.2983
      3 N         -18.1203  -17.4276   42.5310 N.ar      1 MOL    -0.1750
      4 N         -17.3892  -18.5137   42.4629 N.ar      1 MOL    -0.2425
      5 C         -16.3261  -18.6347   41.6554 C.ar      1 MOL     0.2725
      6 C         -15.9777  -17.5680   40.8527 C.ar      1 MOL     0.0496
      7 C         -14.8924  -17.6476   39.9792 C.ar      1 MOL     0.0138
      8 C         -14.5758  -16.5770   39.1711 C.ar      1 MOL     0.0008
      9 C         -15.3741  -15.4575   39.2750 C.ar      1 MOL     0.0007
     10 C         -16.4540  -15.3648   40.1369 C.ar      1 MOL     0.0103
     11 C         -16.7573  -16.4289   40.9341 C.ar      1 MOL     0.0106
     12 C         -17.8387  -16.3271   41.7676 C.ar      1 MOL     0.0736
     13 C         -18.6879  -15.1635   41.9868 C.3       1 MOL     0.0925
     14 C         -18.2595  -14.4249   43.2067 C.ar      1 MOL    -0.0406
     15 C         -17.5024  -13.2624   42.9763 C.ar      1 MOL     0.0196
     16 C         -17.0520  -12.5181   44.0401 C.ar      1 MOL     0.0723
     17 C         -16.2500  -11.2916   43.8302 C.2       1 MOL     0.2495
     18 C         -16.1950   -8.8477   43.5277 C.3       1 MOL     0.1268
     19 C         -17.0013   -7.7765   42.8252 C.3       1 MOL     0.1265
     20 C         -19.0353   -9.1906   42.7639 C.3       1 MOL     0.1265
     21 C         -18.3821  -10.0402   43.8235 C.3       1 MOL     0.1268
     22 C         -18.0844   -8.2949   40.6463 C.2       1 MOL     0.2187
     23 C         -17.1512   -7.5658   39.7833 C.3       1 MOL     0.0752
     24 C         -17.7611   -6.5282   38.8682 C.3       1 MOL     0.0134
     25 C         -17.1715   -7.7462   38.3080 C.3       1 MOL     0.0134
     26 C         -17.3028  -12.8474   45.3511 C.ar      1 MOL     0.1355
     27 C         -18.0440  -13.9855   45.5755 C.ar      1 MOL     0.0392
     28 C         -18.5042  -14.7479   44.4923 C.ar      1 MOL     0.0066
     29 O         -15.6122  -19.6672   41.5769 O.2       1 MOL    -0.2658
     30 O         -19.0475   -8.8865   40.0399 O.2       1 MOL    -0.2753
     31 O         -15.0008  -11.3170   43.7438 O.2       1 MOL    -0.2699
     32 F         -16.8324  -12.0753   46.3735 F         1 MOL    -0.2047
     33 H         -14.3256  -18.5090   39.9384 H         1 MOL     0.0625
     34 H         -13.7784  -16.6119   38.5182 H         1 MOL     0.0618
     35 H         -15.1551  -14.6453   38.6780 H         1 MOL     0.0618
     36 H         -17.0212  -14.5033   40.1763 H         1 MOL     0.0624
     37 H         -19.7014  -15.4848   42.1074 H         1 MOL     0.0377
     38 H         -18.6041  -14.5110   41.1427 H         1 MOL     0.0377
     39 H         -17.2854  -12.9693   42.0111 H         1 MOL     0.0629
     40 H         -15.3309   -9.0694   42.9365 H         1 MOL     0.0480
     41 H         -15.9276   -8.4703   44.4932 H         1 MOL     0.0480
     42 H         -16.3604   -7.2045   42.1877 H         1 MOL     0.0480
     43 H         -17.4463   -7.1249   43.5483 H         1 MOL     0.0480
     44 H         -19.5528   -9.8246   42.0749 H         1 MOL     0.0480
     45 H         -19.7223   -8.5194   43.2356 H         1 MOL     0.0480
     46 H         -18.7383  -11.0444   43.7238 H         1 MOL     0.0480
     47 H         -18.6354   -9.6197   44.7733 H         1 MOL     0.0480
     48 H         -16.3786   -7.6142   40.5216 H         1 MOL     0.0394
     49 H         -17.2748   -5.5851   38.7291 H         1 MOL     0.0273
     50 H         -18.7139   -6.0461   38.7989 H         1 MOL     0.0273
     51 H         -16.2585   -7.6869   37.7530 H         1 MOL     0.0273
     52 H         -17.5260   -8.5145   37.6542 H         1 MOL     0.0273
     53 H         -18.2610  -14.2774   46.5419 H         1 MOL     0.0646
     54 H         -19.0576  -15.5970   44.6884 H         1 MOL     0.0621
     55 H         -17.6329  -19.2782   43.0337 H         1 MOL     0.1921
@<TRIPOS>BOND
     1    1   17 am
     2    1   18 1 
     3    1   21 1 
     4    2   19 1 
     5    2   20 1 
     6    2   22 am
     7    3    4 ar
     8    3   12 ar
     9    4    5 ar
    10    4   55 1 
    11    5    6 ar
    12    5   29 2 
    13    6    7 ar
    14    6   11 ar
    15    7    8 ar
    16    7   33 1 
    17    8    9 ar
    18    8   34 1 
    19    9   10 ar
    20    9   35 1 
    21   10   11 ar
    22   10   36 1 
    23   11   12 ar
    24   12   13 1 
    25   13   14 1 
    26   13   37 1 
    27   13   38 1 
    28   14   15 ar
    29   14   28 ar
    30   15   16 ar
    31   15   39 1 
    32   16   17 1 
    33   16   26 ar
    34   17   31 2 
    35   18   19 1 
    36   18   40 1 
    37   18   41 1 
    38   19   42 1 
    39   19   43 1 
    40   20   21 1 
    41   20   44 1 
    42   20   45 1 
    43   21   46 1 
    44   21   47 1 
    45   22   23 1 
    46   22   30 2 
    47   23   24 1 
    48   23   25 1 
    49   23   48 1 
    50   24   25 1 
    51   24   49 1 
    52   24   50 1 
    53   25   51 1 
    54   25   52 1 
    55   26   27 ar
    56   26   32 1 
    57   27   28 ar
    58   27   53 1 
    59   28   54 1 
@<TRIPOS>SUBSTRUCTURE
1 MOL         1
@<TRIPOS>MOLECULE
query molecule
   55    59     1     0     0
SMALL
NO_CHARGE

@<TRIPOS>ATOM
      1 N         -12.8010   -6.6063    0.3591 N.am      1 MOL    -0.2945
      2 N         -15.0274   -7.9421    0.2745 N.am      1 MOL    -0.2983
      3 N          -7.7794   -6.3448   -1.8341 N.ar      1 MOL    -0.1750
      4 N          -6.8677   -6.4147   -0.8946 N.ar      1 MOL    -0.2425
      5 C          -6.1039   -5.3744   -0.5327 C.ar      1 MOL     0.2725
      6 C          -6.2794   -4.1666   -1.1762 C.ar      1 MOL     0.0496
      7 C          -5.4975   -3.0572   -0.8525 C.ar      1 MOL     0.0138
      8 C          -5.6758   -1.8665   -1.5234 C.ar      1 MOL     0.0008
      9 C          -6.6438   -1.8409   -2.5051 C.ar      1 MOL     0.0007
     10 C          -7.4266   -2.9341   -2.8370 C.ar      1 MOL     0.0103
     11 C          -7.2439   -4.1068   -2.1652 C.ar      1 MOL     0.0106
     12 C          -8.0139   -5.1825   -2.5177 C.ar      1 MOL     0.0736
     13 C          -9.0985   -5.2212   -3.4900 C.3       1 MOL     0.0925
     14 C         -10.3516   -4.6760   -2.8985 C.ar      1 MOL    -0.0406
     15 C         -10.7054   -5.1985   -1.6417 C.ar      1 MOL     0.0196
     16 C         -11.8514   -4.7650   -1.0193 C.ar      1 MOL     0.0723
     17 C         -12.2524   -5.2983    0.3021 C.2       1 MOL     0.2495
     18 C         -13.1948   -7.1568    1.6157 C.3       1 MOL     0.1268
     19 C         -14.2846   -8.1985    1.4809 C.3       1 MOL     0.1265
     20 C         -14.2918   -8.0326   -0.9915 C.3       1 MOL     0.1265
     21 C         -12.9489   -7.3591   -0.8726 C.3       1 MOL     0.1268
     22 C         -16.3874   -7.6187    0.2845 C.2       1 MOL     0.2187
     23 C         -17.2508   -7.4770    1.4599 C.3       1 MOL     0.0752
     24 C         -18.6411   -8.0591    1.3401 C.3       1 MOL     0.0134
     25 C         -18.4567   -6.6085    1.4245 C.3       1 MOL     0.0134
     26 C         -12.6961   -3.8264   -1.5630 C.ar      1 MOL     0.1355
     27 C         -12.3488   -3.3157   -2.7932 C.ar      1 MOL     0.0392
     28 C         -11.1807   -3.7566   -3.4316 C.ar      1 MOL     0.0066
     29 O          -5.2256   -5.4215    0.3664 O.2       1 MOL    -0.2658
     30 O         -16.9595   -7.4199   -0.8461 O.2       1 MOL    -0.2753
     31 O         -12.1224   -4.6361    1.3572 O.2       1 MOL    -0.2699
     32 F         -13.8238   -3.4288   -0.9050 F         1 MOL    -0.2047
     33 H          -4.7850   -3.1278   -0.1092 H         1 MOL     0.0625
     34 H          -5.1106   -1.0331   -1.3016 H         1 MOL     0.0618
     35 H          -6.7926   -0.9598   -3.0204 H         1 MOL     0.0618
     36 H          -8.1382   -2.8630   -3.5812 H         1 MOL     0.0624
     37 H          -9.2638   -6.2339   -3.7933 H         1 MOL     0.0377
     38 H          -8.8273   -4.6213   -4.3338 H         1 MOL     0.0377
     39 H         -10.1063   -5.9057   -1.1883 H         1 MOL     0.0629
     40 H         -13.5533   -6.3643    2.2394 H         1 MOL     0.0480
     41 H         -12.3381   -7.6379    2.0406 H         1 MOL     0.0480
     42 H         -14.9395   -8.1447    2.3250 H         1 MOL     0.0480
     43 H         -13.8491   -9.1753    1.4386 H         1 MOL     0.0480
     44 H         -14.8577   -7.5542   -1.7632 H         1 MOL     0.0480
     45 H         -14.1398   -9.0644   -1.2308 H         1 MOL     0.0480
     46 H         -12.8287   -6.6884   -1.6977 H         1 MOL     0.0480
     47 H         -12.2042   -8.1263   -0.8706 H         1 MOL     0.0480
     48 H         -16.4155   -7.5521    2.1239 H         1 MOL     0.0394
     49 H         -19.0705   -8.5929    2.1623 H         1 MOL     0.0273
     50 H         -19.1276   -8.7228    0.6562 H         1 MOL     0.0273
     51 H         -18.7608   -6.0856    2.3071 H         1 MOL     0.0273
     52 H         -18.7638   -5.7810    0.8210 H         1 MOL     0.0273
     53 H         -12.9489   -2.6076   -3.2456 H         1 MOL     0.0646
     54 H         -10.9437   -3.3577   -4.3537 H         1 MOL     0.0621
     55 H          -6.7381   -7.2742   -0.4316 H         1 MOL     0.1921
@<TRIPOS>BOND
     1    1   17 am
     2    1   18 1 
     3    1   21 1 
     4    2   19 1 
     5    2   20 1 
     6    2   22 am
     7    3    4 ar
     8    3   12 ar
     9    4    5 ar
    10    4   55 1 
    11    5    6 ar
    12    5   29 2 
    13    6    7 ar
    14    6   11 ar
    15    7    8 ar
    16    7   33 1 
    17    8    9 ar
    18    8   34 1 
    19    9   10 ar
    20    9   35 1 
    21   10   11 ar
    22   10   36 1 
    23   11   12 ar
    24   12   13 1 
    25   13   14 1 
    26   13   37 1 
    27   13   38 1 
    28   14   15 ar
    29   14   28 ar
    30   15   16 ar
    31   15   39 1 
    32   16   17 1 
    33   16   26 ar
    34   17   31 2 
    35   18   19 1 
    36   18   40 1 
    37   18   41 1 
    38   19   42 1 
    39   19   43 1 
    40   20   21 1 
    41   20   44 1 
    42   20   45 1 
    43   21   46 1 
    44   21   47 1 
    45   22   23 1 
    46   22   30 2 
    47   23   24 1 
    48   23   25 1 
    49   23   48 1 
    50   24   25 1 
    51   24   49 1 
    52   24   50 1 
    53   25   51 1 
    54   25   52 1 
    55   26   27 ar
    56   26   32 1 
    57   27   28 ar
    58   27   53 1 
    59   28   54 1 
@<TRIPOS>SUBSTRUCTURE
1 MOL         1
@<TRIPOS>MOLECULE
query molecule
   55    59     1     0     0
SMALL
NO_CHARGE

@<TRIPOS>ATOM
      1 N          45.9239   -6.4678   15.2537 N.am      1 MOL    -0.2945
      2 N          43.9666   -5.7546   13.7017 N.am      1 MOL    -0.2983
      3 N          42.1341   -9.5232   19.4070 N.ar      1 MOL    -0.1750
      4 N          41.5229   -9.4595   20.5650 N.ar      1 MOL    -0.2425
      5 C          41.4168  -10.5039   21.3986 C.ar      1 MOL     0.2725
      6 C          41.9756  -11.7093   21.0266 C.ar      1 MOL     0.0496
      7 C          41.8768  -12.8334   21.8475 C.ar      1 MOL     0.0138
      8 C          42.4242  -14.0327   21.4457 C.ar      1 MOL     0.0008
      9 C          43.0545  -14.0528   20.2195 C.ar      1 MOL     0.0007
     10 C          43.1596  -12.9454   19.3946 C.ar      1 MOL     0.0103
     11 C          42.6168  -11.7628   19.8027 C.ar      1 MOL     0.0106
     12 C          42.7142  -10.6823   18.9675 C.ar      1 MOL     0.0736
     13 C          43.4181  -10.6013   17.6943 C.3       1 MOL     0.0925
     14 C          44.7043   -9.8679   17.8526 C.ar      1 MOL    -0.0406
     15 C          45.1014   -9.0959   16.7463 C.ar      1 MOL     0.0196
     16 C          46.2799   -8.3905   16.7928 C.ar      1 MOL     0.0723
     17 C          46.7268   -7.5717   15.6434 C.2       1 MOL     0.2495
     18 C          46.3245   -5.6520   14.1532 C.3       1 MOL     0.1268
     19 C          45.1547   -4.9741   13.4727 C.3       1 MOL     0.1265
     20 C          43.5281   -5.9059   15.0933 C.3       1 MOL     0.1265
     21 C          44.7044   -6.1928   15.9906 C.3       1 MOL     0.1268
     22 C          43.2482   -6.3512   12.6614 C.2       1 MOL     0.2187
     23 C          43.5647   -6.3038   11.2315 C.3       1 MOL     0.0752
     24 C          44.0611   -7.5922   10.6153 C.3       1 MOL     0.0134
     25 C          44.9642   -6.4472   10.7514 C.3       1 MOL     0.0134
     26 C          47.1173   -8.3920   17.8831 C.ar      1 MOL     0.1355
     27 C          46.7276   -9.1481   18.9655 C.ar      1 MOL     0.0392
     28 C          45.5262   -9.8698   18.9210 C.ar      1 MOL     0.0066
     29 O          40.8358  -10.4621   22.5133 O.2       1 MOL    -0.2658
     30 O          42.1963   -7.0167   12.9707 O.2       1 MOL    -0.2753
     31 O          47.7801   -7.8226   15.0138 O.2       1 MOL    -0.2699
     32 F          48.2784   -7.6747   17.8802 F         1 MOL    -0.2047
     33 H          41.3939  -12.7667   22.7571 H         1 MOL     0.0625
     34 H          42.3644  -14.8767   22.0351 H         1 MOL     0.0618
     35 H          43.4699  -14.9410   19.8992 H         1 MOL     0.0618
     36 H          43.6418  -13.0132   18.4845 H         1 MOL     0.0624
     37 H          42.8044  -10.0868   16.9846 H         1 MOL     0.0377
     38 H          43.6279  -11.5934   17.3520 H         1 MOL     0.0377
     39 H          44.5097   -9.0594   15.9018 H         1 MOL     0.0629
     40 H          46.8285   -6.2669   13.4368 H         1 MOL     0.0480
     41 H          46.9651   -4.8846   14.5362 H         1 MOL     0.0480
     42 H          45.3420   -4.9036   12.4219 H         1 MOL     0.0480
     43 H          45.0246   -3.9893   13.8711 H         1 MOL     0.0480
     44 H          42.8316   -6.7155   15.1576 H         1 MOL     0.0480
     45 H          43.0658   -4.9950   15.4119 H         1 MOL     0.0480
     46 H          44.4731   -7.0447   16.5955 H         1 MOL     0.0480
     47 H          44.8776   -5.3190   16.5819 H         1 MOL     0.0480
     48 H          42.7929   -5.5855   11.0505 H         1 MOL     0.0394
     49 H          43.7164   -7.8901    9.6470 H         1 MOL     0.0273
     50 H          44.0856   -8.6174   10.9210 H         1 MOL     0.0273
     51 H          45.2833   -5.9167    9.8786 H         1 MOL     0.0273
     52 H          45.9253   -6.3037   11.1974 H         1 MOL     0.0273
     53 H          47.3204   -9.1832   19.8102 H         1 MOL     0.0646
     54 H          45.2576  -10.4290   19.7460 H         1 MOL     0.0621
     55 H          41.1224   -8.6017   20.8360 H         1 MOL     0.1921
@<TRIPOS>BOND
     1    1   17 am
     2    1   18 1 
     3    1   21 1 
     4    2   19 1 
     5    2   20 1 
     6    2   22 am
     7    3    4 ar
     8    3   12 ar
     9    4    5 ar
    10    4   55 1 
    11    5    6 ar
    12    5   29 2 
    13    6    7 ar
    14    6   11 ar
    15    7    8 ar
    16    7   33 1 
    17    8    9 ar
    18    8   34 1 
    19    9   10 ar
    20    9   35 1 
    21   10   11 ar
    22   10   36 1 
    23   11   12 ar
    24   12   13 1 
    25   13   14 1 
    26   13   37 1 
    27   13   38 1 
    28   14   15 ar
    29   14   28 ar
    30   15   16 ar
    31   15   39 1 
    32   16   17 1 
    33   16   26 ar
    34   17   31 2 
    35   18   19 1 
    36   18   40 1 
    37   18   41 1 
    38   19   42 1 
    39   19   43 1 
    40   20   21 1 
    41   20   44 1 
    42   20   45 1 
    43   21   46 1 
    44   21   47 1 
    45   22   23 1 
    46   22   30 2 
    47   23   24 1 
    48   23   25 1 
    49   23   48 1 
    50   24   25 1 
    51   24   49 1 
    52   24   50 1 
    53   25   51 1 
    54   25   52 1 
    55   26   27 ar
    56   26   32 1 
    57   27   28 ar
    58   27   53 1 
    59   28   54 1 
@<TRIPOS>SUBSTRUCTURE
1 MOL         1
@<TRIPOS>MOLECULE
query molecule
   55    59     1     0     0
SMALL
NO_CHARGE

@<TRIPOS>ATOM
      1 N          42.2037  -15.2252   -2.7248 N.am      1 MOL    -0.2945
      2 N          39.6423  -14.8328   -2.9082 N.am      1 MOL    -0.2983
      3 N          47.1966  -13.1833   -7.5752 N.ar      1 MOL    -0.1750
      4 N          46.9092  -13.2618   -8.8519 N.ar      1 MOL    -0.2425
      5 C          46.2817  -14.3115   -9.4008 C.ar      1 MOL     0.2725
      6 C          45.9173  -15.3657   -8.5888 C.ar      1 MOL     0.0496
      7 C          45.2800  -16.4915   -9.1119 C.ar      1 MOL     0.0138
      8 C          44.9444  -17.5421   -8.2853 C.ar      1 MOL     0.0008
      9 C          45.2688  -17.4163   -6.9511 C.ar      1 MOL     0.0007
     10 C          45.9014  -16.3054   -6.4185 C.ar      1 MOL     0.0103
     11 C          46.2269  -15.2702   -7.2446 C.ar      1 MOL     0.0106
     12 C          46.8676  -14.1872   -6.7051 C.ar      1 MOL     0.0736
     13 C          47.1838  -13.9466   -5.3033 C.3       1 MOL     0.0925
     14 C          46.0161  -13.3497   -4.5980 C.ar      1 MOL    -0.0406
     15 C          45.2930  -14.2290   -3.7724 C.ar      1 MOL     0.0196
     16 C          44.1921  -13.7735   -3.0874 C.ar      1 MOL     0.0723
     17 C          43.4083  -14.6754   -2.2134 C.2       1 MOL     0.2495
     18 C          41.4233  -16.1027   -1.9137 C.3       1 MOL     0.1268
     19 C          39.9565  -16.0932   -2.2872 C.3       1 MOL     0.1265
     20 C          40.3303  -14.5209   -4.1656 C.3       1 MOL     0.1265
     21 C          41.7913  -14.8789   -4.0724 C.3       1 MOL     0.1268
     22 C          38.7277  -13.9312   -2.3560 C.2       1 MOL     0.2187
     23 C          37.9761  -14.0912   -1.1084 C.3       1 MOL     0.0752
     24 C          36.4730  -14.1839   -1.2426 C.3       1 MOL     0.0134
     25 C          37.0831  -13.0132   -0.6082 C.3       1 MOL     0.0134
     26 C          43.7417  -12.4767   -3.1603 C.ar      1 MOL     0.1355
     27 C          44.4503  -11.6168   -3.9687 C.ar      1 MOL     0.0392
     28 C          45.5735  -12.0785   -4.6698 C.ar      1 MOL     0.0066
     29 O          45.9964  -14.4045  -10.6222 O.2       1 MOL    -0.2658
     30 O          38.5095  -12.8401   -2.9942 O.2       1 MOL    -0.2753
     31 O          43.7743  -14.9631   -1.0507 O.2       1 MOL    -0.2699
     32 F          42.6417  -12.0729   -2.4605 F         1 MOL    -0.2047
     33 H          45.0589  -16.5375  -10.1189 H         1 MOL     0.0625
     34 H          44.4727  -18.3840   -8.6485 H         1 MOL     0.0618
     35 H          45.0276  -18.1920   -6.3153 H         1 MOL     0.0618
     36 H          46.1232  -16.2606   -5.4115 H         1 MOL     0.0624
     37 H          48.0145  -13.2750   -5.2398 H         1 MOL     0.0377
     38 H          47.4257  -14.8799   -4.8388 H         1 MOL     0.0377
     39 H          45.5880  -15.2135   -3.6815 H         1 MOL     0.0629
     40 H          41.5189  -15.7998   -0.8916 H         1 MOL     0.0480
     41 H          41.7899  -17.0967   -2.0676 H         1 MOL     0.0480
     42 H          39.3610  -16.2194   -1.4076 H         1 MOL     0.0480
     43 H          39.7502  -16.8942   -2.9664 H         1 MOL     0.0480
     44 H          40.2373  -13.4746   -4.3685 H         1 MOL     0.0480
     45 H          39.8856  -15.0909   -4.9545 H         1 MOL     0.0480
     46 H          42.3701  -14.0408   -4.4005 H         1 MOL     0.0480
     47 H          41.9508  -15.7390   -4.6872 H         1 MOL     0.0480
     48 H          38.7679  -14.6578   -0.6652 H         1 MOL     0.0394
     49 H          35.9253  -14.8883   -0.6518 H         1 MOL     0.0273
     50 H          35.7934  -14.3379   -2.0547 H         1 MOL     0.0273
     51 H          36.9714  -12.8621    0.4452 H         1 MOL     0.0273
     52 H          37.0212  -11.9584   -0.7722 H         1 MOL     0.0273
     53 H          44.1544  -10.6317   -4.0583 H         1 MOL     0.0646
     54 H          46.0867  -11.4131   -5.2694 H         1 MOL     0.0621
     55 H          47.1665  -12.5121   -9.4363 H         1 MOL     0.1921
@<TRIPOS>BOND
     1    1   17 am
     2    1   18 1 
     3    1   21 1 
     4    2   19 1 
     5    2   20 1 
     6    2   22 am
     7    3    4 ar
     8    3   12 ar
     9    4    5 ar
    10    4   55 1 
    11    5    6 ar
    12    5   29 2 
    13    6    7 ar
    14    6   11 ar
    15    7    8 ar
    16    7   33 1 
    17    8    9 ar
    18    8   34 1 
    19    9   10 ar
    20    9   35 1 
    21   10   11 ar
    22   10   36 1 
    23   11   12 ar
    24   12   13 1 
    25   13   14 1 
    26   13   37 1 
    27   13   38 1 
    28   14   15 ar
    29   14   28 ar
    30   15   16 ar
    31   15   39 1 
    32   16   17 1 
    33   16   26 ar
    34   17   31 2 
    35   18   19 1 
    36   18   40 1 
    37   18   41 1 
    38   19   42 1 
    39   19   43 1 
    40   20   21 1 
    41   20   44 1 
    42   20   45 1 
    43   21   46 1 
    44   21   47 1 
    45   22   23 1 
    46   22   30 2 
    47   23   24 1 
    48   23   25 1 
    49   23   48 1 
    50   24   25 1 
    51   24   49 1 
    52   24   50 1 
    53   25   51 1 
    54   25   52 1 
    55   26   27 ar
    56   26   32 1 
    57   27   28 ar
    58   27   53 1 
    59   28   54 1 
@<TRIPOS>SUBSTRUCTURE
1 MOL         1
@<TRIPOS>MOLECULE
query molecule
   55    59     1     0     0
SMALL
NO_CHARGE

@<TRIPOS>ATOM
      1 N          26.2493   17.7159    0.5268 N.am      1 MOL    -0.2945
      2 N          24.6449   18.2521   -1.4447 N.am      1 MOL    -0.2983
      3 N          27.3491   18.4826    5.7626 N.ar      1 MOL    -0.1750
      4 N          28.3567   19.2987    5.5691 N.ar      1 MOL    -0.2425
      5 C          29.6373   18.9032    5.5891 C.ar      1 MOL     0.2725
      6 C          29.9173   17.5729    5.8248 C.ar      1 MOL     0.0496
      7 C          31.2333   17.1115    5.8760 C.ar      1 MOL     0.0138
      8 C          31.4899   15.7822    6.1342 C.ar      1 MOL     0.0008
      9 C          30.3995   14.9622    6.3340 C.ar      1 MOL     0.0007
     10 C          29.0887   15.4064    6.2864 C.ar      1 MOL     0.0103
     11 C          28.8456   16.7232    6.0277 C.ar      1 MOL     0.0106
     12 C          27.5447   17.1493    6.0015 C.ar      1 MOL     0.0736
     13 C          26.3398   16.3407    6.1337 C.3       1 MOL     0.0925
     14 C          25.8548   15.9011    4.7962 C.ar      1 MOL    -0.0406
     15 C          26.5439   16.4397    3.6950 C.ar      1 MOL     0.0196
     16 C          26.1632   16.1015    2.4185 C.ar      1 MOL     0.0723
     17 C          26.8665   16.6544    1.2391 C.2       1 MOL     0.2495
     18 C          26.8991   18.2783   -0.6128 C.3       1 MOL     0.1268
     19 C          25.9257   18.8922   -1.5960 C.3       1 MOL     0.1265
     20 C          23.9773   18.3984   -0.1467 C.3       1 MOL     0.1265
     21 C          24.9613   18.2083    0.9788 C.3       1 MOL     0.1268
     22 C          24.0460   17.5186   -2.4731 C.2       1 MOL     0.2187
     23 C          24.5896   17.2714   -3.8113 C.3       1 MOL     0.0752
     24 C          24.4076   15.8732   -4.3571 C.3       1 MOL     0.0134
     25 C          25.7456   16.3588   -4.0121 C.3       1 MOL     0.0134
     26 C          25.1229   15.2459    2.1435 C.ar      1 MOL     0.1355
     27 C          24.4490   14.7193    3.2221 C.ar      1 MOL     0.0392
     28 C          24.8343   15.0630    4.5259 C.ar      1 MOL     0.0066
     29 O          30.6168   19.6703    5.4045 O.2       1 MOL    -0.2658
     30 O          22.8975   16.9971   -2.2404 O.2       1 MOL    -0.2753
     31 O          27.9765   16.2174    0.8577 O.2       1 MOL    -0.2699
     32 F          24.7827   14.9416    0.8572 F         1 MOL    -0.2047
     33 H          32.0156   17.7662    5.7198 H         1 MOL     0.0625
     34 H          32.4536   15.4178    6.1765 H         1 MOL     0.0618
     35 H          30.5695   13.9638    6.5300 H         1 MOL     0.0618
     36 H          28.3068   14.7513    6.4438 H         1 MOL     0.0624
     37 H          25.5776   16.9198    6.6118 H         1 MOL     0.0377
     38 H          26.5680   15.4739    6.7185 H         1 MOL     0.0377
     39 H          27.3331   17.0872    3.8450 H         1 MOL     0.0629
     40 H          27.4475   17.5055   -1.1103 H         1 MOL     0.0480
     41 H          27.5433   19.0593   -0.2648 H         1 MOL     0.0480
     42 H          26.2842   18.7486   -2.5936 H         1 MOL     0.0480
     43 H          25.8321   19.9414   -1.4063 H         1 MOL     0.0480
     44 H          23.2028   17.6651   -0.0638 H         1 MOL     0.0480
     45 H          23.5628   19.3826   -0.0794 H         1 MOL     0.0480
     46 H          24.5532   17.5048    1.6743 H         1 MOL     0.0480
     47 H          25.1237   19.1649    1.4281 H         1 MOL     0.0480
     48 H          24.3800   18.2746   -4.1180 H         1 MOL     0.0394
     49 H          24.1381   15.7299   -5.3828 H         1 MOL     0.0273
     50 H          23.8154   15.0250   -4.0839 H         1 MOL     0.0273
     51 H          26.4532   16.5610   -4.7889 H         1 MOL     0.0273
     52 H          26.5309   15.9984   -3.3822 H         1 MOL     0.0273
     53 H          23.6598   14.0709    3.0707 H         1 MOL     0.0646
     54 H          24.3119   14.6543    5.3169 H         1 MOL     0.0621
     55 H          28.1629   20.2493    5.4001 H         1 MOL     0.1921
@<TRIPOS>BOND
     1    1   17 am
     2    1   18 1 
     3    1   21 1 
     4    2   19 1 
     5    2   20 1 
     6    2   22 am
     7    3    4 ar
     8    3   12 ar
     9    4    5 ar
    10    4   55 1 
    11    5    6 ar
    12    5   29 2 
    13    6    7 ar
    14    6   11 ar
    15    7    8 ar
    16    7   33 1 
    17    8    9 ar
    18    8   34 1 
    19    9   10 ar
    20    9   35 1 
    21   10   11 ar
    22   10   36 1 
    23   11   12 ar
    24   12   13 1 
    25   13   14 1 
    26   13   37 1 
    27   13   38 1 
    28   14   15 ar
    29   14   28 ar
    30   15   16 ar
    31   15   39 1 
    32   16   17 1 
    33   16   26 ar
    34   17   31 2 
    35   18   19 1 
    36   18   40 1 
    37   18   41 1 
    38   19   42 1 
    39   19   43 1 
    40   20   21 1 
    41   20   44 1 
    42   20   45 1 
    43   21   46 1 
    44   21   47 1 
    45   22   23 1 
    46   22   30 2 
    47   23   24 1 
    48   23   25 1 
    49   23   48 1 
    50   24   25 1 
    51   24   49 1 
    52   24   50 1 
    53   25   51 1 
    54   25   52 1 
    55   26   27 ar
    56   26   32 1 
    57   27   28 ar
    58   27   53 1 
    59   28   54 1 
@<TRIPOS>SUBSTRUCTURE
1 MOL         1
@<TRIPOS>MOLECULE
query molecule
   55    59     1     0     0
SMALL
NO_CHARGE

@<TRIPOS>ATOM
      1 N          32.2416   15.8775   40.0035 N.am      1 MOL    -0.2945
      2 N          29.6554   15.6595   39.8907 N.am      1 MOL    -0.2983
      3 N          37.3744   17.5159   34.4674 N.ar      1 MOL    -0.1750
      4 N          37.2289   17.3220   33.1791 N.ar      1 MOL    -0.2425
      5 C          36.2641   16.5524   32.6559 C.ar      1 MOL     0.2725
      6 C          35.3763   15.9296   33.5090 C.ar      1 MOL     0.0496
      7 C          34.3658   15.1017   33.0186 C.ar      1 MOL     0.0138
      8 C          33.5035   14.4729   33.8907 C.ar      1 MOL     0.0008
      9 C          33.6965   14.7041   35.2363 C.ar      1 MOL     0.0007
     10 C          34.6951   15.5227   35.7369 C.ar      1 MOL     0.0103
     11 C          35.5413   16.1423   34.8652 C.ar      1 MOL     0.0106
     12 C          36.5339   16.9340   35.3775 C.ar      1 MOL     0.0736
     13 C          36.7634   17.2834   36.7733 C.3       1 MOL     0.0925
     14 C          35.5234   17.8353   37.3858 C.ar      1 MOL    -0.0406
     15 C          35.0121   17.1098   38.4766 C.ar      1 MOL     0.0196
     16 C          33.8646   17.5346   39.1024 C.ar      1 MOL     0.0723
     17 C          33.2998   16.7907   40.2508 C.2       1 MOL     0.2495
     18 C          31.6745   15.1383   41.0847 C.3       1 MOL     0.1268
     19 C          30.2392   14.7333   40.8258 C.3       1 MOL     0.1265
     20 C          30.2537   15.7198   38.5527 C.3       1 MOL     0.1265
     21 C          31.7579   15.7157   38.6449 C.3       1 MOL     0.1268
     22 C          28.5688   16.4748   40.2207 C.2       1 MOL     0.2187
     23 C          27.8755   16.5400   41.5099 C.3       1 MOL     0.0752
     24 C          27.1758   15.2759   41.9554 C.3       1 MOL     0.0134
     25 C          26.3933   16.4580   41.5876 C.3       1 MOL     0.0134
     26 C          33.1668   18.6552   38.7185 C.ar      1 MOL     0.1355
     27 C          33.6682   19.3645   37.6506 C.ar      1 MOL     0.0392
     28 C          34.8383   18.9333   37.0092 C.ar      1 MOL     0.0066
     29 O          36.1077   16.3553   31.4236 O.2       1 MOL    -0.2658
     30 O          28.1155   17.2579   39.3115 O.2       1 MOL    -0.2753
     31 O          33.7245   16.9428   41.4192 O.2       1 MOL    -0.2699
     32 F          32.0309   19.0357   39.3723 F         1 MOL    -0.2047
     33 H          34.2632   14.9605   32.0015 H         1 MOL     0.0625
     34 H          32.7489   13.8570   33.5522 H         1 MOL     0.0618
     35 H          33.0627   14.2420   35.9063 H         1 MOL     0.0618
     36 H          34.7978   15.6625   36.7544 H         1 MOL     0.0624
     37 H          37.5405   18.0168   36.8297 H         1 MOL     0.0377
     38 H          37.0475   16.4009   37.3080 H         1 MOL     0.0377
     39 H          35.4970   16.2608   38.8061 H         1 MOL     0.0629
     40 H          31.7061   15.7435   41.9670 H         1 MOL     0.0480
     41 H          32.2481   14.2417   41.1993 H         1 MOL     0.0480
     42 H          29.6892   14.7532   41.7430 H         1 MOL     0.0480
     43 H          30.2094   13.7425   40.4222 H         1 MOL     0.0480
     44 H          29.9342   16.6161   38.0635 H         1 MOL     0.0480
     45 H          29.9404   14.8626   37.9942 H         1 MOL     0.0480
     46 H          32.1390   16.5196   38.0502 H         1 MOL     0.0480
     47 H          32.0983   14.7645   38.2949 H         1 MOL     0.0480
     48 H          28.5977   17.2252   41.9013 H         1 MOL     0.0394
     49 H          27.2296   14.9665   42.9785 H         1 MOL     0.0273
     50 H          27.1928   14.2518   41.6457 H         1 MOL     0.0273
     51 H          25.8701   17.0044   42.3445 H         1 MOL     0.0273
     52 H          25.5978   16.6412   40.8970 H         1 MOL     0.0273
     53 H          33.1824   20.2144   37.3222 H         1 MOL     0.0646
     54 H          35.1927   19.4832   36.2107 H         1 MOL     0.0621
     55 H          37.8594   17.7642   32.5653 H         1 MOL     0.1921
@<TRIPOS>BOND
     1    1   17 am
     2    1   18 1 
     3    1   21 1 
     4    2   19 1 
     5    2   20 1 
     6    2   22 am
     7    3    4 ar
     8    3   12 ar
     9    4    5 ar
    10    4   55 1 
    11    5    6 ar
    12    5   29 2 
    13    6    7 ar
    14    6   11 ar
    15    7    8 ar
    16    7   33 1 
    17    8    9 ar
    18    8   34 1 
    19    9   10 ar
    20    9   35 1 
    21   10   11 ar
    22   10   36 1 
    23   11   12 ar
    24   12   13 1 
    25   13   14 1 
    26   13   37 1 
    27   13   38 1 
    28   14   15 ar
    29   14   28 ar
    30   15   16 ar
    31   15   39 1 
    32   16   17 1 
    33   16   26 ar
    34   17   31 2 
    35   18   19 1 
    36   18   40 1 
    37   18   41 1 
    38   19   42 1 
    39   19   43 1 
    40   20   21 1 
    41   20   44 1 
    42   20   45 1 
    43   21   46 1 
    44   21   47 1 
    45   22   23 1 
    46   22   30 2 
    47   23   24 1 
    48   23   25 1 
    49   23   48 1 
    50   24   25 1 
    51   24   49 1 
    52   24   50 1 
    53   25   51 1 
    54   25   52 1 
    55   26   27 ar
    56   26   32 1 
    57   27   28 ar
    58   27   53 1 
    59   28   54 1 
@<TRIPOS>SUBSTRUCTURE
1 MOL         1
@<TRIPOS>MOLECULE
query molecule
   55    59     1     0     0
SMALL
NO_CHARGE

@<TRIPOS>ATOM
      1 N         -11.4427    1.2975   38.3204 N.am      1 MOL    -0.2945
      2 N         -11.1066   -0.8970   36.9714 N.am      1 MOL    -0.2983
      3 N         -11.7281    7.3045   39.8217 N.ar      1 MOL    -0.1750
      4 N         -11.6902    7.4123   41.1277 N.ar      1 MOL    -0.2425
      5 C         -10.5966    7.1464   41.8558 C.ar      1 MOL     0.2725
      6 C          -9.4500    6.7380   41.2061 C.ar      1 MOL     0.0496
      7 C          -8.2898    6.4292   41.9173 C.ar      1 MOL     0.0138
      8 C          -7.1625    6.0027   41.2489 C.ar      1 MOL     0.0008
      9 C          -7.2500    5.9017   39.8765 C.ar      1 MOL     0.0007
     10 C          -8.3945    6.2045   39.1581 C.ar      1 MOL     0.0103
     11 C          -9.5038    6.6281   39.8288 C.ar      1 MOL     0.0106
     12 C         -10.6321    6.9064   39.1051 C.ar      1 MOL     0.0736
     13 C         -10.7873    6.8915   37.6564 C.3       1 MOL     0.0925
     14 C         -11.6577    5.7594   37.2345 C.ar      1 MOL    -0.0406
     15 C         -11.6287    4.6290   38.0705 C.ar      1 MOL     0.0196
     16 C         -12.3908    3.5286   37.7587 C.ar      1 MOL     0.0723
     17 C         -12.3790    2.3224   38.6167 C.2       1 MOL     0.2495
     18 C         -11.3980    0.1216   39.1281 C.3       1 MOL     0.1268
     19 C         -10.8664   -1.0814   38.3790 C.3       1 MOL     0.1265
     20 C         -10.4445    0.2426   36.3273 C.3       1 MOL     0.1265
     21 C         -10.5453    1.4718   37.1935 C.3       1 MOL     0.1268
     22 C         -11.9300   -1.7511   36.2320 C.2       1 MOL     0.2187
     23 C         -12.6668   -2.9152   36.7311 C.3       1 MOL     0.0752
     24 C         -14.1586   -2.7376   36.9010 C.3       1 MOL     0.0134
     25 C         -13.2999   -2.9023   38.0760 C.3       1 MOL     0.0134
     26 C         -13.2023    3.4625   36.6510 C.ar      1 MOL     0.1355
     27 C         -13.2299    4.5696   35.8334 C.ar      1 MOL     0.0392
     28 C         -12.4528    5.6937   36.1480 C.ar      1 MOL     0.0066
     29 O         -10.5405    7.2451   43.1084 O.2       1 MOL    -0.2658
     30 O         -12.0694   -1.5064   34.9807 O.2       1 MOL    -0.2753
     31 O         -13.1620    2.1834   39.5844 O.2       1 MOL    -0.2699
     32 F         -13.9399    2.3457   36.3841 F         1 MOL    -0.2047
     33 H          -8.2754    6.5208   42.9451 H         1 MOL     0.0625
     34 H          -6.2935    5.7692   41.7524 H         1 MOL     0.0618
     35 H          -6.4177    5.5831   39.3570 H         1 MOL     0.0618
     36 H          -8.4085    6.1116   38.1302 H         1 MOL     0.0624
     37 H          -9.8252    6.7850   37.2001 H         1 MOL     0.0377
     38 H         -11.2437    7.8093   37.3485 H         1 MOL     0.0377
     39 H         -11.0366    4.6255   38.9154 H         1 MOL     0.0629
     40 H         -12.3884   -0.0972   39.4695 H         1 MOL     0.0480
     41 H         -10.7321    0.3150   39.9438 H         1 MOL     0.0480
     42 H         -11.3665   -1.9647   38.7167 H         1 MOL     0.0480
     43 H          -9.8162   -1.1848   38.5578 H         1 MOL     0.0480
     44 H         -10.9137    0.4371   35.3857 H         1 MOL     0.0480
     45 H          -9.4109    0.0065   36.1831 H         1 MOL     0.0480
     46 H         -10.9043    2.2831   36.5950 H         1 MOL     0.0480
     47 H          -9.5707    1.6676   37.5873 H         1 MOL     0.0480
     48 H         -12.0011   -3.5905   36.2359 H         1 MOL     0.0394
     49 H         -14.8273   -3.5217   36.6125 H         1 MOL     0.0273
     50 H         -14.8756   -2.0101   36.5822 H         1 MOL     0.0273
     51 H         -13.3508   -3.8053   38.6479 H         1 MOL     0.0273
     52 H         -13.1425   -2.3377   38.9703 H         1 MOL     0.0273
     53 H         -13.8234    4.5720   34.9884 H         1 MOL     0.0646
     54 H         -12.4916    6.5104   35.5179 H         1 MOL     0.0621
     55 H         -12.5056    7.7036   41.5969 H         1 MOL     0.1921
@<TRIPOS>BOND
     1    1   17 am
     2    1   18 1 
     3    1   21 1 
     4    2   19 1 
     5    2   20 1 
     6    2   22 am
     7    3    4 ar
     8    3   12 ar
     9    4    5 ar
    10    4   55 1 
    11    5    6 ar
    12    5   29 2 
    13    6    7 ar
    14    6   11 ar
    15    7    8 ar
    16    7   33 1 
    17    8    9 ar
    18    8   34 1 
    19    9   10 ar
    20    9   35 1 
    21   10   11 ar
    22   10   36 1 
    23   11   12 ar
    24   12   13 1 
    25   13   14 1 
    26   13   37 1 
    27   13   38 1 
    28   14   15 ar
    29   14   28 ar
    30   15   16 ar
    31   15   39 1 
    32   16   17 1 
    33   16   26 ar
    34   17   31 2 
    35   18   19 1 
    36   18   40 1 
    37   18   41 1 
    38   19   42 1 
    39   19   43 1 
    40   20   21 1 
    41   20   44 1 
    42   20   45 1 
    43   21   46 1 
    44   21   47 1 
    45   22   23 1 
    46   22   30 2 
    47   23   24 1 
    48   23   25 1 
    49   23   48 1 
    50   24   25 1 
    51   24   49 1 
    52   24   50 1 
    53   25   51 1 
    54   25   52 1 
    55   26   27 ar
    56   26   32 1 
    57   27   28 ar
    58   27   53 1 
    59   28   54 1 
@<TRIPOS>SUBSTRUCTURE
1 MOL         1
@<TRIPOS>MOLECULE
query molecule
   55    59     1     0     0
SMALL
NO_CHARGE

@<TRIPOS>ATOM
      1 N           4.1431   14.2729  -10.5079 N.am      1 MOL    -0.2945
      2 N           3.0527   16.6295  -10.5848 N.am      1 MOL    -0.2983
      3 N           0.7225   14.0001   -6.9674 N.ar      1 MOL    -0.1750
      4 N           0.4559   15.2781   -6.8476 N.ar      1 MOL    -0.2425
      5 C           0.5812   15.9502   -5.6946 C.ar      1 MOL     0.2725
      6 C           1.0111   15.2703   -4.5736 C.ar      1 MOL     0.0496
      7 C           1.1396   15.9170   -3.3438 C.ar      1 MOL     0.0138
      8 C           1.5504   15.2129   -2.2324 C.ar      1 MOL     0.0008
      9 C           1.8165   13.8711   -2.4055 C.ar      1 MOL     0.0007
     10 C           1.6929   13.2165   -3.6196 C.ar      1 MOL     0.0103
     11 C           1.2883   13.9230   -4.7137 C.ar      1 MOL     0.0106
     12 C           1.1544   13.2569   -5.9023 C.ar      1 MOL     0.0736
     13 C           1.4785   11.8646   -6.1846 C.3       1 MOL     0.0925
     14 C           2.7507   11.7684   -6.9525 C.ar      1 MOL    -0.0406
     15 C           2.7283   12.3429   -8.2359 C.ar      1 MOL     0.0196
     16 C           3.8520   12.2953   -9.0257 C.ar      1 MOL     0.0723
     17 C           3.8587   12.8878  -10.3823 C.2       1 MOL     0.2495
     18 C           4.1634   14.8791  -11.7999 C.3       1 MOL     0.1268
     19 C           3.8454   16.3583  -11.7559 C.3       1 MOL     0.1265
     20 C           3.6751   16.3618   -9.2837 C.3       1 MOL     0.1265
     21 C           4.4090   15.0458   -9.3089 C.3       1 MOL     0.1268
     22 C           1.7475   17.1244  -10.6598 C.2       1 MOL     0.2187
     23 C           0.9881   17.4265  -11.8761 C.3       1 MOL     0.0752
     24 C           1.0322   16.3805  -12.9669 C.3       1 MOL     0.0134
     25 C           1.6791   17.6791  -13.1678 C.3       1 MOL     0.0134
     26 C           5.0286   11.7058   -8.6285 C.ar      1 MOL     0.1355
     27 C           5.0494   11.1437   -7.3721 C.ar      1 MOL     0.0392
     28 C           3.9043   11.1896   -6.5640 C.ar      1 MOL     0.0066
     29 O           0.3317   17.1755   -5.5603 O.2       1 MOL    -0.2658
     30 O           1.1305   17.3434   -9.5569 O.2       1 MOL    -0.2753
     31 O           3.6238   12.2095  -11.4087 O.2       1 MOL    -0.2699
     32 F           6.1178   11.6837   -9.4506 F         1 MOL    -0.2047
     33 H           0.9276   16.9240   -3.2661 H         1 MOL     0.0625
     34 H           1.6532   15.6688   -1.3133 H         1 MOL     0.0618
     35 H           2.1241   13.3252   -1.5860 H         1 MOL     0.0618
     36 H           1.9041   12.2091   -3.6963 H         1 MOL     0.0624
     37 H           0.6874   11.4279   -6.7576 H         1 MOL     0.0377
     38 H           1.5962   11.3428   -5.2577 H         1 MOL     0.0377
     39 H           1.8704   12.7987   -8.5838 H         1 MOL     0.0629
     40 H           3.4393   14.3909  -12.4186 H         1 MOL     0.0480
     41 H           5.1542   14.7727  -12.1912 H         1 MOL     0.0480
     42 H           3.2983   16.6344  -12.6326 H         1 MOL     0.0480
     43 H           4.7535   16.9234  -11.7186 H         1 MOL     0.0480
     44 H           2.9162   16.3264   -8.5304 H         1 MOL     0.0480
     45 H           4.3743   17.1422   -9.0670 H         1 MOL     0.0480
     46 H           4.1073   14.4699   -8.4590 H         1 MOL     0.0480
     47 H           5.4560   15.2620   -9.2928 H         1 MOL     0.0480
     48 H           0.2460   17.9599  -11.3201 H         1 MOL     0.0394
     49 H           0.1431   16.1356  -13.5099 H         1 MOL     0.0273
     50 H           1.3476   15.3596  -13.0246 H         1 MOL     0.0273
     51 H           1.2636   18.3766  -13.8649 H         1 MOL     0.0273
     52 H           2.6664   17.9870  -13.4390 H         1 MOL     0.0273
     53 H           5.9087   10.6885   -7.0249 H         1 MOL     0.0646
     54 H           3.9466   10.7603   -5.6262 H         1 MOL     0.0621
     55 H           0.1490   15.7686   -7.6445 H         1 MOL     0.1921
@<TRIPOS>BOND
     1    1   17 am
     2    1   18 1 
     3    1   21 1 
     4    2   19 1 
     5    2   20 1 
     6    2   22 am
     7    3    4 ar
     8    3   12 ar
     9    4    5 ar
    10    4   55 1 
    11    5    6 ar
    12    5   29 2 
    13    6    7 ar
    14    6   11 ar
    15    7    8 ar
    16    7   33 1 
    17    8    9 ar
    18    8   34 1 
    19    9   10 ar
    20    9   35 1 
    21   10   11 ar
    22   10   36 1 
    23   11   12 ar
    24   12   13 1 
    25   13   14 1 
    26   13   37 1 
    27   13   38 1 
    28   14   15 ar
    29   14   28 ar
    30   15   16 ar
    31   15   39 1 
    32   16   17 1 
    33   16   26 ar
    34   17   31 2 
    35   18   19 1 
    36   18   40 1 
    37   18   41 1 
    38   19   42 1 
    39   19   43 1 
    40   20   21 1 
    41   20   44 1 
    42   20   45 1 
    43   21   46 1 
    44   21   47 1 
    45   22   23 1 
    46   22   30 2 
    47   23   24 1 
    48   23   25 1 
    49   23   48 1 
    50   24   25 1 
    51   24   49 1 
    52   24   50 1 
    53   25   51 1 
    54   25   52 1 
    55   26   27 ar
    56   26   32 1 
    57   27   28 ar
    58   27   53 1 
    59   28   54 1 
@<TRIPOS>SUBSTRUCTURE
1 MOL         1
@<TRIPOS>MOLECULE
query molecule
   55    59     1     0     0
SMALL
NO_CHARGE

@<TRIPOS>ATOM
      1 N          25.0460   12.2037    0.5502 N.am      1 MOL    -0.2945
      2 N          26.6598   10.2853    1.2312 N.am      1 MOL    -0.2983
      3 N          29.0110   14.3567   -1.3223 N.ar      1 MOL    -0.1750
      4 N          29.9251   14.0890   -0.4215 N.ar      1 MOL    -0.2425
      5 C          30.9616   13.2695   -0.6471 C.ar      1 MOL     0.2725
      6 C          31.0793   12.6741   -1.8862 C.ar      1 MOL     0.0496
      7 C          32.1276   11.7972   -2.1677 C.ar      1 MOL     0.0138
      8 C          32.2132   11.1973   -3.4056 C.ar      1 MOL     0.0008
      9 C          31.2283   11.5065   -4.3196 C.ar      1 MOL     0.0007
     10 C          30.1823   12.3743   -4.0538 C.ar      1 MOL     0.0103
     11 C          30.1083   12.9647   -2.8267 C.ar      1 MOL     0.0106
     12 C          29.0583   13.8063   -2.5744 C.ar      1 MOL     0.0736
     13 C          28.0196   14.2370   -3.5011 C.3       1 MOL     0.0925
     14 C          26.7847   14.6199   -2.7623 C.ar      1 MOL    -0.0406
     15 C          26.1716   13.5869   -2.0311 C.ar      1 MOL     0.0196
     16 C          25.0203   13.8400   -1.3244 C.ar      1 MOL     0.0723
     17 C          24.3496   12.7729   -0.5480 C.2       1 MOL     0.2495
     18 C          24.4301   11.1759    1.3257 C.3       1 MOL     0.1268
     19 C          25.4378   10.2642    1.9923 C.3       1 MOL     0.1265
     20 C          27.3581   11.5714    1.1297 C.3       1 MOL     0.1265
     21 C          26.3792   12.6853    0.8610 C.3       1 MOL     0.1268
     22 C          27.1759    9.1455    0.6079 C.2       1 MOL     0.2187
     23 C          26.5918    7.8016    0.6054 C.3       1 MOL     0.0752
     24 C          25.9319    7.3589    1.8917 C.3       1 MOL     0.0134
     25 C          27.1672    6.7146    1.4401 C.3       1 MOL     0.0134
     26 C          24.4146   15.0735   -1.2861 C.ar      1 MOL     0.1355
     27 C          25.0156   16.0839   -2.0023 C.ar      1 MOL     0.0392
     28 C          26.1898   15.8289   -2.7252 C.ar      1 MOL     0.0066
     29 O          31.8487   13.0015    0.2033 O.2       1 MOL    -0.2658
     30 O          28.2779    9.2680   -0.0370 O.2       1 MOL    -0.2753
     31 O          23.1997   12.3641   -0.8295 O.2       1 MOL    -0.2699
     32 F          23.2706   15.2743   -0.5694 F         1 MOL    -0.2047
     33 H          32.8404   11.5980   -1.4484 H         1 MOL     0.0625
     34 H          32.9787   10.5464   -3.6372 H         1 MOL     0.0618
     35 H          31.2729   11.0672   -5.2519 H         1 MOL     0.0618
     36 H          29.4692   12.5722   -4.7733 H         1 MOL     0.0624
     37 H          27.7934   13.4362   -4.1738 H         1 MOL     0.0377
     38 H          28.3730   15.0886   -4.0444 H         1 MOL     0.0377
     39 H          26.5847   12.6415   -2.0254 H         1 MOL     0.0629
     40 H          23.8084   10.5880    0.6828 H         1 MOL     0.0480
     41 H          23.8623   11.6509    2.0990 H         1 MOL     0.0480
     42 H          25.0524    9.2669    2.0266 H         1 MOL     0.0480
     43 H          25.6259   10.6004    2.9908 H         1 MOL     0.0480
     44 H          28.0667   11.5259    0.3295 H         1 MOL     0.0480
     45 H          27.8582   11.7681    2.0550 H         1 MOL     0.0480
     46 H          26.7350   13.2603    0.0316 H         1 MOL     0.0480
     47 H          26.3082   13.2721    1.7520 H         1 MOL     0.0480
     48 H          26.3353    7.8790   -0.4303 H         1 MOL     0.0394
     49 H          25.0063    6.8226    1.8614 H         1 MOL     0.0273
     50 H          25.6172    7.8496    2.7890 H         1 MOL     0.0273
     51 H          27.1407    5.7042    1.0886 H         1 MOL     0.0273
     52 H          28.1240    6.5411    1.8848 H         1 MOL     0.0273
     53 H          24.6015   17.0297   -2.0067 H         1 MOL     0.0646
     54 H          26.6199   16.6041   -3.2541 H         1 MOL     0.0621
     55 H          29.8464   14.5114    0.4646 H         1 MOL     0.1921
@<TRIPOS>BOND
     1    1   17 am
     2    1   18 1 
     3    1   21 1 
     4    2   19 1 
     5    2   20 1 
     6    2   22 am
     7    3    4 ar
     8    3   12 ar
     9    4    5 ar
    10    4   55 1 
    11    5    6 ar
    12    5   29 2 
    13    6    7 ar
    14    6   11 ar
    15    7    8 ar
    16    7   33 1 
    17    8    9 ar
    18    8   34 1 
    19    9   10 ar
    20    9   35 1 
    21   10   11 ar
    22   10   36 1 
    23   11   12 ar
    24   12   13 1 
    25   13   14 1 
    26   13   37 1 
    27   13   38 1 
    28   14   15 ar
    29   14   28 ar
    30   15   16 ar
    31   15   39 1 
    32   16   17 1 
    33   16   26 ar
    34   17   31 2 
    35   18   19 1 
    36   18   40 1 
    37   18   41 1 
    38   19   42 1 
    39   19   43 1 
    40   20   21 1 
    41   20   44 1 
    42   20   45 1 
    43   21   46 1 
    44   21   47 1 
    45   22   23 1 
    46   22   30 2 
    47   23   24 1 
    48   23   25 1 
    49   23   48 1 
    50   24   25 1 
    51   24   49 1 
    52   24   50 1 
    53   25   51 1 
    54   25   52 1 
    55   26   27 ar
    56   26   32 1 
    57   27   28 ar
    58   27   53 1 
    59   28   54 1 
@<TRIPOS>SUBSTRUCTURE
1 MOL         1
@<TRIPOS>MOLECULE
query molecule
   55    59     1     0     0
SMALL
NO_CHARGE

@<TRIPOS>ATOM
      1 N          33.9633   -5.8188   40.9979 N.am      1 MOL    -0.2945
      2 N          34.9733   -6.7790   43.1902 N.am      1 MOL    -0.2983
      3 N          39.0985   -3.6872   39.8117 N.ar      1 MOL    -0.1750
      4 N          39.6522   -3.3420   40.9488 N.ar      1 MOL    -0.2425
      5 C          40.3339   -4.1972   41.7239 C.ar      1 MOL     0.2725
      6 C          40.4634   -5.5076   41.3119 C.ar      1 MOL     0.0496
      7 C          41.1454   -6.4437   42.0902 C.ar      1 MOL     0.0138
      8 C          41.2439   -7.7523   41.6688 C.ar      1 MOL     0.0008
      9 C          40.6438   -8.0696   40.4687 C.ar      1 MOL     0.0007
     10 C          39.9636   -7.1512   39.6865 C.ar      1 MOL     0.0103
     11 C          39.8742   -5.8584   40.1112 C.ar      1 MOL     0.0106
     12 C          39.1833   -4.9672   39.3346 C.ar      1 MOL     0.0736
     13 C          38.5819   -5.2032   38.0286 C.3       1 MOL     0.0925
     14 C          37.1679   -4.7369   38.0112 C.ar      1 MOL    -0.0406
     15 C          36.2663   -5.5088   38.7656 C.ar      1 MOL     0.0196
     16 C          34.9365   -5.1639   38.8033 C.ar      1 MOL     0.0723
     17 C          33.9625   -5.9584   39.5853 C.2       1 MOL     0.2495
     18 C          33.0356   -6.5646   41.7855 C.3       1 MOL     0.1268
     19 C          33.5340   -6.8161   43.1924 C.3       1 MOL     0.1265
     20 C          35.6055   -5.5106   42.8116 C.3       1 MOL     0.1265
     21 C          34.9155   -4.9126   41.6126 C.3       1 MOL     0.1268
     22 C          35.7535   -7.8886   43.5285 C.2       1 MOL     0.2187
     23 C          35.2740   -9.2191   43.9118 C.3       1 MOL     0.0752
     24 C          33.7803   -9.4390   43.8293 C.3       1 MOL     0.0134
     25 C          34.4483   -9.4137   45.1325 C.3       1 MOL     0.0134
     26 C          34.4187   -4.0817   38.1320 C.ar      1 MOL     0.1355
     27 C          35.3021   -3.3269   37.3939 C.ar      1 MOL     0.0392
     28 C          36.6594   -3.6765   37.3524 C.ar      1 MOL     0.0066
     29 O          40.8729   -3.8848   42.8165 O.2       1 MOL    -0.2658
     30 O          37.0282   -7.7480   43.5064 O.2       1 MOL    -0.2753
     31 O          33.1483   -6.7397   39.0419 O.2       1 MOL    -0.2699
     32 F          33.0892   -3.7808   38.2006 F         1 MOL    -0.2047
     33 H          41.5774   -6.1559   42.9821 H         1 MOL     0.0625
     34 H          41.7431   -8.4617   42.2263 H         1 MOL     0.0618
     35 H          40.7046   -9.0440   40.1356 H         1 MOL     0.0618
     36 H          39.5308   -7.4400   38.7950 H         1 MOL     0.0624
     37 H          38.6100   -6.2507   37.8119 H         1 MOL     0.0377
     38 H          39.1329   -4.6575   37.2910 H         1 MOL     0.0377
     39 H          36.6023   -6.3320   39.2890 H         1 MOL     0.0629
     40 H          32.8626   -7.5074   41.3094 H         1 MOL     0.0480
     41 H          32.1369   -5.9877   41.8589 H         1 MOL     0.0480
     42 H          33.1992   -7.7758   43.5259 H         1 MOL     0.0480
     43 H          33.1523   -6.0645   43.8519 H         1 MOL     0.0480
     44 H          36.6337   -5.6861   42.5739 H         1 MOL     0.0480
     45 H          35.5274   -4.8265   43.6307 H         1 MOL     0.0480
     46 H          35.6569   -4.6537   40.8856 H         1 MOL     0.0480
     47 H          34.3713   -4.0562   41.9495 H         1 MOL     0.0480
     48 H          36.1642   -9.6829   43.5420 H         1 MOL     0.0394
     49 H          33.3954  -10.3597   43.4428 H         1 MOL     0.0273
     50 H          32.9607   -8.9119   43.3873 H         1 MOL     0.0273
     51 H          34.5416  -10.3170   45.6984 H         1 MOL     0.0273
     52 H          34.3049   -8.8567   46.0339 H         1 MOL     0.0273
     53 H          34.9647   -2.5029   36.8710 H         1 MOL     0.0646
     54 H          37.3004   -3.0938   36.7911 H         1 MOL     0.0621
     55 H          39.5634   -2.4080   41.2478 H         1 MOL     0.1921
@<TRIPOS>BOND
     1    1   17 am
     2    1   18 1 
     3    1   21 1 
     4    2   19 1 
     5    2   20 1 
     6    2   22 am
     7    3    4 ar
     8    3   12 ar
     9    4    5 ar
    10    4   55 1 
    11    5    6 ar
    12    5   29 2 
    13    6    7 ar
    14    6   11 ar
    15    7    8 ar
    16    7   33 1 
    17    8    9 ar
    18    8   34 1 
    19    9   10 ar
    20    9   35 1 
    21   10   11 ar
    22   10   36 1 
    23   11   12 ar
    24   12   13 1 
    25   13   14 1 
    26   13   37 1 
    27   13   38 1 
    28   14   15 ar
    29   14   28 ar
    30   15   16 ar
    31   15   39 1 
    32   16   17 1 
    33   16   26 ar
    34   17   31 2 
    35   18   19 1 
    36   18   40 1 
    37   18   41 1 
    38   19   42 1 
    39   19   43 1 
    40   20   21 1 
    41   20   44 1 
    42   20   45 1 
    43   21   46 1 
    44   21   47 1 
    45   22   23 1 
    46   22   30 2 
    47   23   24 1 
    48   23   25 1 
    49   23   48 1 
    50   24   25 1 
    51   24   49 1 
    52   24   50 1 
    53   25   51 1 
    54   25   52 1 
    55   26   27 ar
    56   26   32 1 
    57   27   28 ar
    58   27   53 1 
    59   28   54 1 
@<TRIPOS>SUBSTRUCTURE
1 MOL         1
@<TRIPOS>MOLECULE
query molecule
   55    59     1     0     0
SMALL
NO_CHARGE

@<TRIPOS>ATOM
      1 N          23.5819    8.2370    4.5208 N.am      1 MOL    -0.2945
      2 N          21.1404    7.7575    3.7739 N.am      1 MOL    -0.2983
      3 N          28.8017    6.4452    2.2081 N.ar      1 MOL    -0.1750
      4 N          28.5671    5.1615    2.0831 N.ar      1 MOL    -0.2425
      5 C          27.5134    4.6682    1.4174 C.ar      1 MOL     0.2725
      6 C          26.6268    5.5486    0.8321 C.ar      1 MOL     0.0496
      7 C          25.5028    5.0891    0.1447 C.ar      1 MOL     0.0138
      8 C          24.6192    5.9874   -0.4137 C.ar      1 MOL     0.0008
      9 C          24.9051    7.3269   -0.2544 C.ar      1 MOL     0.0007
     10 C          26.0163    7.7969    0.4255 C.ar      1 MOL     0.0103
     11 C          26.8857    6.8996    0.9720 C.ar      1 MOL     0.0106
     12 C          27.9697    7.3812    1.6558 C.ar      1 MOL     0.0736
     13 C          28.3792    8.7708    1.8113 C.3       1 MOL     0.0925
     14 C          27.2239    9.6141    2.2254 C.ar      1 MOL    -0.0406
     15 C          26.4411    9.0965    3.2728 C.ar      1 MOL     0.0196
     16 C          25.3464    9.7976    3.7186 C.ar      1 MOL     0.0723
     17 C          24.5008    9.2777    4.8168 C.2       1 MOL     0.2495
     18 C          22.7530    7.7065    5.5546 C.3       1 MOL     0.1268
     19 C          21.4616    7.1211    5.0249 C.3       1 MOL     0.1265
     20 C          22.0909    7.5751    2.6715 C.3       1 MOL     0.1265
     21 C          23.5071    7.7329    3.1622 C.3       1 MOL     0.1268
     22 C          19.9825    8.5200    3.5949 C.2       1 MOL     0.2187
     23 C          18.9512    8.8044    4.5962 C.3       1 MOL     0.0752
     24 C          19.4143    8.8556    6.0346 C.3       1 MOL     0.0134
     25 C          18.5368    7.7732    5.5835 C.3       1 MOL     0.0134
     26 C          24.9586   11.0063    3.1908 C.ar      1 MOL     0.1355
     27 C          25.7256   11.5119    2.1656 C.ar      1 MOL     0.0392
     28 C          26.8427   10.7987    1.7076 C.ar      1 MOL     0.0066
     29 O          27.2724    3.4408    1.2856 O.2       1 MOL    -0.2658
     30 O          19.7831    9.0354    2.4375 O.2       1 MOL    -0.2753
     31 O          24.5732    9.7246    5.9846 O.2       1 MOL    -0.2699
     32 F          23.8621   11.6639    3.6682 F         1 MOL    -0.2047
     33 H          25.3330    4.0753    0.0535 H         1 MOL     0.0625
     34 H          23.7821    5.6721   -0.9266 H         1 MOL     0.0618
     35 H          24.2558    8.0162   -0.6636 H         1 MOL     0.0618
     36 H          26.1849    8.8111    0.5172 H         1 MOL     0.0624
     37 H          28.7624    9.1315    0.8795 H         1 MOL     0.0377
     38 H          29.1338    8.8259    2.5682 H         1 MOL     0.0377
     39 H          26.6878    8.1928    3.7052 H         1 MOL     0.0629
     40 H          22.5168    8.4927    6.2414 H         1 MOL     0.0480
     41 H          23.2957    6.9157    6.0301 H         1 MOL     0.0480
     42 H          20.6743    7.2925    5.7284 H         1 MOL     0.0480
     43 H          21.5750    6.0671    4.8776 H         1 MOL     0.0480
     44 H          21.8978    8.3063    1.9147 H         1 MOL     0.0480
     45 H          21.9726    6.5897    2.2715 H         1 MOL     0.0480
     46 H          24.0181    8.4168    2.5169 H         1 MOL     0.0480
     47 H          23.9591    6.7640    3.1546 H         1 MOL     0.0480
     48 H          18.4147    9.4302    3.9144 H         1 MOL     0.0394
     49 H          19.0375    9.6117    6.6916 H         1 MOL     0.0273
     50 H          20.3653    8.9069    6.5224 H         1 MOL     0.0273
     51 H          17.5217    7.7380    5.9204 H         1 MOL     0.0273
     52 H          18.5910    6.7059    5.6161 H         1 MOL     0.0273
     53 H          25.4780   12.4168    1.7342 H         1 MOL     0.0646
     54 H          27.4005   11.2001    0.9373 H         1 MOL     0.0621
     55 H          29.1967    4.5283    2.4984 H         1 MOL     0.1921
@<TRIPOS>BOND
     1    1   17 am
     2    1   18 1 
     3    1   21 1 
     4    2   19 1 
     5    2   20 1 
     6    2   22 am
     7    3    4 ar
     8    3   12 ar
     9    4    5 ar
    10    4   55 1 
    11    5    6 ar
    12    5   29 2 
    13    6    7 ar
    14    6   11 ar
    15    7    8 ar
    16    7   33 1 
    17    8    9 ar
    18    8   34 1 
    19    9   10 ar
    20    9   35 1 
    21   10   11 ar
    22   10   36 1 
    23   11   12 ar
    24   12   13 1 
    25   13   14 1 
    26   13   37 1 
    27   13   38 1 
    28   14   15 ar
    29   14   28 ar
    30   15   16 ar
    31   15   39 1 
    32   16   17 1 
    33   16   26 ar
    34   17   31 2 
    35   18   19 1 
    36   18   40 1 
    37   18   41 1 
    38   19   42 1 
    39   19   43 1 
    40   20   21 1 
    41   20   44 1 
    42   20   45 1 
    43   21   46 1 
    44   21   47 1 
    45   22   23 1 
    46   22   30 2 
    47   23   24 1 
    48   23   25 1 
    49   23   48 1 
    50   24   25 1 
    51   24   49 1 
    52   24   50 1 
    53   25   51 1 
    54   25   52 1 
    55   26   27 ar
    56   26   32 1 
    57   27   28 ar
    58   27   53 1 
    59   28   54 1 
@<TRIPOS>SUBSTRUCTURE
1 MOL         1
@<TRIPOS>MOLECULE
query molecule
   55    59     1     0     0
SMALL
NO_CHARGE

@<TRIPOS>ATOM
      1 N          36.6382  -16.1186   17.3159 N.am      1 MOL    -0.2945
      2 N          38.3035  -18.0392   17.8511 N.am      1 MOL    -0.2983
      3 N          29.4983  -13.0923   19.0567 N.ar      1 MOL    -0.1750
      4 N          28.9591  -11.9415   19.3786 N.ar      1 MOL    -0.2425
      5 C          29.5326  -10.7602   19.1096 C.ar      1 MOL     0.2725
      6 C          30.7511  -10.7461   18.4624 C.ar      1 MOL     0.0496
      7 C          31.4012   -9.5450   18.1761 C.ar      1 MOL     0.0138
      8 C          32.6278   -9.5560   17.5479 C.ar      1 MOL     0.0008
      9 C          33.1571  -10.7891   17.2311 C.ar      1 MOL     0.0007
     10 C          32.5234  -11.9886   17.5095 C.ar      1 MOL     0.0103
     11 C          31.3087  -11.9666   18.1290 C.ar      1 MOL     0.0106
     12 C          30.7040  -13.1618   18.4127 C.ar      1 MOL     0.0736
     13 C          31.1601  -14.4982   18.0535 C.3       1 MOL     0.0925
     14 C          32.4168  -14.8350   18.7777 C.ar      1 MOL    -0.0406
     15 C          33.5985  -14.7263   18.0230 C.ar      1 MOL     0.0196
     16 C          34.8087  -15.0262   18.6012 C.ar      1 MOL     0.0723
     17 C          36.0695  -14.9248   17.8321 C.2       1 MOL     0.2495
     18 C          37.8506  -16.0605   16.5652 C.3       1 MOL     0.1268
     19 C          38.6421  -17.3489   16.6337 C.3       1 MOL     0.1265
     20 C          36.9099  -18.4706   18.0055 C.3       1 MOL     0.1265
     21 C          35.9667  -17.3805   17.5659 C.3       1 MOL     0.1268
     22 C          39.2424  -18.2968   18.8542 C.2       1 MOL     0.2187
     23 C          40.6583  -17.9197   18.8538 C.3       1 MOL     0.0752
     24 C          41.0774  -16.9006   19.8890 C.3       1 MOL     0.0134
     25 C          41.0862  -16.5497   18.4671 C.3       1 MOL     0.0134
     26 C          34.9398  -15.4362   19.9068 C.ar      1 MOL     0.1355
     27 C          33.7825  -15.5423   20.6446 C.ar      1 MOL     0.0392
     28 C          32.5460  -15.2380   20.0575 C.ar      1 MOL     0.0066
     29 O          29.0307   -9.6465   19.4091 O.2       1 MOL    -0.2658
     30 O          38.8413  -18.9292   19.8956 O.2       1 MOL    -0.2753
     31 O          36.6405  -13.8291   17.6268 O.2       1 MOL    -0.2699
     32 F          36.1651  -15.7232   20.4350 F         1 MOL    -0.2047
     33 H          30.9628   -8.6472   18.4344 H         1 MOL     0.0625
     34 H          33.1272   -8.6816   17.3255 H         1 MOL     0.0618
     35 H          34.0752  -10.8198   16.7616 H         1 MOL     0.0618
     36 H          32.9630  -12.8862   17.2518 H         1 MOL     0.0624
     37 H          31.3398  -14.5375   16.9993 H         1 MOL     0.0377
     38 H          30.4054  -15.2058   18.3272 H         1 MOL     0.0377
     39 H          33.5570  -14.4226   17.0379 H         1 MOL     0.0629
     40 H          38.4548  -15.2660   16.9514 H         1 MOL     0.0480
     41 H          37.5886  -15.8960   15.5403 H         1 MOL     0.0480
     42 H          39.6888  -17.1285   16.6243 H         1 MOL     0.0480
     43 H          38.4072  -17.9640   15.7900 H         1 MOL     0.0480
     44 H          36.7243  -18.7023   19.0334 H         1 MOL     0.0480
     45 H          36.7453  -19.3349   17.3966 H         1 MOL     0.0480
     46 H          35.2360  -17.2308   18.3333 H         1 MOL     0.0480
     47 H          35.5206  -17.6938   16.6461 H         1 MOL     0.0480
     48 H          40.9535  -18.8998   18.5428 H         1 MOL     0.0394
     49 H          42.0007  -17.0218   20.4163 H         1 MOL     0.0273
     50 H          40.6302  -16.4874   20.7689 H         1 MOL     0.0273
     51 H          42.0186  -16.4072   17.9617 H         1 MOL     0.0273
     52 H          40.6462  -15.7649   17.8894 H         1 MOL     0.0273
     53 H          33.8255  -15.8458   21.6306 H         1 MOL     0.0646
     54 H          31.6934  -15.3262   20.6328 H         1 MOL     0.0621
     55 H          28.0894  -11.9454   19.8404 H         1 MOL     0.1921
@<TRIPOS>BOND
     1    1   17 am
     2    1   18 1 
     3    1   21 1 
     4    2   19 1 
     5    2   20 1 
     6    2   22 am
     7    3    4 ar
     8    3   12 ar
     9    4    5 ar
    10    4   55 1 
    11    5    6 ar
    12    5   29 2 
    13    6    7 ar
    14    6   11 ar
    15    7    8 ar
    16    7   33 1 
    17    8    9 ar
    18    8   34 1 
    19    9   10 ar
    20    9   35 1 
    21   10   11 ar
    22   10   36 1 
    23   11   12 ar
    24   12   13 1 
    25   13   14 1 
    26   13   37 1 
    27   13   38 1 
    28   14   15 ar
    29   14   28 ar
    30   15   16 ar
    31   15   39 1 
    32   16   17 1 
    33   16   26 ar
    34   17   31 2 
    35   18   19 1 
    36   18   40 1 
    37   18   41 1 
    38   19   42 1 
    39   19   43 1 
    40   20   21 1 
    41   20   44 1 
    42   20   45 1 
    43   21   46 1 
    44   21   47 1 
    45   22   23 1 
    46   22   30 2 
    47   23   24 1 
    48   23   25 1 
    49   23   48 1 
    50   24   25 1 
    51   24   49 1 
    52   24   50 1 
    53   25   51 1 
    54   25   52 1 
    55   26   27 ar
    56   26   32 1 
    57   27   28 ar
    58   27   53 1 
    59   28   54 1 
@<TRIPOS>SUBSTRUCTURE
1 MOL         1
@<TRIPOS>MOLECULE
query molecule
   55    59     1     0     0
SMALL
NO_CHARGE

@<TRIPOS>ATOM
      1 N          41.3928  -15.7123   21.8746 N.am      1 MOL    -0.2945
      2 N          42.8641  -17.0858   23.5169 N.am      1 MOL    -0.2983
      3 N          43.3929   -8.9310   19.6379 N.ar      1 MOL    -0.1750
      4 N          44.3830   -8.1829   20.0605 N.ar      1 MOL    -0.2425
      5 C          44.7612   -8.1210   21.3450 C.ar      1 MOL     0.2725
      6 C          44.0795   -8.8789   22.2748 C.ar      1 MOL     0.0496
      7 C          44.4189   -8.8365   23.6276 C.ar      1 MOL     0.0138
      8 C          43.7100   -9.5859   24.5417 C.ar      1 MOL     0.0008
      9 C          42.6758  -10.3550   24.0518 C.ar      1 MOL     0.0007
     10 C          42.3278  -10.4064   22.7124 C.ar      1 MOL     0.0103
     11 C          43.0372   -9.6630   21.8158 C.ar      1 MOL     0.0106
     12 C          42.6689   -9.7117   20.4980 C.ar      1 MOL     0.0736
     13 C          41.6392  -10.5450   19.8912 C.3       1 MOL     0.0925
     14 C          42.1778  -11.8970   19.5763 C.ar      1 MOL    -0.0406
     15 C          41.4750  -12.9758   20.1420 C.ar      1 MOL     0.0196
     16 C          41.9017  -14.2627   19.9171 C.ar      1 MOL     0.0723
     17 C          41.1852  -15.4188   20.5014 C.2       1 MOL     0.2495
     18 C          40.7158  -16.8162   22.4748 C.3       1 MOL     0.1268
     19 C          41.4630  -17.3834   23.6627 C.3       1 MOL     0.1265
     20 C          43.2452  -15.6693   23.5018 C.3       1 MOL     0.1265
     21 C          42.2960  -14.8750   22.6420 C.3       1 MOL     0.1268
     22 C          43.8348  -18.0841   23.3925 C.2       1 MOL     0.2187
     23 C          43.6123  -19.5323   23.3754 C.3       1 MOL     0.0752
     24 C          44.7986  -20.3847   22.9855 C.3       1 MOL     0.0134
     25 C          43.6351  -20.2960   22.1003 C.3       1 MOL     0.0134
     26 C          43.0021  -14.5696   19.1524 C.ar      1 MOL     0.1355
     27 C          43.6893  -13.5129   18.5992 C.ar      1 MOL     0.0392
     28 C          43.2573  -12.1986   18.8275 C.ar      1 MOL     0.0066
     29 O          45.7086   -7.4108   21.7692 O.2       1 MOL    -0.2658
     30 O          45.0575  -17.7136   23.2792 O.2       1 MOL    -0.2753
     31 O          40.4110  -16.1355   19.8263 O.2       1 MOL    -0.2699
     32 F          43.3862  -15.8650   18.9592 F         1 MOL    -0.2047
     33 H          45.2021   -8.2438   23.9443 H         1 MOL     0.0625
     34 H          43.9423   -9.5714   25.5462 H         1 MOL     0.0618
     35 H          42.1315  -10.9226   24.7195 H         1 MOL     0.0618
     36 H          41.5436  -10.9985   22.3965 H         1 MOL     0.0624
     37 H          41.2986  -10.0826   18.9883 H         1 MOL     0.0377
     38 H          40.8286  -10.6502   20.5821 H         1 MOL     0.0377
     39 H          40.6414  -12.8016   20.7245 H         1 MOL     0.0629
     40 H          40.6014  -17.5874   21.7416 H         1 MOL     0.0480
     41 H          39.7691  -16.4619   22.8273 H         1 MOL     0.0480
     42 H          41.3225  -18.4431   23.7028 H         1 MOL     0.0480
     43 H          41.0912  -16.9474   24.5667 H         1 MOL     0.0480
     44 H          44.2365  -15.5748   23.1105 H         1 MOL     0.0480
     45 H          43.2051  -15.2891   24.5013 H         1 MOL     0.0480
     46 H          42.8682  -14.2792   21.9618 H         1 MOL     0.0480
     47 H          41.6991  -14.2736   23.2941 H         1 MOL     0.0480
     48 H          42.9150  -19.4682   24.1842 H         1 MOL     0.0394
     49 H          45.0015  -21.2932   23.5135 H         1 MOL     0.0273
     50 H          45.8494  -20.2150   22.8756 H         1 MOL     0.0273
     51 H          42.9955  -21.1451   21.9781 H         1 MOL     0.0273
     52 H          43.4979  -20.0370   21.0720 H         1 MOL     0.0273
     53 H          44.5230  -13.6887   18.0159 H         1 MOL     0.0646
     54 H          43.7909  -11.4244   18.4013 H         1 MOL     0.0621
     55 H          44.8735   -7.6400   19.4014 H         1 MOL     0.1921
@<TRIPOS>BOND
     1    1   17 am
     2    1   18 1 
     3    1   21 1 
     4    2   19 1 
     5    2   20 1 
     6    2   22 am
     7    3    4 ar
     8    3   12 ar
     9    4    5 ar
    10    4   55 1 
    11    5    6 ar
    12    5   29 2 
    13    6    7 ar
    14    6   11 ar
    15    7    8 ar
    16    7   33 1 
    17    8    9 ar
    18    8   34 1 
    19    9   10 ar
    20    9   35 1 
    21   10   11 ar
    22   10   36 1 
    23   11   12 ar
    24   12   13 1 
    25   13   14 1 
    26   13   37 1 
    27   13   38 1 
    28   14   15 ar
    29   14   28 ar
    30   15   16 ar
    31   15   39 1 
    32   16   17 1 
    33   16   26 ar
    34   17   31 2 
    35   18   19 1 
    36   18   40 1 
    37   18   41 1 
    38   19   42 1 
    39   19   43 1 
    40   20   21 1 
    41   20   44 1 
    42   20   45 1 
    43   21   46 1 
    44   21   47 1 
    45   22   23 1 
    46   22   30 2 
    47   23   24 1 
    48   23   25 1 
    49   23   48 1 
    50   24   25 1 
    51   24   49 1 
    52   24   50 1 
    53   25   51 1 
    54   25   52 1 
    55   26   27 ar
    56   26   32 1 
    57   27   28 ar
    58   27   53 1 
    59   28   54 1 
@<TRIPOS>SUBSTRUCTURE
1 MOL         1
@<TRIPOS>MOLECULE
query molecule
   55    59     1     0     0
SMALL
NO_CHARGE

@<TRIPOS>ATOM
      1 N           8.8067  -16.3138    9.4203 N.am      1 MOL    -0.2945
      2 N           6.4375  -15.3883    8.8923 N.am      1 MOL    -0.2983
      3 N          14.5769  -18.5082    6.5394 N.ar      1 MOL    -0.1750
      4 N          14.3139  -19.4290    5.6441 N.ar      1 MOL    -0.2425
      5 C          13.3533  -19.3006    4.7179 C.ar      1 MOL     0.2725
      6 C          12.5994  -18.1452    4.6996 C.ar      1 MOL     0.0496
      7 C          11.5740  -17.9686    3.7698 C.ar      1 MOL     0.0138
      8 C          10.8197  -16.8151    3.7838 C.ar      1 MOL     0.0008
      9 C          11.1305  -15.8764    4.7448 C.ar      1 MOL     0.0007
     10 C          12.1448  -16.0386    5.6736 C.ar      1 MOL     0.0103
     11 C          12.8869  -17.1826    5.6495 C.ar      1 MOL     0.0106
     12 C          13.8742  -17.3346    6.5858 C.ar      1 MOL     0.0736
     13 C          14.3097  -16.3686    7.5860 C.3       1 MOL     0.0925
     14 C          13.1782  -15.4907    7.9936 C.ar      1 MOL    -0.0406
     15 C          12.1914  -16.1033    8.7865 C.ar      1 MOL     0.0196
     16 C          11.1020  -15.3771    9.2041 C.ar      1 MOL     0.0723
     17 C          10.0450  -15.9945   10.0365 C.2       1 MOL     0.2495
     18 C           7.7652  -16.9145   10.1892 C.3       1 MOL     0.1268
     19 C           6.3872  -16.6198    9.6367 C.3       1 MOL     0.1265
     20 C           7.3067  -15.3602    7.7109 C.3       1 MOL     0.1265
     21 C           8.6284  -16.0194    8.0106 C.3       1 MOL     0.1268
     22 C           5.7017  -14.2581    9.2602 C.2       1 MOL     0.2187
     23 C           4.8069  -14.1259   10.4130 C.3       1 MOL     0.0752
     24 C           3.5148  -14.9084   10.3475 C.3       1 MOL     0.0134
     25 C           3.4913  -13.4452   10.2877 C.3       1 MOL     0.0134
     26 C          10.9118  -14.0529    8.8872 C.ar      1 MOL     0.1355
     27 C          11.8783  -13.4542    8.1111 C.ar      1 MOL     0.0392
     28 C          12.9906  -14.1926    7.6824 C.ar      1 MOL     0.0066
     29 O          13.0871  -20.1717    3.8506 O.2       1 MOL    -0.2658
     30 O           5.8078  -13.2138    8.5230 O.2       1 MOL    -0.2753
     31 O          10.2112  -16.2399   11.2535 O.2       1 MOL    -0.2699
     32 F           9.8117  -13.3748    9.3262 F         1 MOL    -0.2047
     33 H          11.3804  -18.7021    3.0702 H         1 MOL     0.0625
     34 H          10.0573  -16.6616    3.1068 H         1 MOL     0.0618
     35 H          10.5772  -15.0063    4.7735 H         1 MOL     0.0618
     36 H          12.3371  -15.3051    6.3738 H         1 MOL     0.0624
     37 H          15.0930  -15.7659    7.1760 H         1 MOL     0.0377
     38 H          14.6616  -16.8979    8.4470 H         1 MOL     0.0377
     39 H          12.2849  -17.0956    9.0536 H         1 MOL     0.0629
     40 H           7.8200  -16.5412   11.1908 H         1 MOL     0.0480
     41 H           7.9079  -17.9749   10.1540 H         1 MOL     0.0480
     42 H           5.6898  -16.5251   10.4422 H         1 MOL     0.0480
     43 H           6.0749  -17.4186    8.9965 H         1 MOL     0.0480
     44 H           7.4781  -14.3441    7.4233 H         1 MOL     0.0480
     45 H           6.8282  -15.8932    6.9160 H         1 MOL     0.0480
     46 H           9.4153  -15.3652    7.6975 H         1 MOL     0.0480
     47 H           8.6498  -16.9496    7.4839 H         1 MOL     0.0480
     48 H           5.6330  -14.0162   11.0837 H         1 MOL     0.0394
     49 H           3.1510  -15.4146   11.2174 H         1 MOL     0.0273
     50 H           3.1385  -15.6984    9.7316 H         1 MOL     0.0273
     51 H           3.1015  -12.8867   11.1130 H         1 MOL     0.0273
     52 H           3.0811  -12.7328    9.6040 H         1 MOL     0.0273
     53 H          11.7838  -12.4610    7.8449 H         1 MOL     0.0646
     54 H          13.7005  -13.7197    7.1010 H         1 MOL     0.0621
     55 H          14.8490  -20.2557    5.6522 H         1 MOL     0.1921
@<TRIPOS>BOND
     1    1   17 am
     2    1   18 1 
     3    1   21 1 
     4    2   19 1 
     5    2   20 1 
     6    2   22 am
     7    3    4 ar
     8    3   12 ar
     9    4    5 ar
    10    4   55 1 
    11    5    6 ar
    12    5   29 2 
    13    6    7 ar
    14    6   11 ar
    15    7    8 ar
    16    7   33 1 
    17    8    9 ar
    18    8   34 1 
    19    9   10 ar
    20    9   35 1 
    21   10   11 ar
    22   10   36 1 
    23   11   12 ar
    24   12   13 1 
    25   13   14 1 
    26   13   37 1 
    27   13   38 1 
    28   14   15 ar
    29   14   28 ar
    30   15   16 ar
    31   15   39 1 
    32   16   17 1 
    33   16   26 ar
    34   17   31 2 
    35   18   19 1 
    36   18   40 1 
    37   18   41 1 
    38   19   42 1 
    39   19   43 1 
    40   20   21 1 
    41   20   44 1 
    42   20   45 1 
    43   21   46 1 
    44   21   47 1 
    45   22   23 1 
    46   22   30 2 
    47   23   24 1 
    48   23   25 1 
    49   23   48 1 
    50   24   25 1 
    51   24   49 1 
    52   24   50 1 
    53   25   51 1 
    54   25   52 1 
    55   26   27 ar
    56   26   32 1 
    57   27   28 ar
    58   27   53 1 
    59   28   54 1 
@<TRIPOS>SUBSTRUCTURE
1 MOL         1
@<TRIPOS>MOLECULE
query molecule
   55    59     1     0     0
SMALL
NO_CHARGE

@<TRIPOS>ATOM
      1 N          46.5918   11.9408   10.0329 N.am      1 MOL    -0.2945
      2 N          46.9361   12.3937    7.4982 N.am      1 MOL    -0.2983
      3 N          40.1984    9.7745   13.5165 N.ar      1 MOL    -0.1750
      4 N          38.9493    9.8307   13.1225 N.ar      1 MOL    -0.2425
      5 C          38.4386   10.8676   12.4436 C.ar      1 MOL     0.2725
      6 C          39.2618   11.9327   12.1409 C.ar      1 MOL     0.0496
      7 C          38.7764   13.0460   11.4538 C.ar      1 MOL     0.0138
      8 C          39.6117   14.1078   11.1810 C.ar      1 MOL     0.0008
      9 C          40.9158   14.0056   11.6170 C.ar      1 MOL     0.0007
     10 C          41.4107   12.9072   12.3001 C.ar      1 MOL     0.0103
     11 C          40.5766   11.8608   12.5627 C.ar      1 MOL     0.0106
     12 C          41.0773   10.7904   13.2542 C.ar      1 MOL     0.0736
     13 C          42.4512   10.5744   13.6886 C.3       1 MOL     0.0925
     14 C          43.2694   10.0132   12.5782 C.ar      1 MOL    -0.0406
     15 C          44.4829   10.6771   12.3247 C.ar      1 MOL     0.0196
     16 C          45.3028   10.2395   11.3122 C.ar      1 MOL     0.0723
     17 C          46.5846   10.9193   11.0186 C.2       1 MOL     0.2495
     18 C          47.8076   12.6223    9.7258 C.3       1 MOL     0.1268
     19 C          47.8278   13.1738    8.3163 C.3       1 MOL     0.1265
     20 C          45.5154   12.4067    7.8636 C.3       1 MOL     0.1265
     21 C          45.3516   12.2705    9.3556 C.3       1 MOL     0.1268
     22 C          47.3810   11.6493    6.4018 C.2       1 MOL     0.2187
     23 C          48.7600   11.5248    5.9223 C.3       1 MOL     0.0752
     24 C          48.9512   10.7582    4.6332 C.3       1 MOL     0.0134
     25 C          49.4460   10.2063    5.8964 C.3       1 MOL     0.0134
     26 C          45.0030    9.1637   10.5105 C.ar      1 MOL     0.1355
     27 C          43.8148    8.5147   10.7596 C.ar      1 MOL     0.0392
     28 C          42.9754    8.9591   11.7912 C.ar      1 MOL     0.0066
     29 O          37.2442   10.9391   12.0563 O.2       1 MOL    -0.2658
     30 O          46.5037   10.9974    5.7305 O.2       1 MOL    -0.2753
     31 O          47.6488   10.6221   11.6085 O.2       1 MOL    -0.2699
     32 F          45.8506    8.7683    9.5167 F         1 MOL    -0.2047
     33 H          37.7910   13.0744   11.1488 H         1 MOL     0.0625
     34 H          39.2763   14.9410   10.6745 H         1 MOL     0.0618
     35 H          41.5574   14.7900   11.4243 H         1 MOL     0.0618
     36 H          42.3962   12.8801   12.6058 H         1 MOL     0.0624
     37 H          42.4572    9.8900   14.5111 H         1 MOL     0.0377
     38 H          42.8713   11.5131   13.9847 H         1 MOL     0.0377
     39 H          44.7568   11.4907   12.8970 H         1 MOL     0.0629
     40 H          48.6220   11.9370    9.8375 H         1 MOL     0.0480
     41 H          47.8926   13.4507   10.3985 H         1 MOL     0.0480
     42 H          48.8206   13.1164    7.9222 H         1 MOL     0.0480
     43 H          47.5133   14.1968    8.3228 H         1 MOL     0.0480
     44 H          45.0194   11.5915    7.3800 H         1 MOL     0.0480
     45 H          45.0864   13.3365    7.5533 H         1 MOL     0.0480
     46 H          44.6403   11.4955    9.5519 H         1 MOL     0.0480
     47 H          45.0239   13.2169    9.7301 H         1 MOL     0.0480
     48 H          49.0198   12.4836    6.3193 H         1 MOL     0.0394
     49 H          49.6419   11.1131    3.8968 H         1 MOL     0.0273
     50 H          48.3031   10.4101    3.8561 H         1 MOL     0.0273
     51 H          50.4997   10.1522    6.0750 H         1 MOL     0.0273
     52 H          49.3048    9.2806    6.4124 H         1 MOL     0.0273
     53 H          43.5422    7.7002   10.1865 H         1 MOL     0.0646
     54 H          42.0901    8.4547   11.9566 H         1 MOL     0.0621
     55 H          38.3571    9.0732   13.3354 H         1 MOL     0.1921
@<TRIPOS>BOND
     1    1   17 am
     2    1   18 1 
     3    1   21 1 
     4    2   19 1 
     5    2   20 1 
     6    2   22 am
     7    3    4 ar
     8    3   12 ar
     9    4    5 ar
    10    4   55 1 
    11    5    6 ar
    12    5   29 2 
    13    6    7 ar
    14    6   11 ar
    15    7    8 ar
    16    7   33 1 
    17    8    9 ar
    18    8   34 1 
    19    9   10 ar
    20    9   35 1 
    21   10   11 ar
    22   10   36 1 
    23   11   12 ar
    24   12   13 1 
    25   13   14 1 
    26   13   37 1 
    27   13   38 1 
    28   14   15 ar
    29   14   28 ar
    30   15   16 ar
    31   15   39 1 
    32   16   17 1 
    33   16   26 ar
    34   17   31 2 
    35   18   19 1 
    36   18   40 1 
    37   18   41 1 
    38   19   42 1 
    39   19   43 1 
    40   20   21 1 
    41   20   44 1 
    42   20   45 1 
    43   21   46 1 
    44   21   47 1 
    45   22   23 1 
    46   22   30 2 
    47   23   24 1 
    48   23   25 1 
    49   23   48 1 
    50   24   25 1 
    51   24   49 1 
    52   24   50 1 
    53   25   51 1 
    54   25   52 1 
    55   26   27 ar
    56   26   32 1 
    57   27   28 ar
    58   27   53 1 
    59   28   54 1 
@<TRIPOS>SUBSTRUCTURE
1 MOL         1
@<TRIPOS>MOLECULE
query molecule
   55    59     1     0     0
SMALL
NO_CHARGE

@<TRIPOS>ATOM
      1 N          33.0755   19.2002   40.4304 N.am      1 MOL    -0.2945
      2 N          34.1999   18.9934   42.7630 N.am      1 MOL    -0.2983
      3 N          33.2818   13.9442   40.1308 N.ar      1 MOL    -0.1750
      4 N          34.4093   13.3065   40.3328 N.ar      1 MOL    -0.2425
      5 C          34.4740   11.9947   40.6010 C.ar      1 MOL     0.2725
      6 C          33.3002   11.2728   40.6700 C.ar      1 MOL     0.0496
      7 C          33.3092    9.9092   40.9657 C.ar      1 MOL     0.0138
      8 C          32.1229    9.2127   41.0505 C.ar      1 MOL     0.0008
      9 C          30.9626    9.9253   40.8335 C.ar      1 MOL     0.0007
     10 C          30.9388   11.2784   40.5397 C.ar      1 MOL     0.0103
     11 C          32.1184   11.9577   40.4555 C.ar      1 MOL     0.0106
     12 C          32.0761   13.2985   40.1816 C.ar      1 MOL     0.0736
     13 C          30.9046   14.1082   39.8736 C.3       1 MOL     0.0925
     14 C          31.2824   15.2775   39.0327 C.ar      1 MOL    -0.0406
     15 C          31.4068   16.5002   39.7162 C.ar      1 MOL     0.0196
     16 C          31.7421   17.6391   39.0241 C.ar      1 MOL     0.0723
     17 C          31.8772   18.9415   39.7146 C.2       1 MOL     0.2495
     18 C          33.2445   20.4466   41.1049 C.3       1 MOL     0.1268
     19 C          34.1924   20.3502   42.2810 C.3       1 MOL     0.1265
     20 C          34.6779   17.9611   41.8369 C.3       1 MOL     0.1265
     21 C          34.1090   18.1820   40.4589 C.3       1 MOL     0.1268
     22 C          33.7749   18.6516   44.0502 C.2       1 MOL     0.2187
     23 C          33.2609   19.5600   45.0787 C.3       1 MOL     0.0752
     24 C          32.9912   18.9477   46.4346 C.3       1 MOL     0.0134
     25 C          31.8784   19.4168   45.6059 C.3       1 MOL     0.0134
     26 C          31.9705   17.6582   37.6685 C.ar      1 MOL     0.1355
     27 C          31.8484   16.4608   37.0005 C.ar      1 MOL     0.0392
     28 C          31.5054   15.2970   37.7034 C.ar      1 MOL     0.0066
     29 O          35.5453   11.3654   40.7962 O.2       1 MOL    -0.2658
     30 O          33.8321   17.4151   44.3863 O.2       1 MOL    -0.2753
     31 O          30.9754   19.8102   39.6847 O.2       1 MOL    -0.2699
     32 F          32.3005   18.8164   37.0263 F         1 MOL    -0.2047
     33 H          34.2052    9.4210   41.1204 H         1 MOL     0.0625
     34 H          32.1041    8.2047   41.2671 H         1 MOL     0.0618
     35 H          30.0634    9.4232   40.8936 H         1 MOL     0.0618
     36 H          30.0422   11.7662   40.3862 H         1 MOL     0.0624
     37 H          30.4678   14.4571   40.7860 H         1 MOL     0.0377
     38 H          30.2026   13.5082   39.3327 H         1 MOL     0.0377
     39 H          31.2464   16.5421   40.7346 H         1 MOL     0.0629
     40 H          32.2901   20.7760   41.4599 H         1 MOL     0.0480
     41 H          33.6665   21.1381   40.4051 H         1 MOL     0.0480
     42 H          33.8666   21.0070   43.0598 H         1 MOL     0.0480
     43 H          35.1786   20.6326   41.9758 H         1 MOL     0.0480
     44 H          34.3728   16.9994   42.1928 H         1 MOL     0.0480
     45 H          35.7452   18.0127   41.7814 H         1 MOL     0.0480
     46 H          33.6892   17.2613   40.1108 H         1 MOL     0.0480
     47 H          34.9074   18.5183   39.8323 H         1 MOL     0.0480
     48 H          33.8157   20.3818   44.6773 H         1 MOL     0.0394
     49 H          33.2572   19.4794   47.3245 H         1 MOL     0.0273
     50 H          33.2439   18.0240   46.9121 H         1 MOL     0.0273
     51 H          31.3289   20.2869   45.8988 H         1 MOL     0.0273
     52 H          30.9813   18.9669   45.2371 H         1 MOL     0.0273
     53 H          32.0098   16.4201   35.9814 H         1 MOL     0.0646
     54 H          31.4201   14.4124   37.1783 H         1 MOL     0.0621
     55 H          35.2503   13.8165   40.2844 H         1 MOL     0.1921
@<TRIPOS>BOND
     1    1   17 am
     2    1   18 1 
     3    1   21 1 
     4    2   19 1 
     5    2   20 1 
     6    2   22 am
     7    3    4 ar
     8    3   12 ar
     9    4    5 ar
    10    4   55 1 
    11    5    6 ar
    12    5   29 2 
    13    6    7 ar
    14    6   11 ar
    15    7    8 ar
    16    7   33 1 
    17    8    9 ar
    18    8   34 1 
    19    9   10 ar
    20    9   35 1 
    21   10   11 ar
    22   10   36 1 
    23   11   12 ar
    24   12   13 1 
    25   13   14 1 
    26   13   37 1 
    27   13   38 1 
    28   14   15 ar
    29   14   28 ar
    30   15   16 ar
    31   15   39 1 
    32   16   17 1 
    33   16   26 ar
    34   17   31 2 
    35   18   19 1 
    36   18   40 1 
    37   18   41 1 
    38   19   42 1 
    39   19   43 1 
    40   20   21 1 
    41   20   44 1 
    42   20   45 1 
    43   21   46 1 
    44   21   47 1 
    45   22   23 1 
    46   22   30 2 
    47   23   24 1 
    48   23   25 1 
    49   23   48 1 
    50   24   25 1 
    51   24   49 1 
    52   24   50 1 
    53   25   51 1 
    54   25   52 1 
    55   26   27 ar
    56   26   32 1 
    57   27   28 ar
    58   27   53 1 
    59   28   54 1 
@<TRIPOS>SUBSTRUCTURE
1 MOL         1
@<TRIPOS>MOLECULE
query molecule
   55    59     1     0     0
SMALL
NO_CHARGE

@<TRIPOS>ATOM
      1 N           1.8942  -13.4604   41.5621 N.am      1 MOL    -0.2945
      2 N          -0.4933  -13.0585   40.6204 N.am      1 MOL    -0.2983
      3 N           8.1304  -12.4463   41.6902 N.ar      1 MOL    -0.1750
      4 N           9.0932  -12.3175   42.5705 N.ar      1 MOL    -0.2425
      5 C          10.2855  -12.9180   42.4491 C.ar      1 MOL     0.2725
      6 C          10.5188  -13.7130   41.3459 C.ar      1 MOL     0.0496
      7 C          11.7348  -14.3771   41.1803 C.ar      1 MOL     0.0138
      8 C          11.9378  -15.1832   40.0809 C.ar      1 MOL     0.0008
      9 C          10.8964  -15.2908   39.1836 C.ar      1 MOL     0.0007
     10 C           9.6845  -14.6380   39.3355 C.ar      1 MOL     0.0103
     11 C           9.4948  -13.8407   40.4255 C.ar      1 MOL     0.0106
     12 C           8.2848  -13.2166   40.5694 C.ar      1 MOL     0.0736
     13 C           7.1633  -13.2225   39.6391 C.3       1 MOL     0.0925
     14 C           6.0758  -12.3284   40.1241 C.ar      1 MOL    -0.0406
     15 C           5.0882  -12.9476   40.9107 C.ar      1 MOL     0.0196
     16 C           4.0374  -12.2069   41.3965 C.ar      1 MOL     0.0723
     17 C           2.9804  -12.8305   42.2242 C.2       1 MOL     0.2495
     18 C           0.8583  -14.0769   42.3262 C.3       1 MOL     0.1268
     19 C          -0.4625  -14.1239   41.5884 C.3       1 MOL     0.1265
     20 C           0.5113  -13.1010   39.5522 C.3       1 MOL     0.1265
     21 C           1.8632  -13.4627   40.1113 C.3       1 MOL     0.1268
     22 C          -1.4275  -12.0201   40.6763 C.2       1 MOL     0.2187
     23 C          -2.4767  -11.8318   41.6817 C.3       1 MOL     0.0752
     24 C          -2.1182  -10.9608   42.8645 C.3       1 MOL     0.0134
     25 C          -2.3374  -12.3971   43.0494 C.3       1 MOL     0.0134
     26 C           3.8879  -10.8617   41.1556 C.ar      1 MOL     0.1355
     27 C           4.8553  -10.2565   40.3855 C.ar      1 MOL     0.0392
     28 C           5.9282  -11.0096   39.8874 C.ar      1 MOL     0.0066
     29 O          11.2214  -12.8056   43.2818 O.2       1 MOL    -0.2658
     30 O          -1.3773  -11.1253   39.7586 O.2       1 MOL    -0.2753
     31 O           3.0178  -12.8181   43.4761 O.2       1 MOL    -0.2699
     32 F           2.8253  -10.1698   41.6603 F         1 MOL    -0.2047
     33 H          12.4836  -14.2641   41.8813 H         1 MOL     0.0625
     34 H          12.8278  -15.6836   39.9366 H         1 MOL     0.0618
     35 H          11.0272  -15.8903   38.3544 H         1 MOL     0.0618
     36 H           8.9357  -14.7524   38.6344 H         1 MOL     0.0624
     37 H           6.7855  -14.2196   39.5492 H         1 MOL     0.0377
     38 H           7.5018  -12.8674   38.6880 H         1 MOL     0.0377
     39 H           5.1520  -13.9555   41.1222 H         1 MOL     0.0629
     40 H           0.7253  -13.5231   43.2324 H         1 MOL     0.0480
     41 H           1.1567  -15.0866   42.5200 H         1 MOL     0.0480
     42 H          -1.2667  -14.0022   42.2831 H         1 MOL     0.0480
     43 H          -0.5680  -15.0672   41.0937 H         1 MOL     0.0480
     44 H           0.5700  -12.1404   39.0848 H         1 MOL     0.0480
     45 H           0.2247  -13.8430   38.8364 H         1 MOL     0.0480
     46 H           2.5813  -12.7540   39.7547 H         1 MOL     0.0480
     47 H           2.0889  -14.4565   39.7877 H         1 MOL     0.0480
     48 H          -3.2442  -11.8806   40.9382 H         1 MOL     0.0394
     49 H          -2.8287  -10.2573   43.2460 H         1 MOL     0.0273
     50 H          -1.3242  -10.2800   43.0903 H         1 MOL     0.0273
     51 H          -3.2054  -12.7380   43.5742 H         1 MOL     0.0273
     52 H          -1.7612  -13.1913   43.4743 H         1 MOL     0.0273
     53 H           4.7906   -9.2477   40.1751 H         1 MOL     0.0646
     54 H           6.6397  -10.5314   39.3123 H         1 MOL     0.0621
     55 H           8.9326  -11.7510   43.3599 H         1 MOL     0.1921
@<TRIPOS>BOND
     1    1   17 am
     2    1   18 1 
     3    1   21 1 
     4    2   19 1 
     5    2   20 1 
     6    2   22 am
     7    3    4 ar
     8    3   12 ar
     9    4    5 ar
    10    4   55 1 
    11    5    6 ar
    12    5   29 2 
    13    6    7 ar
    14    6   11 ar
    15    7    8 ar
    16    7   33 1 
    17    8    9 ar
    18    8   34 1 
    19    9   10 ar
    20    9   35 1 
    21   10   11 ar
    22   10   36 1 
    23   11   12 ar
    24   12   13 1 
    25   13   14 1 
    26   13   37 1 
    27   13   38 1 
    28   14   15 ar
    29   14   28 ar
    30   15   16 ar
    31   15   39 1 
    32   16   17 1 
    33   16   26 ar
    34   17   31 2 
    35   18   19 1 
    36   18   40 1 
    37   18   41 1 
    38   19   42 1 
    39   19   43 1 
    40   20   21 1 
    41   20   44 1 
    42   20   45 1 
    43   21   46 1 
    44   21   47 1 
    45   22   23 1 
    46   22   30 2 
    47   23   24 1 
    48   23   25 1 
    49   23   48 1 
    50   24   25 1 
    51   24   49 1 
    52   24   50 1 
    53   25   51 1 
    54   25   52 1 
    55   26   27 ar
    56   26   32 1 
    57   27   28 ar
    58   27   53 1 
    59   28   54 1 
@<TRIPOS>SUBSTRUCTURE
1 MOL         1
@<TRIPOS>MOLECULE
query molecule
   55    59     1     0     0
SMALL
NO_CHARGE

@<TRIPOS>ATOM
      1 N         -17.1036   12.5686    9.5262 N.am      1 MOL    -0.2945
      2 N         -18.0109   15.0018    9.5951 N.am      1 MOL    -0.2983
      3 N         -14.9836    7.5418    4.5143 N.ar      1 MOL    -0.1750
      4 N         -14.5167    6.3170    4.4954 N.ar      1 MOL    -0.2425
      5 C         -14.9688    5.3454    5.3007 C.ar      1 MOL     0.2725
      6 C         -15.9751    5.6413    6.1971 C.ar      1 MOL     0.0496
      7 C         -16.4685    4.6727    7.0721 C.ar      1 MOL     0.0138
      8 C         -17.4593    4.9965    7.9738 C.ar      1 MOL     0.0008
      9 C         -17.9173    6.2969    7.9593 C.ar      1 MOL     0.0007
     10 C         -17.4367    7.2682    7.0971 C.ar      1 MOL     0.0103
     11 C         -16.4581    6.9368    6.2069 C.ar      1 MOL     0.0106
     12 C         -15.9819    7.9133    5.3738 C.ar      1 MOL     0.0736
     13 C         -16.4554    9.2855    5.2478 C.3       1 MOL     0.0925
     14 C         -15.6053   10.2086    6.0494 C.ar      1 MOL    -0.0406
     15 C         -16.1131   10.5546    7.3143 C.ar      1 MOL     0.0196
     16 C         -15.4052   11.4098    8.1244 C.ar      1 MOL     0.0723
     17 C         -15.9148   11.7957    9.4596 C.2       1 MOL     0.2495
     18 C         -17.6285   12.9557   10.7957 C.3       1 MOL     0.1268
     19 C         -18.4497   14.2253   10.7254 C.3       1 MOL     0.1265
     20 C         -18.1771   14.3981    8.2685 C.3       1 MOL     0.1265
     21 C         -17.7627   12.9493    8.2907 C.3       1 MOL     0.1268
     22 C         -17.4483   16.2742    9.7313 C.2       1 MOL     0.2187
     23 C         -17.2048   17.0010   10.9802 C.3       1 MOL     0.0752
     24 C         -17.2941   16.1891   12.2525 C.3       1 MOL     0.0134
     25 C         -18.2963   17.2179   11.9657 C.3       1 MOL     0.0134
     26 C         -14.1985   11.9626    7.7659 C.ar      1 MOL     0.1355
     27 C         -13.7025   11.6232    6.5275 C.ar      1 MOL     0.0392
     28 C         -14.4227   10.7516    5.6981 C.ar      1 MOL     0.0066
     29 O         -14.5348    4.1650    5.2965 O.2       1 MOL    -0.2658
     30 O         -17.1003   16.8881    8.6602 O.2       1 MOL    -0.2753
     31 O         -15.3337   11.4632   10.5181 O.2       1 MOL    -0.2699
     32 F         -13.5339   12.8080    8.6063 F         1 MOL    -0.2047
     33 H         -16.0918    3.7123    7.0437 H         1 MOL     0.0625
     34 H         -17.8401    4.2980    8.6298 H         1 MOL     0.0618
     35 H         -18.6579    6.5606    8.6272 H         1 MOL     0.0618
     36 H         -17.8132    8.2288    7.1269 H         1 MOL     0.0624
     37 H         -17.4650    9.3434    5.5977 H         1 MOL     0.0377
     38 H         -16.4027    9.5759    4.2190 H         1 MOL     0.0377
     39 H         -17.0149   10.1678    7.6333 H         1 MOL     0.0629
     40 H         -16.8125   13.1122   11.4703 H         1 MOL     0.0480
     41 H         -18.2744   12.1708   11.1314 H         1 MOL     0.0480
     42 H         -18.3157   14.7901   11.6238 H         1 MOL     0.0480
     43 H         -19.4862   13.9810   10.6178 H         1 MOL     0.0480
     44 H         -17.5711   14.9260    7.5623 H         1 MOL     0.0480
     45 H         -19.2079   14.4574    7.9876 H         1 MOL     0.0480
     46 H         -17.0892   12.7740    7.4778 H         1 MOL     0.0480
     47 H         -18.6510   12.3602    8.2067 H         1 MOL     0.0480
     48 H         -16.5017   17.6512   10.5035 H         1 MOL     0.0394
     49 H         -16.5803   16.3406   13.0353 H         1 MOL     0.0273
     50 H         -17.3246   15.1448   12.4836 H         1 MOL     0.0273
     51 H         -18.3161   18.1159   12.5472 H         1 MOL     0.0273
     52 H         -19.3640   17.2242   11.9085 H         1 MOL     0.0273
     53 H         -12.7996   12.0106    6.2098 H         1 MOL     0.0646
     54 H         -14.0284   10.5137    4.7742 H         1 MOL     0.0621
     55 H         -13.7986    6.0999    3.8574 H         1 MOL     0.1921
@<TRIPOS>BOND
     1    1   17 am
     2    1   18 1 
     3    1   21 1 
     4    2   19 1 
     5    2   20 1 
     6    2   22 am
     7    3    4 ar
     8    3   12 ar
     9    4    5 ar
    10    4   55 1 
    11    5    6 ar
    12    5   29 2 
    13    6    7 ar
    14    6   11 ar
    15    7    8 ar
    16    7   33 1 
    17    8    9 ar
    18    8   34 1 
    19    9   10 ar
    20    9   35 1 
    21   10   11 ar
    22   10   36 1 
    23   11   12 ar
    24   12   13 1 
    25   13   14 1 
    26   13   37 1 
    27   13   38 1 
    28   14   15 ar
    29   14   28 ar
    30   15   16 ar
    31   15   39 1 
    32   16   17 1 
    33   16   26 ar
    34   17   31 2 
    35   18   19 1 
    36   18   40 1 
    37   18   41 1 
    38   19   42 1 
    39   19   43 1 
    40   20   21 1 
    41   20   44 1 
    42   20   45 1 
    43   21   46 1 
    44   21   47 1 
    45   22   23 1 
    46   22   30 2 
    47   23   24 1 
    48   23   25 1 
    49   23   48 1 
    50   24   25 1 
    51   24   49 1 
    52   24   50 1 
    53   25   51 1 
    54   25   52 1 
    55   26   27 ar
    56   26   32 1 
    57   27   28 ar
    58   27   53 1 
    59   28   54 1 
@<TRIPOS>SUBSTRUCTURE
1 MOL         1
@<TRIPOS>MOLECULE
query molecule
   55    59     1     0     0
SMALL
NO_CHARGE

@<TRIPOS>ATOM
      1 N          37.5643   10.3187   -7.0803 N.am      1 MOL    -0.2945
      2 N          37.9630    7.8878   -6.2558 N.am      1 MOL    -0.2983
      3 N          31.3113   14.0071   -9.4152 N.ar      1 MOL    -0.1750
      4 N          30.0286   13.8839   -9.6565 N.ar      1 MOL    -0.2425
      5 C          29.5346   13.0970  -10.6228 C.ar      1 MOL     0.2725
      6 C          30.4132   12.3782  -11.4070 C.ar      1 MOL     0.0496
      7 C          29.9536   11.5597  -12.4395 C.ar      1 MOL     0.0138
      8 C          30.8508   10.8674  -13.2240 C.ar      1 MOL     0.0008
      9 C          32.1892   11.0301  -12.9353 C.ar      1 MOL     0.0007
     10 C          32.6593   11.8391  -11.9143 C.ar      1 MOL     0.0103
     11 C          31.7631   12.5177  -11.1423 C.ar      1 MOL     0.0106
     12 C          32.2453   13.3268  -10.1486 C.ar      1 MOL     0.0736
     13 C          33.6319   13.5007   -9.7359 C.3       1 MOL     0.0925
     14 C          33.8975   12.7645   -8.4692 C.ar      1 MOL    -0.0406
     15 C          35.2530   12.5257   -8.1803 C.ar      1 MOL     0.0196
     16 C          35.5986   11.8441   -7.0381 C.ar      1 MOL     0.0723
     17 C          37.0162   11.5742   -6.7082 C.2       1 MOL     0.2495
     18 C          38.9288   10.0238   -6.7835 C.3       1 MOL     0.1268
     19 C          39.1877    8.5392   -6.6414 C.3       1 MOL     0.1265
     20 C          36.8432    7.9635   -7.2004 C.3       1 MOL     0.1265
     21 C          36.7164    9.3571   -7.7600 C.3       1 MOL     0.1268
     22 C          37.8236    7.2092   -5.0415 C.2       1 MOL     0.2187
     23 C          38.8378    7.0586   -3.9947 C.3       1 MOL     0.0752
     24 C          38.5277    7.7117   -2.6668 C.3       1 MOL     0.0134
     25 C          39.6123    8.2288   -3.5043 C.3       1 MOL     0.0134
     26 C          34.6771   11.3688   -6.1354 C.ar      1 MOL     0.1355
     27 C          33.3506   11.6030   -6.4192 C.ar      1 MOL     0.0392
     28 C          32.9944   12.2973   -7.5843 C.ar      1 MOL     0.0066
     29 O          28.3083   12.9648  -10.8684 O.2       1 MOL    -0.2658
     30 O          36.6941    6.6524   -4.7980 O.2       1 MOL    -0.2753
     31 O          37.7359   12.4122   -6.1178 O.2       1 MOL    -0.2699
     32 F          35.0709   10.6964   -5.0149 F         1 MOL    -0.2047
     33 H          28.9406   11.4719  -12.6157 H         1 MOL     0.0625
     34 H          30.5352   10.2562  -13.9922 H         1 MOL     0.0618
     35 H          32.8776   10.5218  -13.5114 H         1 MOL     0.0618
     36 H          33.6727   11.9273  -11.7394 H         1 MOL     0.0624
     37 H          33.8266   14.5421   -9.5854 H         1 MOL     0.0377
     38 H          34.2712   13.1110  -10.5006 H         1 MOL     0.0377
     39 H          35.9860   12.8611   -8.8243 H         1 MOL     0.0629
     40 H          39.1918   10.5071   -5.8655 H         1 MOL     0.0480
     41 H          39.5215   10.3787   -7.6013 H         1 MOL     0.0480
     42 H          39.9340    8.3747   -5.8929 H         1 MOL     0.0480
     43 H          39.5335    8.1408   -7.5726 H         1 MOL     0.0480
     44 H          35.9369    7.7042   -6.6946 H         1 MOL     0.0480
     45 H          37.0236    7.2836   -8.0067 H         1 MOL     0.0480
     46 H          35.6985    9.6728   -7.6632 H         1 MOL     0.0480
     47 H          37.0275    9.3219   -8.7823 H         1 MOL     0.0480
     48 H          39.1141    6.0902   -4.3554 H         1 MOL     0.0394
     49 H          38.7532    7.2013   -1.7537 H         1 MOL     0.0273
     50 H          37.6528    8.1310   -2.2153 H         1 MOL     0.0273
     51 H          40.6286    8.1011   -3.1946 H         1 MOL     0.0273
     52 H          39.8498    9.1898   -3.9084 H         1 MOL     0.0273
     53 H          32.6180   11.2674   -5.7735 H         1 MOL     0.0646
     54 H          31.9926   12.4592   -7.7735 H         1 MOL     0.0621
     55 H          29.3967   14.3943   -9.0997 H         1 MOL     0.1921
@<TRIPOS>BOND
     1    1   17 am
     2    1   18 1 
     3    1   21 1 
     4    2   19 1 
     5    2   20 1 
     6    2   22 am
     7    3    4 ar
     8    3   12 ar
     9    4    5 ar
    10    4   55 1 
    11    5    6 ar
    12    5   29 2 
    13    6    7 ar
    14    6   11 ar
    15    7    8 ar
    16    7   33 1 
    17    8    9 ar
    18    8   34 1 
    19    9   10 ar
    20    9   35 1 
    21   10   11 ar
    22   10   36 1 
    23   11   12 ar
    24   12   13 1 
    25   13   14 1 
    26   13   37 1 
    27   13   38 1 
    28   14   15 ar
    29   14   28 ar
    30   15   16 ar
    31   15   39 1 
    32   16   17 1 
    33   16   26 ar
    34   17   31 2 
    35   18   19 1 
    36   18   40 1 
    37   18   41 1 
    38   19   42 1 
    39   19   43 1 
    40   20   21 1 
    41   20   44 1 
    42   20   45 1 
    43   21   46 1 
    44   21   47 1 
    45   22   23 1 
    46   22   30 2 
    47   23   24 1 
    48   23   25 1 
    49   23   48 1 
    50   24   25 1 
    51   24   49 1 
    52   24   50 1 
    53   25   51 1 
    54   25   52 1 
    55   26   27 ar
    56   26   32 1 
    57   27   28 ar
    58   27   53 1 
    59   28   54 1 
@<TRIPOS>SUBSTRUCTURE
1 MOL         1
@<TRIPOS>MOLECULE
query molecule
   55    59     1     0     0
SMALL
NO_CHARGE

@<TRIPOS>ATOM
      1 N          26.3588    6.5561    2.3135 N.am      1 MOL    -0.2945
      2 N          23.8003    6.7048    1.8887 N.am      1 MOL    -0.2983
      3 N          30.7427   10.2286   -1.3304 N.ar      1 MOL    -0.1750
      4 N          31.0032   11.1233   -2.2525 N.ar      1 MOL    -0.2425
      5 C          32.2427   11.3934   -2.6854 C.ar      1 MOL     0.2725
      6 C          33.3025   10.6999   -2.1382 C.ar      1 MOL     0.0496
      7 C          34.6147   10.9557   -2.5382 C.ar      1 MOL     0.0138
      8 C          35.6596   10.2657   -1.9623 C.ar      1 MOL     0.0008
      9 C          35.3381    9.3369   -0.9953 C.ar      1 MOL     0.0007
     10 C          34.0408    9.0731   -0.5885 C.ar      1 MOL     0.0103
     11 C          33.0139    9.7595   -1.1665 C.ar      1 MOL     0.0106
     12 C          31.7391    9.4991   -0.7403 C.ar      1 MOL     0.0736
     13 C          31.3097    8.4919    0.2210 C.3       1 MOL     0.0925
     14 C          30.0704    8.9304    0.9205 C.ar      1 MOL    -0.0406
     15 C          29.3678    7.9187    1.5991 C.ar      1 MOL     0.0196
     16 C          28.2056    8.2233    2.2663 C.ar      1 MOL     0.0723
     17 C          27.4416    7.1800    2.9868 C.2       1 MOL     0.2495
     18 C          25.6017    5.5423    2.9738 C.3       1 MOL     0.1268
     19 C          24.1860    5.4358    2.4490 C.3       1 MOL     0.1265
     20 C          24.5705    7.1846    0.7361 C.3       1 MOL     0.1265
     21 C          26.0453    6.9677    0.9578 C.3       1 MOL     0.1268
     22 C          22.7446    7.4630    2.4032 C.2       1 MOL     0.2187
     23 C          21.8962    7.1282    3.5501 C.3       1 MOL     0.0752
     24 C          20.6530    7.9700    3.7282 C.3       1 MOL     0.0134
     25 C          21.7496    8.0658    4.6943 C.3       1 MOL     0.0134
     26 C          27.6730    9.4899    2.3138 C.ar      1 MOL     0.1355
     27 C          28.3616   10.4794    1.6493 C.ar      1 MOL     0.0392
     28 C          29.5472   10.1718    0.9666 C.ar      1 MOL     0.0066
     29 O          32.5123   12.2466   -3.5693 O.2       1 MOL    -0.2658
     30 O          22.4738    8.5750    1.8241 O.2       1 MOL    -0.2753
     31 O          27.7209    6.8369    4.1586 O.2       1 MOL    -0.2699
     32 F          26.5145    9.7416    2.9900 F         1 MOL    -0.2047
     33 H          34.8032   11.6620   -3.2666 H         1 MOL     0.0625
     34 H          36.6373   10.4369   -2.2416 H         1 MOL     0.0618
     35 H          36.1055    8.8102   -0.5506 H         1 MOL     0.0618
     36 H          33.8532    8.3673    0.1409 H         1 MOL     0.0624
     37 H          32.0857    8.3394    0.9419 H         1 MOL     0.0377
     38 H          31.1053    7.5807   -0.3016 H         1 MOL     0.0377
     39 H          29.7236    6.9502    1.5957 H         1 MOL     0.0629
     40 H          25.5638    5.7693    4.0190 H         1 MOL     0.0480
     41 H          26.0863    4.6056    2.7898 H         1 MOL     0.0480
     42 H          23.5243    5.1799    3.2497 H         1 MOL     0.0480
     43 H          24.1343    4.6759    1.6970 H         1 MOL     0.0480
     44 H          24.3859    8.2294    0.5988 H         1 MOL     0.0480
     45 H          24.2689    6.6389   -0.1335 H         1 MOL     0.0480
     46 H          26.5600    7.8831    0.7525 H         1 MOL     0.0480
     47 H          26.3557    6.1805    0.3042 H         1 MOL     0.0480
     48 H          22.1458    6.0907    3.4741 H         1 MOL     0.0394
     49 H          19.7297    7.5082    4.0103 H         1 MOL     0.0273
     50 H          20.1169    8.6671    3.1185 H         1 MOL     0.0273
     51 H          21.6200    7.6799    5.6839 H         1 MOL     0.0273
     52 H          22.3368    8.8722    5.0791 H         1 MOL     0.0273
     53 H          28.0047   11.4483    1.6540 H         1 MOL     0.0646
     54 H          30.0438   10.9323    0.4761 H         1 MOL     0.0621
     55 H          30.2506   11.6213   -2.6470 H         1 MOL     0.1921
@<TRIPOS>BOND
     1    1   17 am
     2    1   18 1 
     3    1   21 1 
     4    2   19 1 
     5    2   20 1 
     6    2   22 am
     7    3    4 ar
     8    3   12 ar
     9    4    5 ar
    10    4   55 1 
    11    5    6 ar
    12    5   29 2 
    13    6    7 ar
    14    6   11 ar
    15    7    8 ar
    16    7   33 1 
    17    8    9 ar
    18    8   34 1 
    19    9   10 ar
    20    9   35 1 
    21   10   11 ar
    22   10   36 1 
    23   11   12 ar
    24   12   13 1 
    25   13   14 1 
    26   13   37 1 
    27   13   38 1 
    28   14   15 ar
    29   14   28 ar
    30   15   16 ar
    31   15   39 1 
    32   16   17 1 
    33   16   26 ar
    34   17   31 2 
    35   18   19 1 
    36   18   40 1 
    37   18   41 1 
    38   19   42 1 
    39   19   43 1 
    40   20   21 1 
    41   20   44 1 
    42   20   45 1 
    43   21   46 1 
    44   21   47 1 
    45   22   23 1 
    46   22   30 2 
    47   23   24 1 
    48   23   25 1 
    49   23   48 1 
    50   24   25 1 
    51   24   49 1 
    52   24   50 1 
    53   25   51 1 
    54   25   52 1 
    55   26   27 ar
    56   26   32 1 
    57   27   28 ar
    58   27   53 1 
    59   28   54 1 
@<TRIPOS>SUBSTRUCTURE
1 MOL         1
@<TRIPOS>MOLECULE
query molecule
   55    59     1     0     0
SMALL
NO_CHARGE

@<TRIPOS>ATOM
      1 N          -8.0056   12.0903   36.8212 N.am      1 MOL    -0.2945
      2 N          -7.5955   14.6299   36.4592 N.am      1 MOL    -0.2983
      3 N          -3.8678    9.9229   38.8064 N.ar      1 MOL    -0.1750
      4 N          -2.7296   10.5607   38.6776 N.ar      1 MOL    -0.2425
      5 C          -1.6532   10.3035   39.4339 C.ar      1 MOL     0.2725
      6 C          -1.7393    9.3207   40.3984 C.ar      1 MOL     0.0496
      7 C          -0.6553    9.0265   41.2263 C.ar      1 MOL     0.0138
      8 C          -0.7711    8.0552   42.1973 C.ar      1 MOL     0.0008
      9 C          -1.9872    7.4133   42.2977 C.ar      1 MOL     0.0007
     10 C          -3.0712    7.6952   41.4833 C.ar      1 MOL     0.0103
     11 C          -2.9454    8.6562   40.5239 C.ar      1 MOL     0.0106
     12 C          -4.0321    8.9348   39.7390 C.ar      1 MOL     0.0736
     13 C          -5.3237    8.2604   39.7342 C.3       1 MOL     0.0925
     14 C          -6.4270    9.2406   39.9325 C.ar      1 MOL    -0.0406
     15 C          -7.0347    9.7146   38.7562 C.ar      1 MOL     0.0196
     16 C          -8.0561   10.6306   38.8359 C.ar      1 MOL     0.0723
     17 C          -8.7134   11.1509   37.6158 C.2       1 MOL     0.2495
     18 C          -8.6046   12.6109   35.6349 C.3       1 MOL     0.1268
     19 C          -8.0770   13.9812   35.2674 C.3       1 MOL     0.1265
     20 C          -6.4727   13.9928   37.1559 C.3       1 MOL     0.1265
     21 C          -6.6779   12.5020   37.2378 C.3       1 MOL     0.1268
     22 C          -8.1572   15.8123   36.9496 C.2       1 MOL     0.2187
     23 C          -9.2832   16.5561   36.3786 C.3       1 MOL     0.0752
     24 C          -9.1916   18.0636   36.4501 C.3       1 MOL     0.0134
     25 C         -10.1945   17.3501   37.2439 C.3       1 MOL     0.0134
     26 C          -8.5344   11.1253   40.0260 C.ar      1 MOL     0.1355
     27 C          -7.9387   10.6608   41.1768 C.ar      1 MOL     0.0392
     28 C          -6.8956    9.7269   41.0991 C.ar      1 MOL     0.0066
     29 O          -0.5531   10.9033   39.3245 O.2       1 MOL    -0.2658
     30 O          -7.6471   16.3163   38.0131 O.2       1 MOL    -0.2753
     31 O          -9.8617   10.7895   37.2698 O.2       1 MOL    -0.2699
     32 F          -9.5513   12.0352   40.0525 F         1 MOL    -0.2047
     33 H           0.2345    9.5363   41.1112 H         1 MOL     0.0625
     34 H           0.0160    7.8199   42.8206 H         1 MOL     0.0618
     35 H          -2.0954    6.6837   43.0190 H         1 MOL     0.0618
     36 H          -3.9613    7.1857   41.5998 H         1 MOL     0.0624
     37 H          -5.3474    7.5390   40.5242 H         1 MOL     0.0377
     38 H          -5.4580    7.7784   38.7882 H         1 MOL     0.0377
     39 H          -6.7143    9.3758   37.8358 H         1 MOL     0.0629
     40 H          -9.6617   12.6800   35.7870 H         1 MOL     0.0480
     41 H          -8.3631   11.9452   34.8320 H         1 MOL     0.0480
     42 H          -8.8619   14.5637   34.8328 H         1 MOL     0.0480
     43 H          -7.2804   13.8850   34.5592 H         1 MOL     0.0480
     44 H          -6.3994   14.3922   38.1457 H         1 MOL     0.0480
     45 H          -5.5721   14.1872   36.6117 H         1 MOL     0.0480
     46 H          -6.5277   12.1915   38.2508 H         1 MOL     0.0480
     47 H          -5.9771   12.0446   36.5723 H         1 MOL     0.0480
     48 H          -9.4422   15.8070   35.6316 H         1 MOL     0.0394
     49 H          -9.4948   18.6585   35.6138 H         1 MOL     0.0273
     50 H          -8.4131   18.7653   36.6659 H         1 MOL     0.0273
     51 H         -11.2304   17.4335   36.9888 H         1 MOL     0.0273
     52 H         -10.4460   17.3276   38.2829 H         1 MOL     0.0273
     53 H          -8.2607   11.0002   42.0973 H         1 MOL     0.0646
     54 H          -6.4660    9.3951   41.9771 H         1 MOL     0.0621
     55 H          -2.6622   11.2630   37.9906 H         1 MOL     0.1921
@<TRIPOS>BOND
     1    1   17 am
     2    1   18 1 
     3    1   21 1 
     4    2   19 1 
     5    2   20 1 
     6    2   22 am
     7    3    4 ar
     8    3   12 ar
     9    4    5 ar
    10    4   55 1 
    11    5    6 ar
    12    5   29 2 
    13    6    7 ar
    14    6   11 ar
    15    7    8 ar
    16    7   33 1 
    17    8    9 ar
    18    8   34 1 
    19    9   10 ar
    20    9   35 1 
    21   10   11 ar
    22   10   36 1 
    23   11   12 ar
    24   12   13 1 
    25   13   14 1 
    26   13   37 1 
    27   13   38 1 
    28   14   15 ar
    29   14   28 ar
    30   15   16 ar
    31   15   39 1 
    32   16   17 1 
    33   16   26 ar
    34   17   31 2 
    35   18   19 1 
    36   18   40 1 
    37   18   41 1 
    38   19   42 1 
    39   19   43 1 
    40   20   21 1 
    41   20   44 1 
    42   20   45 1 
    43   21   46 1 
    44   21   47 1 
    45   22   23 1 
    46   22   30 2 
    47   23   24 1 
    48   23   25 1 
    49   23   48 1 
    50   24   25 1 
    51   24   49 1 
    52   24   50 1 
    53   25   51 1 
    54   25   52 1 
    55   26   27 ar
    56   26   32 1 
    57   27   28 ar
    58   27   53 1 
    59   28   54 1 
@<TRIPOS>SUBSTRUCTURE
1 MOL         1
@<TRIPOS>MOLECULE
query molecule
   55    59     1     0     0
SMALL
NO_CHARGE

@<TRIPOS>ATOM
      1 N          41.3542   12.3887   28.0678 N.am      1 MOL    -0.2945
      2 N          39.3578   13.6918   27.0358 N.am      1 MOL    -0.2983
      3 N          46.1768   11.4455   24.7223 N.ar      1 MOL    -0.1750
      4 N          45.9369   11.1408   23.4700 N.ar      1 MOL    -0.2425
      5 C          46.1145    9.9116   22.9656 C.ar      1 MOL     0.2725
      6 C          46.5725    8.9120   23.7992 C.ar      1 MOL     0.0496
      7 C          46.7937    7.6199   23.3211 C.ar      1 MOL     0.0138
      8 C          47.2720    6.6426   24.1671 C.ar      1 MOL     0.0008
      9 C          47.5124    7.0098   25.4742 C.ar      1 MOL     0.0007
     10 C          47.2978    8.2881   25.9620 C.ar      1 MOL     0.0103
     11 C          46.8220    9.2471   25.1173 C.ar      1 MOL     0.0106
     12 C          46.6321   10.5098   25.6113 C.ar      1 MOL     0.0736
     13 C          46.7955   10.9620   26.9868 C.3       1 MOL     0.0925
     14 C          45.9061   12.1234   27.2654 C.ar      1 MOL    -0.0406
     15 C          44.6936   11.8171   27.9085 C.ar      1 MOL     0.0196
     16 C          43.8013   12.8211   28.1989 C.ar      1 MOL     0.0723
     17 C          42.5153   12.5302   28.8720 C.2       1 MOL     0.2495
     18 C          40.0970   12.1032   28.6802 C.3       1 MOL     0.1268
     19 C          38.9232   12.5943   27.8603 C.3       1 MOL     0.1265
     20 C          40.3926   13.4041   26.0366 C.3       1 MOL     0.1265
     21 C          41.4747   12.5387   26.6295 C.3       1 MOL     0.1268
     22 C          38.8331   14.9811   27.1643 C.2       1 MOL     0.2187
     23 C          37.8128   15.4264   28.1172 C.3       1 MOL     0.0752
     24 C          36.4287   15.6555   27.5536 C.3       1 MOL     0.0134
     25 C          37.2250   16.7889   28.0293 C.3       1 MOL     0.0134
     26 C          44.0264   14.1422   27.8921 C.ar      1 MOL     0.1355
     27 C          45.2136   14.4409   27.2626 C.ar      1 MOL     0.0392
     28 C          46.1258   13.4187   26.9640 C.ar      1 MOL     0.0066
     29 O          45.8888    9.5997   21.7683 O.2       1 MOL    -0.2658
     30 O          39.2799   15.8863   26.3730 O.2       1 MOL    -0.2753
     31 O          42.4250   12.4068   30.1151 O.2       1 MOL    -0.2699
     32 F          43.1078   15.1032   28.2010 F         1 MOL    -0.2047
     33 H          46.5984    7.3953   22.3330 H         1 MOL     0.0625
     34 H          47.4427    5.6807   23.8372 H         1 MOL     0.0618
     35 H          47.8719    6.2936   26.1238 H         1 MOL     0.0618
     36 H          47.4945    8.5122   26.9502 H         1 MOL     0.0624
     37 H          47.8134   11.2524   27.1436 H         1 MOL     0.0377
     38 H          46.5327   10.1617   27.6469 H         1 MOL     0.0377
     39 H          44.4743   10.8411   28.1614 H         1 MOL     0.0629
     40 H          40.0677   12.5775   29.6392 H         1 MOL     0.0480
     41 H          40.0117   11.0393   28.7623 H         1 MOL     0.0480
     42 H          38.1414   12.9220   28.5127 H         1 MOL     0.0480
     43 H          38.5543   11.8009   27.2440 H         1 MOL     0.0480
     44 H          40.8232   14.3237   25.7000 H         1 MOL     0.0480
     45 H          39.9460   12.8831   25.2156 H         1 MOL     0.0480
     46 H          42.4241   12.9818   26.4120 H         1 MOL     0.0480
     47 H          41.3803   11.5655   26.1969 H         1 MOL     0.0480
     48 H          38.2621   14.8669   28.9106 H         1 MOL     0.0394
     49 H          35.5674   15.3379   28.1038 H         1 MOL     0.0273
     50 H          35.9337   15.4082   26.6377 H         1 MOL     0.0273
     51 H          36.9369   17.3017   28.9231 H         1 MOL     0.0273
     52 H          37.5424   17.7127   27.5944 H         1 MOL     0.0273
     53 H          45.4320   15.4181   27.0105 H         1 MOL     0.0646
     54 H          47.0084   13.6698   26.4912 H         1 MOL     0.0621
     55 H          45.6095   11.8500   22.8704 H         1 MOL     0.1921
@<TRIPOS>BOND
     1    1   17 am
     2    1   18 1 
     3    1   21 1 
     4    2   19 1 
     5    2   20 1 
     6    2   22 am
     7    3    4 ar
     8    3   12 ar
     9    4    5 ar
    10    4   55 1 
    11    5    6 ar
    12    5   29 2 
    13    6    7 ar
    14    6   11 ar
    15    7    8 ar
    16    7   33 1 
    17    8    9 ar
    18    8   34 1 
    19    9   10 ar
    20    9   35 1 
    21   10   11 ar
    22   10   36 1 
    23   11   12 ar
    24   12   13 1 
    25   13   14 1 
    26   13   37 1 
    27   13   38 1 
    28   14   15 ar
    29   14   28 ar
    30   15   16 ar
    31   15   39 1 
    32   16   17 1 
    33   16   26 ar
    34   17   31 2 
    35   18   19 1 
    36   18   40 1 
    37   18   41 1 
    38   19   42 1 
    39   19   43 1 
    40   20   21 1 
    41   20   44 1 
    42   20   45 1 
    43   21   46 1 
    44   21   47 1 
    45   22   23 1 
    46   22   30 2 
    47   23   24 1 
    48   23   25 1 
    49   23   48 1 
    50   24   25 1 
    51   24   49 1 
    52   24   50 1 
    53   25   51 1 
    54   25   52 1 
    55   26   27 ar
    56   26   32 1 
    57   27   28 ar
    58   27   53 1 
    59   28   54 1 
@<TRIPOS>SUBSTRUCTURE
1 MOL         1
@<TRIPOS>MOLECULE
query molecule
   55    59     1     0     0
SMALL
NO_CHARGE

@<TRIPOS>ATOM
      1 N         -10.3826  -16.5006   14.2559 N.am      1 MOL    -0.2945
      2 N          -9.2879  -15.4613   16.3702 N.am      1 MOL    -0.2983
      3 N         -12.3042  -11.9818   14.6876 N.ar      1 MOL    -0.1750
      4 N         -12.6235  -11.8375   15.9509 N.ar      1 MOL    -0.2425
      5 C         -13.8347  -11.4363   16.3618 C.ar      1 MOL     0.2725
      6 C         -14.7986  -11.1590   15.4144 C.ar      1 MOL     0.0496
      7 C         -16.0694  -10.7189   15.7866 C.ar      1 MOL     0.0138
      8 C         -17.0097  -10.4274   14.8221 C.ar      1 MOL     0.0008
      9 C         -16.6282  -10.5911   13.5072 C.ar      1 MOL     0.0007
     10 C         -15.3709  -11.0266   13.1235 C.ar      1 MOL     0.0103
     11 C         -14.4486  -11.3149   14.0858 C.ar      1 MOL     0.0106
     12 C         -13.2049  -11.7274   13.6889 C.ar      1 MOL     0.0736
     13 C         -12.7447  -11.9903   12.3317 C.3       1 MOL     0.0925
     14 C         -12.7772  -13.4504   12.0412 C.ar      1 MOL    -0.0406
     15 C         -11.6984  -14.1937   12.5523 C.ar      1 MOL     0.0196
     16 C         -11.6341  -15.5480   12.3275 C.ar      1 MOL     0.0723
     17 C         -10.5097  -16.3571   12.8494 C.2       1 MOL     0.2495
     18 C          -9.3142  -17.2772   14.7967 C.3       1 MOL     0.1268
     19 C          -8.9266  -16.8439   16.1942 C.3       1 MOL     0.1265
     20 C         -10.7139  -15.1296   16.2788 C.3       1 MOL     0.1265
     21 C         -11.3512  -15.8487   15.1177 C.3       1 MOL     0.1268
     22 C          -8.3406  -14.4633   16.6165 C.2       1 MOL     0.2187
     23 C          -6.8888  -14.6326   16.7207 C.3       1 MOL     0.0752
     24 C          -6.3717  -15.1566   18.0414 C.3       1 MOL     0.0134
     25 C          -6.0816  -13.7804   17.6327 C.3       1 MOL     0.0134
     26 C         -12.5847  -16.2403   11.6155 C.ar      1 MOL     0.1355
     27 C         -13.6402  -15.5117   11.1156 C.ar      1 MOL     0.0392
     28 C         -13.7084  -14.1295   11.3422 C.ar      1 MOL     0.0066
     29 O         -14.1600  -11.2934   17.5682 O.2       1 MOL    -0.2658
     30 O          -8.7673  -13.2634   16.7699 O.2       1 MOL    -0.2753
     31 O          -9.6785  -16.9115   12.0940 O.2       1 MOL    -0.2699
     32 F         -12.4753  -17.5864   11.4187 F         1 MOL    -0.2047
     33 H         -16.3059  -10.6120   16.7854 H         1 MOL     0.0625
     34 H         -17.9553  -10.1011   15.0726 H         1 MOL     0.0618
     35 H         -17.3167  -10.3771   12.7694 H         1 MOL     0.0618
     36 H         -15.1347  -11.1322   12.1243 H         1 MOL     0.0624
     37 H         -11.7422  -11.6320   12.2240 H         1 MOL     0.0377
     38 H         -13.3932  -11.4885   11.6439 H         1 MOL     0.0377
     39 H         -10.9570  -13.7235   13.0944 H         1 MOL     0.0629
     40 H          -8.4612  -17.1776   14.1579 H         1 MOL     0.0480
     41 H          -9.6492  -18.2923   14.8539 H         1 MOL     0.0480
     42 H          -7.8715  -16.9598   16.3267 H         1 MOL     0.0480
     43 H          -9.4375  -17.4474   16.9156 H         1 MOL     0.0480
     44 H         -10.8224  -14.0743   16.1407 H         1 MOL     0.0480
     45 H         -11.1993  -15.4356   17.1820 H         1 MOL     0.0480
     46 H         -11.9006  -15.1383   14.5357 H         1 MOL     0.0480
     47 H         -11.9850  -16.6097   15.5205 H         1 MOL     0.0480
     48 H          -6.8103  -14.8838   15.6839 H         1 MOL     0.0394
     49 H          -5.5891  -15.8863   18.0582 H         1 MOL     0.0273
     50 H          -6.8159  -15.6144   18.9005 H         1 MOL     0.0273
     51 H          -5.0836  -13.5072   17.3598 H         1 MOL     0.0273
     52 H          -6.2272  -12.8217   18.0832 H         1 MOL     0.0273
     53 H         -14.3818  -15.9835   10.5738 H         1 MOL     0.0646
     54 H         -14.5104  -13.6068   10.9560 H         1 MOL     0.0621
     55 H         -11.9396  -12.0343   16.6316 H         1 MOL     0.1921
@<TRIPOS>BOND
     1    1   17 am
     2    1   18 1 
     3    1   21 1 
     4    2   19 1 
     5    2   20 1 
     6    2   22 am
     7    3    4 ar
     8    3   12 ar
     9    4    5 ar
    10    4   55 1 
    11    5    6 ar
    12    5   29 2 
    13    6    7 ar
    14    6   11 ar
    15    7    8 ar
    16    7   33 1 
    17    8    9 ar
    18    8   34 1 
    19    9   10 ar
    20    9   35 1 
    21   10   11 ar
    22   10   36 1 
    23   11   12 ar
    24   12   13 1 
    25   13   14 1 
    26   13   37 1 
    27   13   38 1 
    28   14   15 ar
    29   14   28 ar
    30   15   16 ar
    31   15   39 1 
    32   16   17 1 
    33   16   26 ar
    34   17   31 2 
    35   18   19 1 
    36   18   40 1 
    37   18   41 1 
    38   19   42 1 
    39   19   43 1 
    40   20   21 1 
    41   20   44 1 
    42   20   45 1 
    43   21   46 1 
    44   21   47 1 
    45   22   23 1 
    46   22   30 2 
    47   23   24 1 
    48   23   25 1 
    49   23   48 1 
    50   24   25 1 
    51   24   49 1 
    52   24   50 1 
    53   25   51 1 
    54   25   52 1 
    55   26   27 ar
    56   26   32 1 
    57   27   28 ar
    58   27   53 1 
    59   28   54 1 
@<TRIPOS>SUBSTRUCTURE
1 MOL         1
@<TRIPOS>MOLECULE
query molecule
   55    59     1     0     0
SMALL
NO_CHARGE

@<TRIPOS>ATOM
      1 N          -8.4318   16.2676   31.8556 N.am      1 MOL    -0.2945
      2 N          -8.7022   18.6073   32.9515 N.am      1 MOL    -0.2983
      3 N          -1.6004   17.1164   30.1194 N.ar      1 MOL    -0.1750
      4 N          -1.1934   18.2624   30.6090 N.ar      1 MOL    -0.2425
      5 C          -1.9688   19.3544   30.6657 C.ar      1 MOL     0.2725
      6 C          -3.2604   19.2768   30.1868 C.ar      1 MOL     0.0496
      7 C          -4.1032   20.3888   30.2035 C.ar      1 MOL     0.0138
      8 C          -5.3827   20.2936   29.7001 C.ar      1 MOL     0.0008
      9 C          -5.7658   19.0699   29.1932 C.ar      1 MOL     0.0007
     10 C          -4.9400   17.9585   29.1699 C.ar      1 MOL     0.0103
     11 C          -3.6766   18.0626   29.6728 C.ar      1 MOL     0.0106
     12 C          -2.8674   16.9592   29.6261 C.ar      1 MOL     0.0736
     13 C          -3.2144   15.6186   29.1727 C.3       1 MOL     0.0925
     14 C          -4.6923   15.4649   29.0755 C.ar      1 MOL    -0.0406
     15 C          -5.3794   15.4283   30.3020 C.ar      1 MOL     0.0196
     16 C          -6.7454   15.2786   30.3159 C.ar      1 MOL     0.0723
     17 C          -7.4966   15.2330   31.5907 C.2       1 MOL     0.2495
     18 C          -9.1786   16.2552   33.0718 C.3       1 MOL     0.1268
     19 C          -9.6133   17.6390   33.5041 C.3       1 MOL     0.1265
     20 C          -8.6343   18.6978   31.4889 C.3       1 MOL     0.1265
     21 C          -8.6079   17.3220   30.8742 C.3       1 MOL     0.1268
     22 C          -7.9078   19.4332   33.7521 C.2       1 MOL     0.2187
     23 C          -7.8522   19.4521   35.2162 C.3       1 MOL     0.0752
     24 C          -7.3502   18.1902   35.8808 C.3       1 MOL     0.0134
     25 C          -8.7513   18.5906   36.0282 C.3       1 MOL     0.0134
     26 C          -7.5028   15.1599   29.1748 C.ar      1 MOL     0.1355
     27 C          -6.8292   15.1958   27.9748 C.ar      1 MOL     0.0392
     28 C          -5.4353   15.3474   27.9570 C.ar      1 MOL     0.0066
     29 O          -1.5970   20.4615   31.1326 O.2       1 MOL    -0.2658
     30 O          -7.1371   20.2710   33.1610 O.2       1 MOL    -0.2753
     31 O          -7.3321   14.3186   32.4306 O.2       1 MOL    -0.2699
     32 F          -8.8580   15.0123   29.2413 F         1 MOL    -0.2047
     33 H          -3.7686   21.2835   30.5939 H         1 MOL     0.0625
     34 H          -6.0240   21.1011   29.7020 H         1 MOL     0.0618
     35 H          -6.7192   18.9775   28.8102 H         1 MOL     0.0618
     36 H          -5.2750   17.0642   28.7782 H         1 MOL     0.0624
     37 H          -2.8307   14.9013   29.8679 H         1 MOL     0.0377
     38 H          -2.7879   15.4605   28.2040 H         1 MOL     0.0377
     39 H          -4.8592   15.5133   31.1890 H         1 MOL     0.0629
     40 H          -8.5700   15.8304   33.8430 H         1 MOL     0.0480
     41 H         -10.0631   15.6765   32.9021 H         1 MOL     0.0480
     42 H          -9.6014   17.7022   34.5719 H         1 MOL     0.0480
     43 H         -10.6059   17.8331   33.1540 H         1 MOL     0.0480
     44 H          -7.7464   19.2247   31.2089 H         1 MOL     0.0480
     45 H          -9.4996   19.2173   31.1334 H         1 MOL     0.0480
     46 H          -7.7985   17.2752   30.1758 H         1 MOL     0.0480
     47 H          -9.5532   17.1640   30.4004 H         1 MOL     0.0480
     48 H          -7.6244   20.4972   35.2272 H         1 MOL     0.0394
     49 H          -6.6845   18.2538   36.7163 H         1 MOL     0.0273
     50 H          -6.8451   17.3080   35.5466 H         1 MOL     0.0273
     51 H          -9.1068   18.9382   36.9757 H         1 MOL     0.0273
     52 H          -9.6882   18.1085   35.8467 H         1 MOL     0.0273
     53 H          -7.3510   15.1113   27.0878 H         1 MOL     0.0646
     54 H          -4.9548   15.3709   27.0437 H         1 MOL     0.0621
     55 H          -0.2726   18.3237   30.9526 H         1 MOL     0.1921
@<TRIPOS>BOND
     1    1   17 am
     2    1   18 1 
     3    1   21 1 
     4    2   19 1 
     5    2   20 1 
     6    2   22 am
     7    3    4 ar
     8    3   12 ar
     9    4    5 ar
    10    4   55 1 
    11    5    6 ar
    12    5   29 2 
    13    6    7 ar
    14    6   11 ar
    15    7    8 ar
    16    7   33 1 
    17    8    9 ar
    18    8   34 1 
    19    9   10 ar
    20    9   35 1 
    21   10   11 ar
    22   10   36 1 
    23   11   12 ar
    24   12   13 1 
    25   13   14 1 
    26   13   37 1 
    27   13   38 1 
    28   14   15 ar
    29   14   28 ar
    30   15   16 ar
    31   15   39 1 
    32   16   17 1 
    33   16   26 ar
    34   17   31 2 
    35   18   19 1 
    36   18   40 1 
    37   18   41 1 
    38   19   42 1 
    39   19   43 1 
    40   20   21 1 
    41   20   44 1 
    42   20   45 1 
    43   21   46 1 
    44   21   47 1 
    45   22   23 1 
    46   22   30 2 
    47   23   24 1 
    48   23   25 1 
    49   23   48 1 
    50   24   25 1 
    51   24   49 1 
    52   24   50 1 
    53   25   51 1 
    54   25   52 1 
    55   26   27 ar
    56   26   32 1 
    57   27   28 ar
    58   27   53 1 
    59   28   54 1 
@<TRIPOS>SUBSTRUCTURE
1 MOL         1
@<TRIPOS>MOLECULE
query molecule
   55    59     1     0     0
SMALL
NO_CHARGE

@<TRIPOS>ATOM
      1 N          29.1252   10.7982   20.4493 N.am      1 MOL    -0.2945
      2 N          27.7593    8.9546   19.2313 N.am      1 MOL    -0.2983
      3 N          33.6259   13.5308   16.2836 N.ar      1 MOL    -0.1750
      4 N          33.9911   13.9918   15.1120 N.ar      1 MOL    -0.2425
      5 C          34.8353   13.3432   14.2974 C.ar      1 MOL     0.2725
      6 C          35.3501   12.1298   14.7052 C.ar      1 MOL     0.0496
      7 C          36.2483   11.4225   13.9051 C.ar      1 MOL     0.0138
      8 C          36.7663   10.2225   14.3422 C.ar      1 MOL     0.0008
      9 C          36.3560    9.7787   15.5816 C.ar      1 MOL     0.0007
     10 C          35.4658   10.4702   16.3862 C.ar      1 MOL     0.0103
     11 C          34.9571   11.6554   15.9431 C.ar      1 MOL     0.0106
     12 C          34.0921   12.3348   16.7584 C.ar      1 MOL     0.0736
     13 C          33.5575   11.9060   18.0442 C.3       1 MOL     0.0925
     14 C          32.3985   12.7536   18.4385 C.ar      1 MOL    -0.0406
     15 C          31.4473   12.1316   19.2667 C.ar      1 MOL     0.0196
     16 C          30.3363   12.8297   19.6756 C.ar      1 MOL     0.0723
     17 C          29.3157   12.2017   20.5446 C.2       1 MOL     0.2495
     18 C          28.1537   10.1560   21.2745 C.3       1 MOL     0.1268
     19 C          27.6204    8.8786   20.6624 C.3       1 MOL     0.1265
     20 C          29.1225    9.0602   18.6999 C.3       1 MOL     0.1265
     21 C          29.9304   10.0436   19.5071 C.3       1 MOL     0.1268
     22 C          26.6599    8.9318   18.3681 C.2       1 MOL     0.2187
     23 C          25.2462    8.8450   18.7436 C.3       1 MOL     0.0752
     24 C          24.8639    7.6882   19.6391 C.3       1 MOL     0.0134
     25 C          24.3903    7.7327   18.2538 C.3       1 MOL     0.0134
     26 C          30.0904   14.1337   19.3162 C.ar      1 MOL     0.1355
     27 C          31.0221   14.7415   18.5054 C.ar      1 MOL     0.0392
     28 C          32.1563   14.0318   18.0856 C.ar      1 MOL     0.0066
     29 O          35.1963   13.7683   13.1701 O.2       1 MOL    -0.2658
     30 O          26.8921    8.9934   17.1081 O.2       1 MOL    -0.2753
     31 O          28.6249   12.8658   21.3512 O.2       1 MOL    -0.2699
     32 F          28.9709   14.7840   19.7481 F         1 MOL    -0.2047
     33 H          36.5247   11.7979   12.9844 H         1 MOL     0.0625
     34 H          37.4310    9.6816   13.7687 H         1 MOL     0.0618
     35 H          36.7328    8.8832   15.9282 H         1 MOL     0.0618
     36 H          35.1908   10.0946   17.3074 H         1 MOL     0.0624
     37 H          34.3222   11.9870   18.7883 H         1 MOL     0.0377
     38 H          33.2284   10.8911   17.9603 H         1 MOL     0.0377
     39 H          31.5830   11.1537   19.5665 H         1 MOL     0.0629
     40 H          27.3364   10.8296   21.4287 H         1 MOL     0.0480
     41 H          28.6327    9.8977   22.1964 H         1 MOL     0.0480
     42 H          26.5884    8.7612   20.9181 H         1 MOL     0.0480
     43 H          28.1704    8.0402   21.0366 H         1 MOL     0.0480
     44 H          29.0802    9.3911   17.6833 H         1 MOL     0.0480
     45 H          29.5917    8.1002   18.7565 H         1 MOL     0.0480
     46 H          30.4021   10.7307   18.8359 H         1 MOL     0.0480
     47 H          30.6450    9.4842   20.0724 H         1 MOL     0.0480
     48 H          25.1454    9.9100   18.7394 H         1 MOL     0.0394
     49 H          24.1764    7.8398   20.4451 H         1 MOL     0.0273
     50 H          25.4033    6.9805   20.2333 H         1 MOL     0.0273
     51 H          23.3541    7.9087   18.0529 H         1 MOL     0.0273
     52 H          24.4428    7.0589   17.4253 H         1 MOL     0.0273
     53 H          30.8855   15.7204   18.2067 H         1 MOL     0.0646
     54 H          32.8392   14.5110   17.4776 H         1 MOL     0.0621
     55 H          33.6266   14.8573   14.8155 H         1 MOL     0.1921
@<TRIPOS>BOND
     1    1   17 am
     2    1   18 1 
     3    1   21 1 
     4    2   19 1 
     5    2   20 1 
     6    2   22 am
     7    3    4 ar
     8    3   12 ar
     9    4    5 ar
    10    4   55 1 
    11    5    6 ar
    12    5   29 2 
    13    6    7 ar
    14    6   11 ar
    15    7    8 ar
    16    7   33 1 
    17    8    9 ar
    18    8   34 1 
    19    9   10 ar
    20    9   35 1 
    21   10   11 ar
    22   10   36 1 
    23   11   12 ar
    24   12   13 1 
    25   13   14 1 
    26   13   37 1 
    27   13   38 1 
    28   14   15 ar
    29   14   28 ar
    30   15   16 ar
    31   15   39 1 
    32   16   17 1 
    33   16   26 ar
    34   17   31 2 
    35   18   19 1 
    36   18   40 1 
    37   18   41 1 
    38   19   42 1 
    39   19   43 1 
    40   20   21 1 
    41   20   44 1 
    42   20   45 1 
    43   21   46 1 
    44   21   47 1 
    45   22   23 1 
    46   22   30 2 
    47   23   24 1 
    48   23   25 1 
    49   23   48 1 
    50   24   25 1 
    51   24   49 1 
    52   24   50 1 
    53   25   51 1 
    54   25   52 1 
    55   26   27 ar
    56   26   32 1 
    57   27   28 ar
    58   27   53 1 
    59   28   54 1 
@<TRIPOS>SUBSTRUCTURE
1 MOL         1
@<TRIPOS>MOLECULE
query molecule
   55    59     1     0     0
SMALL
NO_CHARGE

@<TRIPOS>ATOM
      1 N          -9.1733   -8.0368   25.4347 N.am      1 MOL    -0.2945
      2 N          -9.5213  -10.3454   24.2955 N.am      1 MOL    -0.2983
      3 N         -13.1185   -7.1393   32.0549 N.ar      1 MOL    -0.1750
      4 N         -13.0541   -6.5823   33.2399 N.ar      1 MOL    -0.2425
      5 C         -11.9828   -6.6778   34.0399 C.ar      1 MOL     0.2725
      6 C         -10.8895   -7.3965   33.6018 C.ar      1 MOL     0.0496
      7 C          -9.7563   -7.5444   34.4025 C.ar      1 MOL     0.0138
      8 C          -8.6843   -8.2847   33.9529 C.ar      1 MOL     0.0008
      9 C          -8.7981   -8.8540   32.7022 C.ar      1 MOL     0.0007
     10 C          -9.9165   -8.7159   31.8972 C.ar      1 MOL     0.0103
     11 C         -10.9708   -7.9791   32.3504 C.ar      1 MOL     0.0106
     12 C         -12.0755   -7.8672   31.5494 C.ar      1 MOL     0.0736
     13 C         -12.2492   -8.3768   30.1955 C.3       1 MOL     0.0925
     14 C         -11.7393   -7.3963   29.1975 C.ar      1 MOL    -0.0406
     15 C         -10.6370   -7.8244   28.4364 C.ar      1 MOL     0.0196
     16 C         -10.0884   -6.9855   27.4962 C.ar      1 MOL     0.0723
     17 C          -8.9258   -7.4058   26.6819 C.2       1 MOL     0.2495
     18 C          -8.0779   -8.4518   24.6193 C.3       1 MOL     0.1268
     19 C          -8.4328   -9.6078   23.7089 C.3       1 MOL     0.1265
     20 C         -10.7902   -9.6308   24.4723 C.3       1 MOL     0.1265
     21 C         -10.5465   -8.2461   25.0149 C.3       1 MOL     0.1268
     22 C          -9.3977  -11.6816   24.6875 C.2       1 MOL     0.2187
     23 C          -8.2009  -12.5214   24.5899 C.3       1 MOL     0.0752
     24 C          -8.1402  -13.4609   23.4068 C.3       1 MOL     0.0134
     25 C          -8.2833  -13.9955   24.7629 C.3       1 MOL     0.0134
     26 C         -10.5633   -5.7199   27.2459 C.ar      1 MOL     0.1355
     27 C         -11.6423   -5.3019   27.9914 C.ar      1 MOL     0.0392
     28 C         -12.2039   -6.1549   28.9523 C.ar      1 MOL     0.0066
     29 O         -11.9018   -6.1499   35.1785 O.2       1 MOL    -0.2658
     30 O         -10.4311  -12.2518   25.1896 O.2       1 MOL    -0.2753
     31 O          -7.7453   -7.2221   27.0581 O.2       1 MOL    -0.2699
     32 F          -9.9829   -4.9241   26.3012 F         1 MOL    -0.2047
     33 H          -9.7204   -7.0983   35.3324 H         1 MOL     0.0625
     34 H          -7.8361   -8.4078   34.5262 H         1 MOL     0.0618
     35 H          -8.0074   -9.4133   32.3472 H         1 MOL     0.0618
     36 H          -9.9522   -9.1633   30.9677 H         1 MOL     0.0624
     37 H         -13.2893   -8.5531   30.0162 H         1 MOL     0.0377
     38 H         -11.6964   -9.2877   30.0958 H         1 MOL     0.0377
     39 H         -10.2409   -8.7657   28.5838 H         1 MOL     0.0629
     40 H          -7.2715   -8.7518   25.2559 H         1 MOL     0.0480
     41 H          -7.8048   -7.6233   23.9988 H         1 MOL     0.0480
     42 H          -7.5841  -10.2487   23.5945 H         1 MOL     0.0480
     43 H          -8.7221   -9.2365   22.7476 H         1 MOL     0.0480
     44 H         -11.4078  -10.1729   25.1573 H         1 MOL     0.0480
     45 H         -11.2764   -9.5481   23.5227 H         1 MOL     0.0480
     46 H         -11.1872   -8.0918   25.8580 H         1 MOL     0.0480
     47 H         -10.7500   -7.5524   24.2272 H         1 MOL     0.0480
     48 H          -7.5905  -11.7604   25.0288 H         1 MOL     0.0394
     49 H          -7.2214  -13.5918   22.8740 H         1 MOL     0.0273
     50 H          -8.6846  -13.5614   22.4911 H         1 MOL     0.0273
     51 H          -7.4691  -14.5238   25.2135 H         1 MOL     0.0273
     52 H          -8.9803  -14.6544   25.2356 H         1 MOL     0.0273
     53 H         -12.0381   -4.3598   27.8426 H         1 MOL     0.0646
     54 H         -13.0122   -5.8166   29.4980 H         1 MOL     0.0621
     55 H         -13.8314   -6.0678   33.5578 H         1 MOL     0.1921
@<TRIPOS>BOND
     1    1   17 am
     2    1   18 1 
     3    1   21 1 
     4    2   19 1 
     5    2   20 1 
     6    2   22 am
     7    3    4 ar
     8    3   12 ar
     9    4    5 ar
    10    4   55 1 
    11    5    6 ar
    12    5   29 2 
    13    6    7 ar
    14    6   11 ar
    15    7    8 ar
    16    7   33 1 
    17    8    9 ar
    18    8   34 1 
    19    9   10 ar
    20    9   35 1 
    21   10   11 ar
    22   10   36 1 
    23   11   12 ar
    24   12   13 1 
    25   13   14 1 
    26   13   37 1 
    27   13   38 1 
    28   14   15 ar
    29   14   28 ar
    30   15   16 ar
    31   15   39 1 
    32   16   17 1 
    33   16   26 ar
    34   17   31 2 
    35   18   19 1 
    36   18   40 1 
    37   18   41 1 
    38   19   42 1 
    39   19   43 1 
    40   20   21 1 
    41   20   44 1 
    42   20   45 1 
    43   21   46 1 
    44   21   47 1 
    45   22   23 1 
    46   22   30 2 
    47   23   24 1 
    48   23   25 1 
    49   23   48 1 
    50   24   25 1 
    51   24   49 1 
    52   24   50 1 
    53   25   51 1 
    54   25   52 1 
    55   26   27 ar
    56   26   32 1 
    57   27   28 ar
    58   27   53 1 
    59   28   54 1 
@<TRIPOS>SUBSTRUCTURE
1 MOL         1
@<TRIPOS>MOLECULE
query molecule
   55    59     1     0     0
SMALL
NO_CHARGE

@<TRIPOS>ATOM
      1 N         -10.6052    6.1552   -4.8828 N.am      1 MOL    -0.2945
      2 N         -12.1205    8.2467   -4.6038 N.am      1 MOL    -0.2983
      3 N          -8.8980    2.9667    1.2346 N.ar      1 MOL    -0.1750
      4 N          -8.5342    1.9621    1.9943 N.ar      1 MOL    -0.2425
      5 C          -7.4530    1.9931    2.7861 C.ar      1 MOL     0.2725
      6 C          -6.6791    3.1351    2.8080 C.ar      1 MOL     0.0496
      7 C          -5.5321    3.2133    3.5988 C.ar      1 MOL     0.0138
      8 C          -4.7623    4.3565    3.5885 C.ar      1 MOL     0.0008
      9 C          -5.1819    5.3856    2.7724 C.ar      1 MOL     0.0007
     10 C          -6.3175    5.3216    1.9823 C.ar      1 MOL     0.0103
     11 C          -7.0737    4.1868    2.0017 C.ar      1 MOL     0.0106
     12 C          -8.1833    4.1334    1.2015 C.ar      1 MOL     0.0736
     13 C          -8.7312    5.1945    0.3666 C.3       1 MOL     0.0925
     14 C          -8.3583    4.9841   -1.0596 C.ar      1 MOL    -0.0406
     15 C          -9.4215    5.0410   -1.9783 C.ar      1 MOL     0.0196
     16 C          -9.1787    4.8488   -3.3173 C.ar      1 MOL     0.0723
     17 C         -10.2771    4.8993   -4.3084 C.2       1 MOL     0.2495
     18 C         -11.6551    6.2430   -5.8457 C.3       1 MOL     0.1268
     19 C         -12.2994    7.6121   -5.8838 C.3       1 MOL     0.1265
     20 C         -10.7415    8.5155   -4.1816 C.3       1 MOL     0.1265
     21 C          -9.8580    7.3301   -4.4738 C.3       1 MOL     0.1268
     22 C         -13.1962    8.5987   -3.7834 C.2       1 MOL     0.2187
     23 C         -14.6198    8.3848   -4.0567 C.3       1 MOL     0.0752
     24 C         -15.4859    8.0547   -2.8621 C.3       1 MOL     0.0134
     25 C         -15.2384    7.0432   -3.8921 C.3       1 MOL     0.0134
     26 C          -7.9274    4.5982   -3.8286 C.ar      1 MOL     0.1355
     27 C          -6.8875    4.5426   -2.9284 C.ar      1 MOL     0.0392
     28 C          -7.1318    4.7373   -1.5614 C.ar      1 MOL     0.0066
     29 O          -7.0889    1.0407    3.5224 O.2       1 MOL    -0.2658
     30 O         -12.9298    9.1706   -2.6666 O.2       1 MOL    -0.2753
     31 O         -10.9163    3.8777   -4.6498 O.2       1 MOL    -0.2699
     32 F          -7.7379    4.4134   -5.1675 F         1 MOL    -0.2047
     33 H          -5.2599    2.4145    4.1928 H         1 MOL     0.0625
     34 H          -3.9109    4.4380    4.1645 H         1 MOL     0.0618
     35 H          -4.6192    6.2498    2.7488 H         1 MOL     0.0618
     36 H          -6.5884    6.1205    1.3875 H         1 MOL     0.0624
     37 H          -8.3455    6.1367    0.6961 H         1 MOL     0.0377
     38 H          -9.7982    5.1820    0.4483 H         1 MOL     0.0377
     39 H         -10.3812    5.2263   -1.6480 H         1 MOL     0.0629
     40 H         -12.4041    5.5181   -5.6026 H         1 MOL     0.0480
     41 H         -11.2259    6.0605   -6.8093 H         1 MOL     0.0480
     42 H         -13.3437    7.5119   -6.0929 H         1 MOL     0.0480
     43 H         -11.8452    8.2053   -6.6500 H         1 MOL     0.0480
     44 H         -10.7268    8.7139   -3.1304 H         1 MOL     0.0480
     45 H         -10.3724    9.3619   -4.7223 H         1 MOL     0.0480
     46 H          -9.3043    7.0904   -3.5900 H         1 MOL     0.0480
     47 H          -9.2165    7.6003   -5.2854 H         1 MOL     0.0480
     48 H         -14.6083    9.0989   -4.8531 H         1 MOL     0.0394
     49 H         -16.4565    8.4952   -2.7667 H         1 MOL     0.0273
     50 H         -15.3612    8.1016   -1.8004 H         1 MOL     0.0273
     51 H         -16.0337    6.7417   -4.5415 H         1 MOL     0.0273
     52 H         -14.8608    6.0429   -3.8802 H         1 MOL     0.0273
     53 H          -5.9274    4.3577   -3.2604 H         1 MOL     0.0646
     54 H          -6.3343    4.6901   -0.9076 H         1 MOL     0.0621
     55 H          -9.0830    1.1445    1.9831 H         1 MOL     0.1921
@<TRIPOS>BOND
     1    1   17 am
     2    1   18 1 
     3    1   21 1 
     4    2   19 1 
     5    2   20 1 
     6    2   22 am
     7    3    4 ar
     8    3   12 ar
     9    4    5 ar
    10    4   55 1 
    11    5    6 ar
    12    5   29 2 
    13    6    7 ar
    14    6   11 ar
    15    7    8 ar
    16    7   33 1 
    17    8    9 ar
    18    8   34 1 
    19    9   10 ar
    20    9   35 1 
    21   10   11 ar
    22   10   36 1 
    23   11   12 ar
    24   12   13 1 
    25   13   14 1 
    26   13   37 1 
    27   13   38 1 
    28   14   15 ar
    29   14   28 ar
    30   15   16 ar
    31   15   39 1 
    32   16   17 1 
    33   16   26 ar
    34   17   31 2 
    35   18   19 1 
    36   18   40 1 
    37   18   41 1 
    38   19   42 1 
    39   19   43 1 
    40   20   21 1 
    41   20   44 1 
    42   20   45 1 
    43   21   46 1 
    44   21   47 1 
    45   22   23 1 
    46   22   30 2 
    47   23   24 1 
    48   23   25 1 
    49   23   48 1 
    50   24   25 1 
    51   24   49 1 
    52   24   50 1 
    53   25   51 1 
    54   25   52 1 
    55   26   27 ar
    56   26   32 1 
    57   27   28 ar
    58   27   53 1 
    59   28   54 1 
@<TRIPOS>SUBSTRUCTURE
1 MOL         1
@<TRIPOS>MOLECULE
query molecule
   55    59     1     0     0
SMALL
NO_CHARGE

@<TRIPOS>ATOM
      1 N          44.4593  -16.2661   27.8794 N.am      1 MOL    -0.2945
      2 N          44.2382  -17.9138   29.8755 N.am      1 MOL    -0.2983
      3 N          41.8310  -17.8570   21.2491 N.ar      1 MOL    -0.1750
      4 N          40.9801  -18.2556   20.3349 N.ar      1 MOL    -0.2425
      5 C          40.3431  -17.4153   19.5073 C.ar      1 MOL     0.2725
      6 C          40.5896  -16.0621   19.6168 C.ar      1 MOL     0.0496
      7 C          39.9387  -15.1422   18.7939 C.ar      1 MOL     0.0138
      8 C          40.1845  -13.7935   18.9355 C.ar      1 MOL     0.0008
      9 C          41.0843  -13.4210   19.9116 C.ar      1 MOL     0.0007
     10 C          41.7371  -14.3228   20.7353 C.ar      1 MOL     0.0103
     11 C          41.4887  -15.6553   20.5852 C.ar      1 MOL     0.0106
     12 C          42.1290  -16.5321   21.4194 C.ar      1 MOL     0.0736
     13 C          43.1393  -16.2288   22.4246 C.3       1 MOL     0.0925
     14 C          42.5087  -16.0381   23.7599 C.ar      1 MOL    -0.0406
     15 C          43.3919  -15.7190   24.8068 C.ar      1 MOL     0.0196
     16 C          42.9056  -15.5339   26.0788 C.ar      1 MOL     0.0723
     17 C          43.8102  -15.2007   27.2022 C.2       1 MOL     0.2495
     18 C          45.3426  -15.9841   28.9644 C.3       1 MOL     0.1268
     19 C          45.4439  -17.1302   29.9479 C.3       1 MOL     0.1265
     20 C          43.9467  -18.5694   28.5960 C.3       1 MOL     0.1265
     21 C          44.2072  -17.6285   27.4479 C.3       1 MOL     0.1268
     22 C          43.3693  -18.0568   30.9613 C.2       1 MOL     0.2187
     23 C          43.5139  -17.4574   32.2905 C.3       1 MOL     0.0752
     24 C          44.7574  -17.8378   33.0620 C.3       1 MOL     0.0134
     25 C          43.4418  -18.2913   33.5190 C.3       1 MOL     0.0134
     26 C          41.5735  -15.6434   26.4003 C.ar      1 MOL     0.1355
     27 C          40.7099  -15.9557   25.3749 C.ar      1 MOL     0.0392
     28 C          41.2028  -16.1463   24.0760 C.ar      1 MOL     0.0066
     29 O          39.5250  -17.7784   18.6238 O.2       1 MOL    -0.2658
     30 O          42.3273  -18.7864   30.7967 O.2       1 MOL    -0.2753
     31 O          44.0161  -14.0202   27.5665 O.2       1 MOL    -0.2699
     32 F          41.1398  -15.4507   27.6800 F         1 MOL    -0.2047
     33 H          39.2728  -15.4719   18.0777 H         1 MOL     0.0625
     34 H          39.7162  -13.0948   18.3390 H         1 MOL     0.0618
     35 H          41.2817  -12.4161   20.0351 H         1 MOL     0.0618
     36 H          42.4020  -13.9922   21.4522 H         1 MOL     0.0624
     37 H          43.6544  -15.3328   22.1472 H         1 MOL     0.0377
     38 H          43.8257  -17.0479   22.4824 H         1 MOL     0.0377
     39 H          44.4023  -15.6245   24.6204 H         1 MOL     0.0629
     40 H          44.9838  -15.1188   29.4820 H         1 MOL     0.0480
     41 H          46.3180  -15.8232   28.5536 H         1 MOL     0.0480
     42 H          45.5632  -16.7442   30.9384 H         1 MOL     0.0480
     43 H          46.2891  -17.7410   29.7070 H         1 MOL     0.0480
     44 H          42.9197  -18.8687   28.5788 H         1 MOL     0.0480
     45 H          44.5821  -19.4240   28.4919 H         1 MOL     0.0480
     46 H          43.3518  -17.6288   26.8049 H         1 MOL     0.0480
     47 H          45.0851  -17.9725   26.9438 H         1 MOL     0.0480
     48 H          43.0196  -16.5620   31.9770 H         1 MOL     0.0394
     49 H          45.2905  -17.0950   33.6180 H         1 MOL     0.0273
     50 H          45.6821  -18.3180   32.8184 H         1 MOL     0.0273
     51 H          43.0215  -17.8828   34.4142 H         1 MOL     0.0273
     52 H          43.0204  -19.2465   33.7497 H         1 MOL     0.0273
     53 H          39.6988  -16.0494   25.5626 H         1 MOL     0.0646
     54 H          40.5338  -16.3801   23.3254 H         1 MOL     0.0621
     55 H          40.8004  -19.2203   20.2519 H         1 MOL     0.1921
@<TRIPOS>BOND
     1    1   17 am
     2    1   18 1 
     3    1   21 1 
     4    2   19 1 
     5    2   20 1 
     6    2   22 am
     7    3    4 ar
     8    3   12 ar
     9    4    5 ar
    10    4   55 1 
    11    5    6 ar
    12    5   29 2 
    13    6    7 ar
    14    6   11 ar
    15    7    8 ar
    16    7   33 1 
    17    8    9 ar
    18    8   34 1 
    19    9   10 ar
    20    9   35 1 
    21   10   11 ar
    22   10   36 1 
    23   11   12 ar
    24   12   13 1 
    25   13   14 1 
    26   13   37 1 
    27   13   38 1 
    28   14   15 ar
    29   14   28 ar
    30   15   16 ar
    31   15   39 1 
    32   16   17 1 
    33   16   26 ar
    34   17   31 2 
    35   18   19 1 
    36   18   40 1 
    37   18   41 1 
    38   19   42 1 
    39   19   43 1 
    40   20   21 1 
    41   20   44 1 
    42   20   45 1 
    43   21   46 1 
    44   21   47 1 
    45   22   23 1 
    46   22   30 2 
    47   23   24 1 
    48   23   25 1 
    49   23   48 1 
    50   24   25 1 
    51   24   49 1 
    52   24   50 1 
    53   25   51 1 
    54   25   52 1 
    55   26   27 ar
    56   26   32 1 
    57   27   28 ar
    58   27   53 1 
    59   28   54 1 
@<TRIPOS>SUBSTRUCTURE
1 MOL         1
@<TRIPOS>MOLECULE
query molecule
   55    59     1     0     0
SMALL
NO_CHARGE

@<TRIPOS>ATOM
      1 N          25.5018   -3.8578   41.1769 N.am      1 MOL    -0.2945
      2 N          23.5190   -3.0022   39.7330 N.am      1 MOL    -0.2983
      3 N          30.3137   -3.3301   40.7633 N.ar      1 MOL    -0.1750
      4 N          30.6025   -3.6786   39.5329 N.ar      1 MOL    -0.2425
      5 C          31.8127   -3.5031   38.9840 C.ar      1 MOL     0.2725
      6 C          32.8093   -2.9274   39.7450 C.ar      1 MOL     0.0496
      7 C          34.0812   -2.7034   39.2165 C.ar      1 MOL     0.0138
      8 C          35.0550   -2.1072   39.9883 C.ar      1 MOL     0.0008
      9 C          34.7049   -1.7553   41.2747 C.ar      1 MOL     0.0007
     10 C          33.4469   -1.9712   41.8120 C.ar      1 MOL     0.0103
     11 C          32.4912   -2.5642   41.0406 C.ar      1 MOL     0.0106
     12 C          31.2478   -2.7543   41.5813 C.ar      1 MOL     0.0736
     13 C          30.8175   -2.4757   42.9452 C.3       1 MOL     0.0925
     14 C          29.3939   -2.0395   42.9664 C.ar      1 MOL    -0.0406
     15 C          28.4468   -3.0516   42.7293 C.ar      1 MOL     0.0196
     16 C          27.1071   -2.7451   42.7186 C.ar      1 MOL     0.0723
     17 C          26.0863   -3.7875   42.4685 C.2       1 MOL     0.2495
     18 C          24.5175   -4.8525   40.8962 C.3       1 MOL     0.1268
     19 C          23.5690   -4.4400   39.7911 C.3       1 MOL     0.1265
     20 C          24.7681   -2.3058   39.4065 C.3       1 MOL     0.1265
     21 C          25.9235   -2.9084   40.1636 C.3       1 MOL     0.1268
     22 C          22.3457   -2.2815   39.9740 C.2       1 MOL     0.2187
     23 C          21.0318   -2.8280   40.3232 C.3       1 MOL     0.0752
     24 C          21.0063   -3.8335   41.4521 C.3       1 MOL     0.0134
     25 C          20.7085   -4.2588   40.0825 C.3       1 MOL     0.0134
     26 C          26.6219   -1.4766   42.9318 C.ar      1 MOL     0.1355
     27 C          27.5500   -0.4867   43.1638 C.ar      1 MOL     0.0392
     28 C          28.9177   -0.7957   43.1744 C.ar      1 MOL     0.0066
     29 O          32.1091   -3.8318   37.8068 O.2       1 MOL    -0.2658
     30 O          22.4046   -1.0032   39.8860 O.2       1 MOL    -0.2753
     31 O          25.7290   -4.5985   43.3536 O.2       1 MOL    -0.2699
     32 F          25.2811   -1.2227   42.9105 F         1 MOL    -0.2047
     33 H          34.2934   -2.9850   38.2466 H         1 MOL     0.0625
     34 H          36.0021   -1.9319   39.6202 H         1 MOL     0.0618
     35 H          35.4188   -1.3066   41.8690 H         1 MOL     0.0618
     36 H          33.2351   -1.6882   42.7817 H         1 MOL     0.0624
     37 H          31.4296   -1.7002   43.3562 H         1 MOL     0.0377
     38 H          30.9119   -3.3694   43.5264 H         1 MOL     0.0377
     39 H          28.7568   -4.0216   42.5634 H         1 MOL     0.0629
     40 H          23.9500   -5.0331   41.7855 H         1 MOL     0.0480
     41 H          25.0316   -5.7329   40.5695 H         1 MOL     0.0480
     42 H          22.5922   -4.8262   39.9933 H         1 MOL     0.0480
     43 H          23.9117   -4.8296   38.8551 H         1 MOL     0.0480
     44 H          24.6756   -1.2731   39.6704 H         1 MOL     0.0480
     45 H          24.9552   -2.4035   38.3575 H         1 MOL     0.0480
     46 H          26.4673   -2.1203   40.6413 H         1 MOL     0.0480
     47 H          26.5272   -3.4392   39.4587 H         1 MOL     0.0480
     48 H          20.5455   -1.9094   40.0699 H         1 MOL     0.0394
     49 H          20.2256   -3.7977   42.1832 H         1 MOL     0.0273
     50 H          21.6987   -4.1411   42.2077 H         1 MOL     0.0273
     51 H          19.7103   -4.5410   39.8199 H         1 MOL     0.0273
     52 H          21.0991   -5.0140   39.4341 H         1 MOL     0.0273
     53 H          27.2383    0.4836   43.3303 H         1 MOL     0.0646
     54 H          29.5925   -0.0347   43.3504 H         1 MOL     0.0621
     55 H          29.8952   -4.0903   38.9851 H         1 MOL     0.1921
@<TRIPOS>BOND
     1    1   17 am
     2    1   18 1 
     3    1   21 1 
     4    2   19 1 
     5    2   20 1 
     6    2   22 am
     7    3    4 ar
     8    3   12 ar
     9    4    5 ar
    10    4   55 1 
    11    5    6 ar
    12    5   29 2 
    13    6    7 ar
    14    6   11 ar
    15    7    8 ar
    16    7   33 1 
    17    8    9 ar
    18    8   34 1 
    19    9   10 ar
    20    9   35 1 
    21   10   11 ar
    22   10   36 1 
    23   11   12 ar
    24   12   13 1 
    25   13   14 1 
    26   13   37 1 
    27   13   38 1 
    28   14   15 ar
    29   14   28 ar
    30   15   16 ar
    31   15   39 1 
    32   16   17 1 
    33   16   26 ar
    34   17   31 2 
    35   18   19 1 
    36   18   40 1 
    37   18   41 1 
    38   19   42 1 
    39   19   43 1 
    40   20   21 1 
    41   20   44 1 
    42   20   45 1 
    43   21   46 1 
    44   21   47 1 
    45   22   23 1 
    46   22   30 2 
    47   23   24 1 
    48   23   25 1 
    49   23   48 1 
    50   24   25 1 
    51   24   49 1 
    52   24   50 1 
    53   25   51 1 
    54   25   52 1 
    55   26   27 ar
    56   26   32 1 
    57   27   28 ar
    58   27   53 1 
    59   28   54 1 
@<TRIPOS>SUBSTRUCTURE
1 MOL         1
@<TRIPOS>MOLECULE
query molecule
   55    59     1     0     0
SMALL
NO_CHARGE

@<TRIPOS>ATOM
      1 N          38.9988   14.9067   35.0900 N.am      1 MOL    -0.2945
      2 N          36.6098   14.4279   35.9911 N.am      1 MOL    -0.2983
      3 N          39.4079   10.1247   36.9126 N.ar      1 MOL    -0.1750
      4 N          39.2231   10.0249   38.2066 N.ar      1 MOL    -0.2425
      5 C          40.0640    9.3718   39.0210 C.ar      1 MOL     0.2725
      6 C          41.1816    8.7719   38.4782 C.ar      1 MOL     0.0496
      7 C          42.0788    8.0626   39.2776 C.ar      1 MOL     0.0138
      8 C          43.1772    7.4533   38.7103 C.ar      1 MOL     0.0008
      9 C          43.3289    7.5826   37.3460 C.ar      1 MOL     0.0007
     10 C          42.4465    8.2830   36.5406 C.ar      1 MOL     0.0103
     11 C          41.3642    8.8844   37.1122 C.ar      1 MOL     0.0106
     12 C          40.4923    9.5579   36.2994 C.ar      1 MOL     0.0736
     13 C          40.6145    9.7986   34.8675 C.3       1 MOL     0.0925
     14 C          41.2385   11.1260   34.6110 C.ar      1 MOL    -0.0406
     15 C          40.3409   12.1975   34.4569 C.ar      1 MOL     0.0196
     16 C          40.8211   13.4607   34.2065 C.ar      1 MOL     0.0723
     17 C          39.9016   14.6083   34.0361 C.2       1 MOL     0.2495
     18 C          38.1003   16.0085   34.9644 C.3       1 MOL     0.1268
     19 C          36.8438   15.8343   35.7902 C.3       1 MOL     0.1265
     20 C          37.6304   13.6837   36.7371 C.3       1 MOL     0.1265
     21 C          39.0117   14.0772   36.2806 C.3       1 MOL     0.1268
     22 C          35.4704   13.7795   35.5057 C.2       1 MOL     0.2187
     23 C          34.3764   14.3779   34.7363 C.3       1 MOL     0.0752
     24 C          33.1047   14.6686   35.5006 C.3       1 MOL     0.0134
     25 C          33.1224   13.6241   34.4740 C.3       1 MOL     0.0134
     26 C          42.1604   13.7501   34.0950 C.ar      1 MOL     0.1355
     27 C          43.0381   12.7004   34.2460 C.ar      1 MOL     0.0392
     28 C          42.5515   11.4102   34.5005 C.ar      1 MOL     0.0066
     29 O          39.9045    9.2664   40.2641 O.2       1 MOL    -0.2658
     30 O          35.3512   12.5257   35.7486 O.2       1 MOL    -0.2753
     31 O          39.8987   15.3140   33.0013 O.2       1 MOL    -0.2699
     32 F          42.5875   15.0219   33.8447 F         1 MOL    -0.2047
     33 H          41.9203    7.9946   40.2951 H         1 MOL     0.0625
     34 H          43.8543    6.9242   39.2804 H         1 MOL     0.0618
     35 H          44.1438    7.1330   36.9011 H         1 MOL     0.0618
     36 H          42.6051    8.3496   35.5229 H         1 MOL     0.0624
     37 H          39.6419    9.7747   34.4220 H         1 MOL     0.0377
     38 H          41.2358    9.0385   34.4414 H         1 MOL     0.0377
     39 H          39.3246   12.0358   34.5313 H         1 MOL     0.0629
     40 H          37.8232   16.1088   33.9355 H         1 MOL     0.0480
     41 H          38.6059   16.8806   35.3248 H         1 MOL     0.0480
     42 H          36.0123   16.2674   35.2750 H         1 MOL     0.0480
     43 H          36.9610   16.3217   36.7358 H         1 MOL     0.0480
     44 H          37.4919   12.6354   36.5744 H         1 MOL     0.0480
     45 H          37.5336   13.9117   37.7781 H         1 MOL     0.0480
     46 H          39.5681   13.1878   36.0695 H         1 MOL     0.0480
     47 H          39.4580   14.6500   37.0654 H         1 MOL     0.0480
     48 H          35.0627   14.9084   34.1101 H         1 MOL     0.0394
     49 H          32.5726   15.5808   35.3271 H         1 MOL     0.0273
     50 H          32.8359   14.7097   36.5355 H         1 MOL     0.0273
     51 H          32.5947   13.7743   33.5553 H         1 MOL     0.0273
     52 H          32.8634   12.5868   34.4602 H         1 MOL     0.0273
     53 H          44.0550   12.8638   34.1719 H         1 MOL     0.0646
     54 H          43.2312   10.6408   34.6092 H         1 MOL     0.0621
     55 H          38.4273   10.4514   38.5997 H         1 MOL     0.1921
@<TRIPOS>BOND
     1    1   17 am
     2    1   18 1 
     3    1   21 1 
     4    2   19 1 
     5    2   20 1 
     6    2   22 am
     7    3    4 ar
     8    3   12 ar
     9    4    5 ar
    10    4   55 1 
    11    5    6 ar
    12    5   29 2 
    13    6    7 ar
    14    6   11 ar
    15    7    8 ar
    16    7   33 1 
    17    8    9 ar
    18    8   34 1 
    19    9   10 ar
    20    9   35 1 
    21   10   11 ar
    22   10   36 1 
    23   11   12 ar
    24   12   13 1 
    25   13   14 1 
    26   13   37 1 
    27   13   38 1 
    28   14   15 ar
    29   14   28 ar
    30   15   16 ar
    31   15   39 1 
    32   16   17 1 
    33   16   26 ar
    34   17   31 2 
    35   18   19 1 
    36   18   40 1 
    37   18   41 1 
    38   19   42 1 
    39   19   43 1 
    40   20   21 1 
    41   20   44 1 
    42   20   45 1 
    43   21   46 1 
    44   21   47 1 
    45   22   23 1 
    46   22   30 2 
    47   23   24 1 
    48   23   25 1 
    49   23   48 1 
    50   24   25 1 
    51   24   49 1 
    52   24   50 1 
    53   25   51 1 
    54   25   52 1 
    55   26   27 ar
    56   26   32 1 
    57   27   28 ar
    58   27   53 1 
    59   28   54 1 
@<TRIPOS>SUBSTRUCTURE
1 MOL         1
@<TRIPOS>MOLECULE
query molecule
   55    59     1     0     0
SMALL
NO_CHARGE

@<TRIPOS>ATOM
      1 N          31.1333   14.0536   21.9300 N.am      1 MOL    -0.2945
      2 N          30.4307   11.5963   21.4646 N.am      1 MOL    -0.2983
      3 N          35.1191   14.8036   16.4447 N.ar      1 MOL    -0.1750
      4 N          34.8822   14.3054   15.2555 N.ar      1 MOL    -0.2425
      5 C          34.3854   13.0759   15.0592 C.ar      1 MOL     0.2725
      6 C          34.1073   12.2894   16.1582 C.ar      1 MOL     0.0496
      7 C          33.6079   10.9949   16.0101 C.ar      1 MOL     0.0138
      8 C          33.3575   10.2194   17.1216 C.ar      1 MOL     0.0008
      9 C          33.6245   10.7840   18.3509 C.ar      1 MOL     0.0007
     10 C          34.1205   12.0669   18.5127 C.ar      1 MOL     0.0103
     11 C          34.3623   12.8268   17.4064 C.ar      1 MOL     0.0106
     12 C          34.8690   14.0864   17.5832 C.ar      1 MOL     0.0736
     13 C          35.1137   14.7794   18.8413 C.3       1 MOL     0.0925
     14 C          33.9701   15.6713   19.1790 C.ar      1 MOL    -0.0406
     15 C          33.0587   15.1579   20.1189 C.ar      1 MOL     0.0196
     16 C          31.9643   15.9030   20.4874 C.ar      1 MOL     0.0723
     17 C          30.9854   15.3888   21.4715 C.2       1 MOL     0.2495
     18 C          30.2118   13.5238   22.8826 C.3       1 MOL     0.1268
     19 C          30.0849   12.0180   22.7972 C.3       1 MOL     0.1265
     20 C          31.8023   11.8624   21.0176 C.3       1 MOL     0.1265
     21 C          32.2281   13.2524   21.4149 C.3       1 MOL     0.1268
     22 C          29.5177   10.9618   20.6172 C.2       1 MOL     0.2187
     23 C          28.1184   10.6414   20.9110 C.3       1 MOL     0.0752
     24 C          27.5879    9.3588   20.3115 C.3       1 MOL     0.0134
     25 C          27.0886   10.6521   19.8390 C.3       1 MOL     0.0134
     26 C          31.6981   17.1532   19.9813 C.ar      1 MOL     0.1355
     27 C          32.5908   17.6548   19.0613 C.ar      1 MOL     0.0392
     28 C          33.7080   16.8967   18.6824 C.ar      1 MOL     0.0066
     29 O          34.1503   12.5812   13.9271 O.2       1 MOL    -0.2658
     30 O          29.9291   10.6154   19.4527 O.2       1 MOL    -0.2753
     31 O          30.0427   16.0903   21.9052 O.2       1 MOL    -0.2699
     32 F          30.5964   17.8538   20.3789 F         1 MOL    -0.2047
     33 H          33.4249   10.6176   15.0671 H         1 MOL     0.0625
     34 H          32.9880    9.2604   17.0376 H         1 MOL     0.0618
     35 H          33.4454   10.2200   19.1959 H         1 MOL     0.0618
     36 H          34.3043   12.4431   19.4561 H         1 MOL     0.0624
     37 H          36.0039   15.3666   18.7528 H         1 MOL     0.0377
     38 H          35.2249   14.0533   19.6196 H         1 MOL     0.0377
     39 H          33.2111   14.2241   20.5306 H         1 MOL     0.0629
     40 H          29.2501   13.9595   22.7075 H         1 MOL     0.0480
     41 H          30.5825   13.7625   23.8581 H         1 MOL     0.0480
     42 H          29.0785   11.7293   23.0161 H         1 MOL     0.0480
     43 H          30.7421   11.5580   23.5057 H         1 MOL     0.0480
     44 H          31.8502   11.7712   19.9527 H         1 MOL     0.0480
     45 H          32.4602   11.1556   21.4787 H         1 MOL     0.0480
     46 H          32.6345   13.7440   20.5556 H         1 MOL     0.0480
     47 H          32.9501   13.1555   22.1975 H         1 MOL     0.0480
     48 H          28.1822   11.0970   21.8768 H         1 MOL     0.0394
     49 H          26.9543    8.7194   20.8904 H         1 MOL     0.0273
     50 H          28.0283    8.5009   19.8477 H         1 MOL     0.0273
     51 H          26.0866   10.9497   20.0680 H         1 MOL     0.0273
     52 H          27.0141   11.1178   18.8794 H         1 MOL     0.0273
     53 H          32.4375   18.5896   18.6506 H         1 MOL     0.0646
     54 H          34.3616   17.2960   17.9904 H         1 MOL     0.0621
     55 H          35.0784   14.8623   14.4674 H         1 MOL     0.1921
@<TRIPOS>BOND
     1    1   17 am
     2    1   18 1 
     3    1   21 1 
     4    2   19 1 
     5    2   20 1 
     6    2   22 am
     7    3    4 ar
     8    3   12 ar
     9    4    5 ar
    10    4   55 1 
    11    5    6 ar
    12    5   29 2 
    13    6    7 ar
    14    6   11 ar
    15    7    8 ar
    16    7   33 1 
    17    8    9 ar
    18    8   34 1 
    19    9   10 ar
    20    9   35 1 
    21   10   11 ar
    22   10   36 1 
    23   11   12 ar
    24   12   13 1 
    25   13   14 1 
    26   13   37 1 
    27   13   38 1 
    28   14   15 ar
    29   14   28 ar
    30   15   16 ar
    31   15   39 1 
    32   16   17 1 
    33   16   26 ar
    34   17   31 2 
    35   18   19 1 
    36   18   40 1 
    37   18   41 1 
    38   19   42 1 
    39   19   43 1 
    40   20   21 1 
    41   20   44 1 
    42   20   45 1 
    43   21   46 1 
    44   21   47 1 
    45   22   23 1 
    46   22   30 2 
    47   23   24 1 
    48   23   25 1 
    49   23   48 1 
    50   24   25 1 
    51   24   49 1 
    52   24   50 1 
    53   25   51 1 
    54   25   52 1 
    55   26   27 ar
    56   26   32 1 
    57   27   28 ar
    58   27   53 1 
    59   28   54 1 
@<TRIPOS>SUBSTRUCTURE
1 MOL         1
@<TRIPOS>MOLECULE
query molecule
   55    59     1     0     0
SMALL
NO_CHARGE

@<TRIPOS>ATOM
      1 N          -5.1284   10.6864   10.0082 N.am      1 MOL    -0.2945
      2 N          -6.9733   11.7996    8.5572 N.am      1 MOL    -0.2983
      3 N           0.8346   10.6657    5.5542 N.ar      1 MOL    -0.1750
      4 N           2.1217   10.6769    5.3056 N.ar      1 MOL    -0.2425
      5 C           2.9063    9.5987    5.4431 C.ar      1 MOL     0.2725
      6 C           2.3388    8.4148    5.8671 C.ar      1 MOL     0.0496
      7 C           3.1132    7.2678    6.0461 C.ar      1 MOL     0.0138
      8 C           2.5285    6.1018    6.4911 C.ar      1 MOL     0.0008
      9 C           1.1732    6.1382    6.7422 C.ar      1 MOL     0.0007
     10 C           0.3927    7.2690    6.5693 C.ar      1 MOL     0.0103
     11 C           0.9806    8.4170    6.1262 C.ar      1 MOL     0.0106
     12 C           0.1980    9.5305    5.9775 C.ar      1 MOL     0.0736
     13 C          -1.2445    9.6354    6.1543 C.3       1 MOL     0.0925
     14 C          -1.6382    9.1935    7.5207 C.ar      1 MOL    -0.0406
     15 C          -2.4624   10.0842    8.2313 C.ar      1 MOL     0.0196
     16 C          -2.8704    9.7693    9.5053 C.ar      1 MOL     0.0723
     17 C          -3.7352   10.6876   10.2801 C.2       1 MOL     0.2495
     18 C          -5.9949   11.5545   10.7381 C.3       1 MOL     0.1268
     19 C          -7.2461   11.9145    9.9662 C.3       1 MOL     0.1265
     20 C          -6.6177   10.4680    8.0548 C.3       1 MOL     0.1265
     21 C          -5.6426    9.7943    8.9857 C.3       1 MOL     0.1268
     22 C          -7.0370   12.8930    7.6885 C.2       1 MOL     0.2187
     23 C          -7.3615   14.2785    8.0382 C.3       1 MOL     0.0752
     24 C          -7.5631   14.5654    9.5089 C.3       1 MOL     0.0134
     25 C          -8.6965   14.6384    8.5841 C.3       1 MOL     0.0134
     26 C          -2.5140    8.6061   10.1455 C.ar      1 MOL     0.1355
     27 C          -1.7072    7.7350    9.4490 C.ar      1 MOL     0.0392
     28 C          -1.2883    8.0536    8.1493 C.ar      1 MOL     0.0066
     29 O           4.1419    9.5894    5.2085 O.2       1 MOL    -0.2658
     30 O          -6.7871   12.6823    6.4482 O.2       1 MOL    -0.2753
     31 O          -3.2774   11.4552   11.1576 O.2       1 MOL    -0.2699
     32 F          -2.9449    8.3394   11.4128 F         1 MOL    -0.2047
     33 H           4.1250    7.2923    5.8445 H         1 MOL     0.0625
     34 H           3.0798    5.2416    6.6304 H         1 MOL     0.0618
     35 H           0.7160    5.2763    7.0773 H         1 MOL     0.0618
     36 H          -0.6190    7.2441    6.7723 H         1 MOL     0.0624
     37 H          -1.7340    9.0183    5.4299 H         1 MOL     0.0377
     38 H          -1.5346   10.6576    6.0267 H         1 MOL     0.0377
     39 H          -2.7597   10.9719    7.7975 H         1 MOL     0.0629
     40 H          -5.4633   12.4544   10.9685 H         1 MOL     0.0480
     41 H          -6.2992   11.0369   11.6244 H         1 MOL     0.0480
     42 H          -7.5338   12.9187   10.1964 H         1 MOL     0.0480
     43 H          -8.0423   11.2524   10.2372 H         1 MOL     0.0480
     44 H          -6.1710   10.5637    7.0874 H         1 MOL     0.0480
     45 H          -7.5045    9.8722    7.9948 H         1 MOL     0.0480
     46 H          -4.8191    9.4262    8.4100 H         1 MOL     0.0480
     47 H          -6.1661    9.0055    9.4826 H         1 MOL     0.0480
     48 H          -6.7684   14.6559    7.2318 H         1 MOL     0.0394
     49 H          -7.1646   15.4607    9.9391 H         1 MOL     0.0273
     50 H          -7.3591   14.0390   10.4179 H         1 MOL     0.0273
     51 H          -9.1283   15.5886    8.3482 H         1 MOL     0.0273
     52 H          -9.6638   14.1840    8.5520 H         1 MOL     0.0273
     53 H          -1.4109    6.8467    9.8841 H         1 MOL     0.0646
     54 H          -0.6834    7.3830    7.6493 H         1 MOL     0.0621
     55 H           2.5323   11.5190    5.0023 H         1 MOL     0.1921
@<TRIPOS>BOND
     1    1   17 am
     2    1   18 1 
     3    1   21 1 
     4    2   19 1 
     5    2   20 1 
     6    2   22 am
     7    3    4 ar
     8    3   12 ar
     9    4    5 ar
    10    4   55 1 
    11    5    6 ar
    12    5   29 2 
    13    6    7 ar
    14    6   11 ar
    15    7    8 ar
    16    7   33 1 
    17    8    9 ar
    18    8   34 1 
    19    9   10 ar
    20    9   35 1 
    21   10   11 ar
    22   10   36 1 
    23   11   12 ar
    24   12   13 1 
    25   13   14 1 
    26   13   37 1 
    27   13   38 1 
    28   14   15 ar
    29   14   28 ar
    30   15   16 ar
    31   15   39 1 
    32   16   17 1 
    33   16   26 ar
    34   17   31 2 
    35   18   19 1 
    36   18   40 1 
    37   18   41 1 
    38   19   42 1 
    39   19   43 1 
    40   20   21 1 
    41   20   44 1 
    42   20   45 1 
    43   21   46 1 
    44   21   47 1 
    45   22   23 1 
    46   22   30 2 
    47   23   24 1 
    48   23   25 1 
    49   23   48 1 
    50   24   25 1 
    51   24   49 1 
    52   24   50 1 
    53   25   51 1 
    54   25   52 1 
    55   26   27 ar
    56   26   32 1 
    57   27   28 ar
    58   27   53 1 
    59   28   54 1 
@<TRIPOS>SUBSTRUCTURE
1 MOL         1
@<TRIPOS>MOLECULE
query molecule
   55    59     1     0     0
SMALL
NO_CHARGE

@<TRIPOS>ATOM
      1 N          36.3769  -13.6479   -0.5938 N.am      1 MOL    -0.2945
      2 N          36.4555  -13.4107    1.9919 N.am      1 MOL    -0.2983
      3 N          42.1435  -13.6403    0.5514 N.ar      1 MOL    -0.1750
      4 N          42.0148  -13.4703    1.8449 N.ar      1 MOL    -0.2425
      5 C          41.3474  -12.4427    2.3885 C.ar      1 MOL     0.2725
      6 C          40.7642  -11.5133    1.5520 C.ar      1 MOL     0.0496
      7 C          40.0750  -10.4139    2.0652 C.ar      1 MOL     0.0138
      8 C          39.5188   -9.4866    1.2106 C.ar      1 MOL     0.0008
      9 C          39.6818   -9.7051   -0.1410 C.ar      1 MOL     0.0007
     10 C          40.3634  -10.7912   -0.6642 C.ar      1 MOL     0.0103
     11 C          40.9078  -11.7043    0.1901 C.ar      1 MOL     0.0106
     12 C          41.5934  -12.7627   -0.3433 C.ar      1 MOL     0.0736
     13 C          41.7528  -13.1021   -1.7512 C.3       1 MOL     0.0925
     14 C          40.4425  -13.0417   -2.4561 C.ar      1 MOL    -0.0406
     15 C          39.3687  -13.6616   -1.7926 C.ar      1 MOL     0.0196
     16 C          38.1210  -13.6675   -2.3687 C.ar      1 MOL     0.0723
     17 C          36.9716  -14.3147   -1.6969 C.2       1 MOL     0.2495
     18 C          35.2638  -14.2383    0.0765 C.3       1 MOL     0.1268
     19 C          35.1515  -13.7986    1.5205 C.3       1 MOL     0.1265
     20 C          37.0928  -12.2713    1.3229 C.3       1 MOL     0.1265
     21 C          36.9198  -12.3703   -0.1709 C.3       1 MOL     0.1268
     22 C          37.1044  -14.0750    3.0368 C.2       1 MOL     0.2187
     23 C          36.6081  -15.2300    3.7896 C.3       1 MOL     0.0752
     24 C          37.4997  -16.4511    3.8020 C.3       1 MOL     0.0134
     25 C          36.2166  -16.4855    3.0966 C.3       1 MOL     0.0134
     26 C          37.8496  -13.0888   -3.5858 C.ar      1 MOL     0.1355
     27 C          38.9014  -12.4823   -4.2345 C.ar      1 MOL     0.0392
     28 C          40.1760  -12.4754   -3.6499 C.ar      1 MOL     0.0066
     29 O          41.2121  -12.2634    3.6260 O.2       1 MOL    -0.2658
     30 O          38.2597  -13.6433    3.3891 O.2       1 MOL    -0.2753
     31 O          36.5154  -15.4198   -2.0702 O.2       1 MOL    -0.2699
     32 F          36.5926  -13.1219   -4.1166 F         1 MOL    -0.2047
     33 H          39.9810  -10.2951    3.0860 H         1 MOL     0.0625
     34 H          39.0047   -8.6665    1.5661 H         1 MOL     0.0618
     35 H          39.2743   -9.0222   -0.7980 H         1 MOL     0.0618
     36 H          40.4580  -10.9088   -1.6852 H         1 MOL     0.0624
     37 H          42.1508  -14.0921   -1.8321 H         1 MOL     0.0377
     38 H          42.4191  -12.3970   -2.2031 H         1 MOL     0.0377
     39 H          39.5173  -14.1112   -0.8759 H         1 MOL     0.0629
     40 H          35.3731  -15.3027    0.0497 H         1 MOL     0.0480
     41 H          34.3757  -13.9191   -0.4289 H         1 MOL     0.0480
     42 H          34.7800  -14.6070    2.1143 H         1 MOL     0.0480
     43 H          34.4770  -12.9711    1.5960 H         1 MOL     0.0480
     44 H          38.1370  -12.2645    1.5558 H         1 MOL     0.0480
     45 H          36.6325  -11.3676    1.6639 H         1 MOL     0.0480
     46 H          37.8745  -12.2360   -0.6352 H         1 MOL     0.0480
     47 H          36.2237  -11.6136   -0.4642 H         1 MOL     0.0480
     48 H          36.1207  -14.5982    4.5021 H         1 MOL     0.0394
     49 H          37.6292  -17.0101    4.7053 H         1 MOL     0.0273
     50 H          38.5170  -16.6484    3.5351 H         1 MOL     0.0273
     51 H          35.4141  -17.0779    3.4839 H         1 MOL     0.0273
     52 H          35.9204  -16.7262    2.0978 H         1 MOL     0.0273
     53 H          38.7512  -12.0322   -5.1516 H         1 MOL     0.0646
     54 H          40.9474  -12.0140   -4.1576 H         1 MOL     0.0621
     55 H          42.4287  -14.1306    2.4470 H         1 MOL     0.1921
@<TRIPOS>BOND
     1    1   17 am
     2    1   18 1 
     3    1   21 1 
     4    2   19 1 
     5    2   20 1 
     6    2   22 am
     7    3    4 ar
     8    3   12 ar
     9    4    5 ar
    10    4   55 1 
    11    5    6 ar
    12    5   29 2 
    13    6    7 ar
    14    6   11 ar
    15    7    8 ar
    16    7   33 1 
    17    8    9 ar
    18    8   34 1 
    19    9   10 ar
    20    9   35 1 
    21   10   11 ar
    22   10   36 1 
    23   11   12 ar
    24   12   13 1 
    25   13   14 1 
    26   13   37 1 
    27   13   38 1 
    28   14   15 ar
    29   14   28 ar
    30   15   16 ar
    31   15   39 1 
    32   16   17 1 
    33   16   26 ar
    34   17   31 2 
    35   18   19 1 
    36   18   40 1 
    37   18   41 1 
    38   19   42 1 
    39   19   43 1 
    40   20   21 1 
    41   20   44 1 
    42   20   45 1 
    43   21   46 1 
    44   21   47 1 
    45   22   23 1 
    46   22   30 2 
    47   23   24 1 
    48   23   25 1 
    49   23   48 1 
    50   24   25 1 
    51   24   49 1 
    52   24   50 1 
    53   25   51 1 
    54   25   52 1 
    55   26   27 ar
    56   26   32 1 
    57   27   28 ar
    58   27   53 1 
    59   28   54 1 
@<TRIPOS>SUBSTRUCTURE
1 MOL         1
@<TRIPOS>MOLECULE
query molecule
   55    59     1     0     0
SMALL
NO_CHARGE

@<TRIPOS>ATOM
      1 N          33.5981   14.2582   30.5504 N.am      1 MOL    -0.2945
      2 N          34.3836   13.2000   28.3117 N.am      1 MOL    -0.2983
      3 N          38.2151   13.0213   34.6893 N.ar      1 MOL    -0.1750
      4 N          38.6133   12.0624   35.4896 N.ar      1 MOL    -0.2425
      5 C          39.7595   11.3891   35.3166 C.ar      1 MOL     0.2725
      6 C          40.5655   11.7153   34.2454 C.ar      1 MOL     0.0496
      7 C          41.7591   11.0328   34.0075 C.ar      1 MOL     0.0138
      8 C          42.5379   11.3615   32.9188 C.ar      1 MOL     0.0008
      9 C          42.0778   12.3740   32.1038 C.ar      1 MOL     0.0007
     10 C          40.8954   13.0594   32.3276 C.ar      1 MOL     0.0103
     11 C          40.1335   12.7282   33.4091 C.ar      1 MOL     0.0106
     12 C          38.9589   13.4036   33.6059 C.ar      1 MOL     0.0736
     13 C          38.4367   14.5252   32.8363 C.3       1 MOL     0.0925
     14 C          37.0432   14.8432   33.2538 C.ar      1 MOL    -0.0406
     15 C          36.1068   14.9466   32.2097 C.ar      1 MOL     0.0196
     16 C          34.7964   15.2472   32.4942 C.ar      1 MOL     0.0723
     17 C          33.7880   15.3663   31.4170 C.2       1 MOL     0.2495
     18 C          32.6316   14.3336   29.5030 C.3       1 MOL     0.1268
     19 C          32.9620   13.4265   28.3372 C.3       1 MOL     0.1265
     20 C          34.9691   12.5162   29.4700 C.3       1 MOL     0.1265
     21 C          34.3984   13.0647   30.7525 C.3       1 MOL     0.1268
     22 C          35.1894   13.6052   27.2437 C.2       1 MOL     0.2187
     23 C          34.7587   14.3065   26.0313 C.3       1 MOL     0.0752
     24 C          33.4701   15.0903   26.1366 C.3       1 MOL     0.0134
     25 C          33.5336   13.8900   25.2997 C.3       1 MOL     0.0134
     26 C          34.3309   15.4583   33.7705 C.ar      1 MOL     0.1355
     27 C          35.2484   15.3569   34.7917 C.ar      1 MOL     0.0392
     28 C          36.5865   15.0513   34.5048 C.ar      1 MOL     0.0066
     29 O          40.1589   10.4676   36.0737 O.2       1 MOL    -0.2658
     30 O          36.4436   13.3454   27.3133 O.2       1 MOL    -0.2753
     31 O          33.1065   16.4041   31.2517 O.2       1 MOL    -0.2699
     32 F          33.0190   15.7553   34.0014 F         1 MOL    -0.2047
     33 H          42.0598   10.2814   34.6477 H         1 MOL     0.0625
     34 H          43.4239   10.8719   32.7226 H         1 MOL     0.0618
     35 H          42.6450   12.6348   31.2826 H         1 MOL     0.0618
     36 H          40.5948   13.8101   31.6862 H         1 MOL     0.0624
     37 H          38.4438   14.2727   31.7965 H         1 MOL     0.0377
     38 H          39.0527   15.3822   33.0135 H         1 MOL     0.0377
     39 H          36.4029   14.7974   31.2326 H         1 MOL     0.0629
     40 H          32.5870   15.3430   29.1501 H         1 MOL     0.0480
     41 H          31.6928   14.0136   29.9059 H         1 MOL     0.0480
     42 H          32.6550   13.8898   27.4232 H         1 MOL     0.0480
     43 H          32.4476   12.4943   28.4461 H         1 MOL     0.0480
     44 H          36.0290   12.6616   29.4668 H         1 MOL     0.0480
     45 H          34.7393   11.4729   29.4090 H         1 MOL     0.0480
     46 H          35.2068   13.3047   31.4112 H         1 MOL     0.0480
     47 H          33.7571   12.3150   31.1647 H         1 MOL     0.0480
     48 H          35.7710   14.4832   25.7340 H         1 MOL     0.0394
     49 H          33.3925   16.0562   25.6823 H         1 MOL     0.0273
     50 H          32.8484   15.4204   26.9425 H         1 MOL     0.0273
     51 H          33.4936   13.9833   24.2345 H         1 MOL     0.0273
     52 H          32.9657   12.9855   25.2479 H         1 MOL     0.0273
     53 H          34.9506   15.5059   35.7691 H         1 MOL     0.0646
     54 H          37.2541   14.9815   35.2891 H         1 MOL     0.0621
     55 H          38.0423   11.8254   36.2561 H         1 MOL     0.1921
@<TRIPOS>BOND
     1    1   17 am
     2    1   18 1 
     3    1   21 1 
     4    2   19 1 
     5    2   20 1 
     6    2   22 am
     7    3    4 ar
     8    3   12 ar
     9    4    5 ar
    10    4   55 1 
    11    5    6 ar
    12    5   29 2 
    13    6    7 ar
    14    6   11 ar
    15    7    8 ar
    16    7   33 1 
    17    8    9 ar
    18    8   34 1 
    19    9   10 ar
    20    9   35 1 
    21   10   11 ar
    22   10   36 1 
    23   11   12 ar
    24   12   13 1 
    25   13   14 1 
    26   13   37 1 
    27   13   38 1 
    28   14   15 ar
    29   14   28 ar
    30   15   16 ar
    31   15   39 1 
    32   16   17 1 
    33   16   26 ar
    34   17   31 2 
    35   18   19 1 
    36   18   40 1 
    37   18   41 1 
    38   19   42 1 
    39   19   43 1 
    40   20   21 1 
    41   20   44 1 
    42   20   45 1 
    43   21   46 1 
    44   21   47 1 
    45   22   23 1 
    46   22   30 2 
    47   23   24 1 
    48   23   25 1 
    49   23   48 1 
    50   24   25 1 
    51   24   49 1 
    52   24   50 1 
    53   25   51 1 
    54   25   52 1 
    55   26   27 ar
    56   26   32 1 
    57   27   28 ar
    58   27   53 1 
    59   28   54 1 
@<TRIPOS>SUBSTRUCTURE
1 MOL         1
@<TRIPOS>MOLECULE
query molecule
   55    59     1     0     0
SMALL
NO_CHARGE

@<TRIPOS>ATOM
      1 N          38.1738   -3.9275   28.4192 N.am      1 MOL    -0.2945
      2 N          37.1378   -5.9300   29.7095 N.am      1 MOL    -0.2983
      3 N          38.7036    0.3438   32.5207 N.ar      1 MOL    -0.1750
      4 N          39.5926   -0.1967   33.3184 N.ar      1 MOL    -0.2425
      5 C          39.3227   -1.2324   34.1255 C.ar      1 MOL     0.2725
      6 C          38.0483   -1.7613   34.1228 C.ar      1 MOL     0.0496
      7 C          37.7083   -2.8263   34.9577 C.ar      1 MOL     0.0138
      8 C          36.4233   -3.3246   34.9537 C.ar      1 MOL     0.0008
      9 C          35.5221   -2.7230   34.1010 C.ar      1 MOL     0.0007
     10 C          35.8455   -1.6654   33.2674 C.ar      1 MOL     0.0103
     11 C          37.1205   -1.1815   33.2772 C.ar      1 MOL     0.0106
     12 C          37.4190   -0.1244   32.4600 C.ar      1 MOL     0.0736
     13 C          36.5494    0.5211   31.4853 C.3       1 MOL     0.0925
     14 C          36.9511    0.1522   30.0997 C.ar      1 MOL    -0.0406
     15 C          37.6847   -1.0415   29.9794 C.ar      1 MOL     0.0196
     16 C          38.1097   -1.4608   28.7415 C.ar      1 MOL     0.0723
     17 C          38.8866   -2.7108   28.5828 C.2       1 MOL     0.2495
     18 C          38.8881   -5.1526   28.2583 C.3       1 MOL     0.1268
     19 C          38.0956   -6.3558   28.7224 C.3       1 MOL     0.1265
     20 C          36.1119   -4.9766   29.2731 C.3       1 MOL     0.1265
     21 C          36.7230   -3.8957   28.4189 C.3       1 MOL     0.1268
     22 C          37.1652   -6.3895   31.0295 C.2       1 MOL     0.2187
     23 C          38.1280   -7.3247   31.6172 C.3       1 MOL     0.0752
     24 C          37.6393   -8.1292   32.8004 C.3       1 MOL     0.0134
     25 C          38.6718   -7.1067   32.9834 C.3       1 MOL     0.0134
     26 C          37.8548   -0.7677   27.5819 C.ar      1 MOL     0.1355
     27 C          37.1367    0.4007   27.7009 C.ar      1 MOL     0.0392
     28 C          36.7024    0.8319   28.9625 C.ar      1 MOL     0.0066
     29 O          40.1618   -1.7650   34.8962 O.2       1 MOL    -0.2658
     30 O          36.2593   -5.9575   31.8282 O.2       1 MOL    -0.2753
     31 O          40.1390   -2.7242   28.5884 O.2       1 MOL    -0.2699
     32 F          38.2995   -1.2257   26.3756 F         1 MOL    -0.2047
     33 H          38.4200   -3.2421   35.5787 H         1 MOL     0.0625
     34 H          36.1484   -4.1111   35.5612 H         1 MOL     0.0618
     35 H          34.5544   -3.0799   34.0833 H         1 MOL     0.0618
     36 H          35.1329   -1.2493   32.6474 H         1 MOL     0.0624
     37 H          36.6177    1.5828   31.6008 H         1 MOL     0.0377
     38 H          35.5436    0.1946   31.6501 H         1 MOL     0.0377
     39 H          37.9036   -1.6009   30.8183 H         1 MOL     0.0629
     40 H          39.7934   -5.0983   28.8267 H         1 MOL     0.0480
     41 H          39.0840   -5.2777   27.2133 H         1 MOL     0.0480
     42 H          38.7575   -7.0782   29.1515 H         1 MOL     0.0480
     43 H          37.5877   -6.7981   27.8906 H         1 MOL     0.0480
     44 H          35.6569   -4.5301   30.1323 H         1 MOL     0.0480
     45 H          35.3775   -5.4982   28.6955 H         1 MOL     0.0480
     46 H          36.4035   -2.9446   28.7909 H         1 MOL     0.0480
     47 H          36.3992   -4.0599   27.4133 H         1 MOL     0.0480
     48 H          38.5788   -7.5108   30.6651 H         1 MOL     0.0394
     49 H          37.8916   -9.1659   32.8837 H         1 MOL     0.0273
     50 H          36.6832   -8.3277   33.2379 H         1 MOL     0.0273
     51 H          39.6757   -7.4009   33.2086 H         1 MOL     0.0273
     52 H          38.7726   -6.2535   33.6198 H         1 MOL     0.0273
     53 H          36.9177    0.9592   26.8605 H         1 MOL     0.0646
     54 H          36.1660    1.7117   29.0238 H         1 MOL     0.0621
     55 H          40.5039    0.1764   33.3244 H         1 MOL     0.1921
@<TRIPOS>BOND
     1    1   17 am
     2    1   18 1 
     3    1   21 1 
     4    2   19 1 
     5    2   20 1 
     6    2   22 am
     7    3    4 ar
     8    3   12 ar
     9    4    5 ar
    10    4   55 1 
    11    5    6 ar
    12    5   29 2 
    13    6    7 ar
    14    6   11 ar
    15    7    8 ar
    16    7   33 1 
    17    8    9 ar
    18    8   34 1 
    19    9   10 ar
    20    9   35 1 
    21   10   11 ar
    22   10   36 1 
    23   11   12 ar
    24   12   13 1 
    25   13   14 1 
    26   13   37 1 
    27   13   38 1 
    28   14   15 ar
    29   14   28 ar
    30   15   16 ar
    31   15   39 1 
    32   16   17 1 
    33   16   26 ar
    34   17   31 2 
    35   18   19 1 
    36   18   40 1 
    37   18   41 1 
    38   19   42 1 
    39   19   43 1 
    40   20   21 1 
    41   20   44 1 
    42   20   45 1 
    43   21   46 1 
    44   21   47 1 
    45   22   23 1 
    46   22   30 2 
    47   23   24 1 
    48   23   25 1 
    49   23   48 1 
    50   24   25 1 
    51   24   49 1 
    52   24   50 1 
    53   25   51 1 
    54   25   52 1 
    55   26   27 ar
    56   26   32 1 
    57   27   28 ar
    58   27   53 1 
    59   28   54 1 
@<TRIPOS>SUBSTRUCTURE
1 MOL         1
@<TRIPOS>MOLECULE
query molecule
   55    59     1     0     0
SMALL
NO_CHARGE

@<TRIPOS>ATOM
      1 N          -4.9213   -7.3213   -2.6523 N.am      1 MOL    -0.2945
      2 N          -2.9028   -8.7965   -1.9465 N.am      1 MOL    -0.2983
      3 N          -1.9590   -6.2410   -7.6609 N.ar      1 MOL    -0.1750
      4 N          -1.3262   -7.3795   -7.8090 N.ar      1 MOL    -0.2425
      5 C          -1.9176   -8.4967   -8.2551 C.ar      1 MOL     0.2725
      6 C          -3.2588   -8.4546   -8.5762 C.ar      1 MOL     0.0496
      7 C          -3.9282   -9.5934   -9.0259 C.ar      1 MOL     0.0138
      8 C          -5.2733   -9.5331   -9.3203 C.ar      1 MOL     0.0008
      9 C          -5.8975   -8.3160   -9.1467 C.ar      1 MOL     0.0007
     10 C          -5.2459   -7.1782   -8.7010 C.ar      1 MOL     0.0103
     11 C          -3.9143   -7.2479   -8.4149 C.ar      1 MOL     0.0106
     12 C          -3.2893   -6.1184   -7.9586 C.ar      1 MOL     0.0736
     13 C          -3.8560   -4.7840   -7.8129 C.3       1 MOL     0.0925
     14 C          -4.3982   -4.5924   -6.4393 C.ar      1 MOL    -0.0406
     15 C          -4.7738   -5.7690   -5.7669 C.ar      1 MOL     0.0196
     16 C          -5.2950   -5.6940   -4.4974 C.ar      1 MOL     0.0723
     17 C          -5.7028   -6.9141   -3.7651 C.2       1 MOL     0.2495
     18 C          -5.2859   -8.4898   -1.9182 C.3       1 MOL     0.1268
     19 C          -4.1042   -9.1401   -1.2313 C.3       1 MOL     0.1265
     20 C          -2.5438   -7.3752   -1.9997 C.3       1 MOL     0.1265
     21 C          -3.7603   -6.5324   -2.2844 C.3       1 MOL     0.1268
     22 C          -2.1001   -9.7559   -2.5706 C.2       1 MOL     0.2187
     23 C          -2.3311  -11.2021   -2.6183 C.3       1 MOL     0.0752
     24 C          -3.6555  -11.6473   -3.1961 C.3       1 MOL     0.0134
     25 C          -3.3735  -11.8398   -1.7718 C.3       1 MOL     0.0134
     26 C          -5.4762   -4.5085   -3.8254 C.ar      1 MOL     0.1355
     27 C          -5.1082   -3.3574   -4.4845 C.ar      1 MOL     0.0392
     28 C          -4.5771   -3.4303   -5.7803 C.ar      1 MOL     0.0066
     29 O          -1.3274   -9.5971   -8.4050 O.2       1 MOL    -0.2658
     30 O          -1.0438   -9.3469   -3.1724 O.2       1 MOL    -0.2753
     31 O          -6.7056   -7.5879   -4.0958 O.2       1 MOL    -0.2699
     32 F          -5.9989   -4.4865   -2.5648 F         1 MOL    -0.2047
     33 H          -3.4156  -10.4819   -9.1389 H         1 MOL     0.0625
     34 H          -5.7894  -10.3609   -9.6546 H         1 MOL     0.0618
     35 H          -6.9045   -8.2495   -9.3602 H         1 MOL     0.0618
     36 H          -5.7595   -6.2902   -8.5871 H         1 MOL     0.0624
     37 H          -4.6455   -4.6570   -8.5239 H         1 MOL     0.0377
     38 H          -3.0852   -4.0611   -7.9821 H         1 MOL     0.0377
     39 H          -4.6588   -6.6861   -6.2255 H         1 MOL     0.0629
     40 H          -5.7214   -9.1965   -2.5937 H         1 MOL     0.0480
     41 H          -5.9778   -8.1910   -1.1580 H         1 MOL     0.0480
     42 H          -4.2301  -10.2024   -1.2288 H         1 MOL     0.0480
     43 H          -4.0369   -8.7941   -0.2208 H         1 MOL     0.0480
     44 H          -1.8216   -7.2225   -2.7741 H         1 MOL     0.0480
     45 H          -2.1373   -7.0849   -1.0533 H         1 MOL     0.0480
     46 H          -3.5331   -5.8654   -3.0898 H         1 MOL     0.0480
     47 H          -4.0027   -6.0051   -1.3864 H         1 MOL     0.0480
     48 H          -1.2915  -11.3964   -2.7795 H         1 MOL     0.0394
     49 H          -3.6963  -12.4914   -3.8527 H         1 MOL     0.0273
     50 H          -4.4339  -11.1741   -3.7575 H         1 MOL     0.0273
     51 H          -3.2173  -12.8275   -1.3908 H         1 MOL     0.0273
     52 H          -3.8737  -11.5637   -0.8681 H         1 MOL     0.0273
     53 H          -5.2233   -2.4403   -4.0242 H         1 MOL     0.0646
     54 H          -4.3096   -2.5520   -6.2522 H         1 MOL     0.0621
     55 H          -0.3686   -7.4155   -7.5818 H         1 MOL     0.1921
@<TRIPOS>BOND
     1    1   17 am
     2    1   18 1 
     3    1   21 1 
     4    2   19 1 
     5    2   20 1 
     6    2   22 am
     7    3    4 ar
     8    3   12 ar
     9    4    5 ar
    10    4   55 1 
    11    5    6 ar
    12    5   29 2 
    13    6    7 ar
    14    6   11 ar
    15    7    8 ar
    16    7   33 1 
    17    8    9 ar
    18    8   34 1 
    19    9   10 ar
    20    9   35 1 
    21   10   11 ar
    22   10   36 1 
    23   11   12 ar
    24   12   13 1 
    25   13   14 1 
    26   13   37 1 
    27   13   38 1 
    28   14   15 ar
    29   14   28 ar
    30   15   16 ar
    31   15   39 1 
    32   16   17 1 
    33   16   26 ar
    34   17   31 2 
    35   18   19 1 
    36   18   40 1 
    37   18   41 1 
    38   19   42 1 
    39   19   43 1 
    40   20   21 1 
    41   20   44 1 
    42   20   45 1 
    43   21   46 1 
    44   21   47 1 
    45   22   23 1 
    46   22   30 2 
    47   23   24 1 
    48   23   25 1 
    49   23   48 1 
    50   24   25 1 
    51   24   49 1 
    52   24   50 1 
    53   25   51 1 
    54   25   52 1 
    55   26   27 ar
    56   26   32 1 
    57   27   28 ar
    58   27   53 1 
    59   28   54 1 
@<TRIPOS>SUBSTRUCTURE
1 MOL         1
@<TRIPOS>MOLECULE
query molecule
   55    59     1     0     0
SMALL
NO_CHARGE

@<TRIPOS>ATOM
      1 N          -9.2784   15.8770   -3.0863 N.am      1 MOL    -0.2945
      2 N         -11.4297   16.8553   -4.1649 N.am      1 MOL    -0.2983
      3 N          -2.5169   12.9900   -5.0138 N.ar      1 MOL    -0.1750
      4 N          -1.4261   12.9246   -5.7380 N.ar      1 MOL    -0.2425
      5 C          -1.3893   12.3855   -6.9647 C.ar      1 MOL     0.2725
      6 C          -2.5530   11.8713   -7.4987 C.ar      1 MOL     0.0496
      7 C          -2.5665   11.2810   -8.7630 C.ar      1 MOL     0.0138
      8 C          -3.7362   10.7547   -9.2674 C.ar      1 MOL     0.0008
      9 C          -4.8571   10.8435   -8.4694 C.ar      1 MOL     0.0007
     10 C          -4.8581   11.4262   -7.2130 C.ar      1 MOL     0.0103
     11 C          -3.6960   11.9462   -6.7243 C.ar      1 MOL     0.0106
     12 C          -3.7105   12.5028   -5.4734 C.ar      1 MOL     0.0736
     13 C          -4.8591   12.6970   -4.5982 C.3       1 MOL     0.0925
     14 C          -5.3997   14.0770   -4.7420 C.ar      1 MOL    -0.0406
     15 C          -6.3448   14.4611   -3.7740 C.ar      1 MOL     0.0196
     16 C          -6.9090   15.7131   -3.8287 C.ar      1 MOL     0.0723
     17 C          -7.9090   16.1455   -2.8265 C.2       1 MOL     0.2495
     18 C         -10.2715   16.2744   -2.1413 C.3       1 MOL     0.1268
     19 C         -11.6230   16.5127   -2.7798 C.3       1 MOL     0.1265
     20 C         -10.8073   15.8395   -5.0208 C.3       1 MOL     0.1265
     21 C          -9.6388   15.1984   -4.3173 C.3       1 MOL     0.1268
     22 C         -11.8088   18.0933   -4.6920 C.2       1 MOL     0.2187
     23 C         -12.4243   19.2084   -3.9675 C.3       1 MOL     0.0752
     24 C         -13.0469   18.8728   -2.6312 C.3       1 MOL     0.0134
     25 C         -13.8948   19.2675   -3.7583 C.3       1 MOL     0.0134
     26 C          -6.5983   16.6387   -4.7965 C.ar      1 MOL     0.1355
     27 C          -5.6731   16.2617   -5.7435 C.ar      1 MOL     0.0392
     28 C          -5.0962   14.9846   -5.6912 C.ar      1 MOL     0.0066
     29 O          -0.3537   12.3149   -7.6748 O.2       1 MOL    -0.2658
     30 O         -11.6035   18.2952   -5.9419 O.2       1 MOL    -0.2753
     31 O          -7.5842   16.7337   -1.7695 O.2       1 MOL    -0.2699
     32 F          -7.1871   17.8699   -4.8082 F         1 MOL    -0.2047
     33 H          -1.6998   11.2388   -9.3216 H         1 MOL     0.0625
     34 H          -3.7711   10.3140  -10.1990 H         1 MOL     0.0618
     35 H          -5.7428   10.4545   -8.8276 H         1 MOL     0.0618
     36 H          -5.7251   11.4669   -6.6545 H         1 MOL     0.0624
     37 H          -4.5590   12.5404   -3.5831 H         1 MOL     0.0377
     38 H          -5.6228   11.9985   -4.8706 H         1 MOL     0.0377
     39 H          -6.6141   13.8047   -3.0249 H         1 MOL     0.0629
     40 H          -9.9513   17.1796   -1.6684 H         1 MOL     0.0480
     41 H         -10.3831   15.4774   -1.4354 H         1 MOL     0.0480
     42 H         -12.1216   17.3144   -2.2770 H         1 MOL     0.0480
     43 H         -12.2205   15.6279   -2.7045 H         1 MOL     0.0480
     44 H         -10.4641   16.3007   -5.9231 H         1 MOL     0.0480
     45 H         -11.5314   15.0841   -5.2446 H         1 MOL     0.0480
     46 H          -8.7941   15.2139   -4.9741 H         1 MOL     0.0480
     47 H          -9.9265   14.2011   -4.0609 H         1 MOL     0.0480
     48 H         -11.7062   19.9001   -4.3551 H         1 MOL     0.0394
     49 H         -12.9191   19.5345   -1.7999 H         1 MOL     0.0273
     50 H         -13.0097   18.0339   -1.9680 H         1 MOL     0.0273
     51 H         -14.3914   20.2152   -3.7422 H         1 MOL     0.0273
     52 H         -14.7373   18.8276   -4.2482 H         1 MOL     0.0273
     53 H          -5.4040   16.9198   -6.4922 H         1 MOL     0.0646
     54 H          -4.4054   14.7271   -6.4137 H         1 MOL     0.0621
     55 H          -0.5925   13.2904   -5.3622 H         1 MOL     0.1921
@<TRIPOS>BOND
     1    1   17 am
     2    1   18 1 
     3    1   21 1 
     4    2   19 1 
     5    2   20 1 
     6    2   22 am
     7    3    4 ar
     8    3   12 ar
     9    4    5 ar
    10    4   55 1 
    11    5    6 ar
    12    5   29 2 
    13    6    7 ar
    14    6   11 ar
    15    7    8 ar
    16    7   33 1 
    17    8    9 ar
    18    8   34 1 
    19    9   10 ar
    20    9   35 1 
    21   10   11 ar
    22   10   36 1 
    23   11   12 ar
    24   12   13 1 
    25   13   14 1 
    26   13   37 1 
    27   13   38 1 
    28   14   15 ar
    29   14   28 ar
    30   15   16 ar
    31   15   39 1 
    32   16   17 1 
    33   16   26 ar
    34   17   31 2 
    35   18   19 1 
    36   18   40 1 
    37   18   41 1 
    38   19   42 1 
    39   19   43 1 
    40   20   21 1 
    41   20   44 1 
    42   20   45 1 
    43   21   46 1 
    44   21   47 1 
    45   22   23 1 
    46   22   30 2 
    47   23   24 1 
    48   23   25 1 
    49   23   48 1 
    50   24   25 1 
    51   24   49 1 
    52   24   50 1 
    53   25   51 1 
    54   25   52 1 
    55   26   27 ar
    56   26   32 1 
    57   27   28 ar
    58   27   53 1 
    59   28   54 1 
@<TRIPOS>SUBSTRUCTURE
1 MOL         1
@<TRIPOS>MOLECULE
query molecule
   55    59     1     0     0
SMALL
NO_CHARGE

@<TRIPOS>ATOM
      1 N          36.0118   -0.7118   14.9764 N.am      1 MOL    -0.2945
      2 N          37.6636   -0.1856   13.0417 N.am      1 MOL    -0.2983
      3 N          39.9761   -2.7714   19.0393 N.ar      1 MOL    -0.1750
      4 N          41.0450   -3.0240   18.3235 N.ar      1 MOL    -0.2425
      5 C          41.0275   -3.7835   17.2191 C.ar      1 MOL     0.2725
      6 C          39.8291   -4.3305   16.8088 C.ar      1 MOL     0.0496
      7 C          39.7583   -5.1448   15.6779 C.ar      1 MOL     0.0138
      8 C          38.5541   -5.6979   15.2990 C.ar      1 MOL     0.0008
      9 C          37.4580   -5.4070   16.0833 C.ar      1 MOL     0.0007
     10 C          37.5138   -4.6010   17.2081 C.ar      1 MOL     0.0103
     11 C          38.7098   -4.0566   17.5730 C.ar      1 MOL     0.0106
     12 C          38.7508   -3.2766   18.6974 C.ar      1 MOL     0.0736
     13 C          37.6338   -2.8665   19.5383 C.3       1 MOL     0.0925
     14 C          37.1434   -1.5189   19.1372 C.ar      1 MOL    -0.0406
     15 C          36.5084   -1.4537   17.8841 C.ar      1 MOL     0.0196
     16 C          36.0308   -0.2509   17.4217 C.ar      1 MOL     0.0723
     17 C          35.3610   -0.1493   16.1056 C.2       1 MOL     0.2495
     18 C          35.3949   -0.6378   13.6915 C.3       1 MOL     0.1268
     19 C          36.3984   -0.6748   12.5590 C.3       1 MOL     0.1265
     20 C          38.3089   -0.9531   14.1124 C.3       1 MOL     0.1265
     21 C          37.3001   -1.3546   15.1576 C.3       1 MOL     0.1268
     22 C          38.2680    0.9663   12.5297 C.2       1 MOL     0.2187
     23 C          37.7456    1.8421   11.4775 C.3       1 MOL     0.0752
     24 C          36.2764    2.1881   11.5662 C.3       1 MOL     0.0134
     25 C          36.7669    1.3394   10.4779 C.3       1 MOL     0.0134
     26 C          36.1373    0.9243   18.1271 C.ar      1 MOL     0.1355
     27 C          36.7590    0.8593   19.3535 C.ar      1 MOL     0.0392
     28 C          37.2484   -0.3662   19.8279 C.ar      1 MOL     0.0066
     29 O          42.0414   -4.0359   16.5190 O.2       1 MOL    -0.2658
     30 O          39.4017    1.3112   13.0207 O.2       1 MOL    -0.2753
     31 O          34.2502    0.4117   15.9628 O.2       1 MOL    -0.2699
     32 F          35.6470    2.0944   17.6240 F         1 MOL    -0.2047
     33 H          40.6084   -5.3328   15.1239 H         1 MOL     0.0625
     34 H          38.4767   -6.3023   14.4671 H         1 MOL     0.0618
     35 H          36.5471   -5.8120   15.8180 H         1 MOL     0.0618
     36 H          36.6633   -4.4144   17.7624 H         1 MOL     0.0624
     37 H          37.9539   -2.8354   20.5588 H         1 MOL     0.0377
     38 H          36.8367   -3.5711   19.4214 H         1 MOL     0.0377
     39 H          36.4017   -2.3066   17.3133 H         1 MOL     0.0629
     40 H          34.8415    0.2762   13.6295 H         1 MOL     0.0480
     41 H          34.7591   -1.4929   13.5885 H         1 MOL     0.0480
     42 H          36.0565   -0.0568   11.7556 H         1 MOL     0.0480
     43 H          36.5085   -1.6788   12.2048 H         1 MOL     0.0480
     44 H          39.0676   -0.3526   14.5689 H         1 MOL     0.0480
     45 H          38.7408   -1.8376   13.6927 H         1 MOL     0.0480
     46 H          37.6813   -1.0871   16.1210 H         1 MOL     0.0480
     47 H          37.1474   -2.4091   15.0678 H         1 MOL     0.0480
     48 H          38.6779    2.3610   11.4004 H         1 MOL     0.0394
     49 H          35.9481    3.1857   11.3608 H         1 MOL     0.0273
     50 H          35.5208    2.0952   12.3181 H         1 MOL     0.0273
     51 H          36.7872    1.7186    9.4775 H         1 MOL     0.0273
     52 H          36.5047    0.3697   10.1116 H         1 MOL     0.0273
     53 H          36.8647    1.7134   19.9241 H         1 MOL     0.0646
     54 H          37.7108   -0.3871   20.7506 H         1 MOL     0.0621
     55 H          41.9031   -2.6360   18.6113 H         1 MOL     0.1921
@<TRIPOS>BOND
     1    1   17 am
     2    1   18 1 
     3    1   21 1 
     4    2   19 1 
     5    2   20 1 
     6    2   22 am
     7    3    4 ar
     8    3   12 ar
     9    4    5 ar
    10    4   55 1 
    11    5    6 ar
    12    5   29 2 
    13    6    7 ar
    14    6   11 ar
    15    7    8 ar
    16    7   33 1 
    17    8    9 ar
    18    8   34 1 
    19    9   10 ar
    20    9   35 1 
    21   10   11 ar
    22   10   36 1 
    23   11   12 ar
    24   12   13 1 
    25   13   14 1 
    26   13   37 1 
    27   13   38 1 
    28   14   15 ar
    29   14   28 ar
    30   15   16 ar
    31   15   39 1 
    32   16   17 1 
    33   16   26 ar
    34   17   31 2 
    35   18   19 1 
    36   18   40 1 
    37   18   41 1 
    38   19   42 1 
    39   19   43 1 
    40   20   21 1 
    41   20   44 1 
    42   20   45 1 
    43   21   46 1 
    44   21   47 1 
    45   22   23 1 
    46   22   30 2 
    47   23   24 1 
    48   23   25 1 
    49   23   48 1 
    50   24   25 1 
    51   24   49 1 
    52   24   50 1 
    53   25   51 1 
    54   25   52 1 
    55   26   27 ar
    56   26   32 1 
    57   27   28 ar
    58   27   53 1 
    59   28   54 1 
@<TRIPOS>SUBSTRUCTURE
1 MOL         1
@<TRIPOS>MOLECULE
query molecule
   55    59     1     0     0
SMALL
NO_CHARGE

@<TRIPOS>ATOM
      1 N          39.4491   -0.4159   31.5547 N.am      1 MOL    -0.2945
      2 N          40.6790    1.4120   30.1783 N.am      1 MOL    -0.2983
      3 N          39.8902   -3.6368   26.7762 N.ar      1 MOL    -0.1750
      4 N          41.0172   -4.2416   26.4885 N.ar      1 MOL    -0.2425
      5 C          41.1858   -5.5677   26.5869 C.ar      1 MOL     0.2725
      6 C          40.1256   -6.3417   27.0117 C.ar      1 MOL     0.0496
      7 C          40.2528   -7.7243   27.1510 C.ar      1 MOL     0.0138
      8 C          39.1866   -8.4749   27.5975 C.ar      1 MOL     0.0008
      9 C          38.0229   -7.7957   27.8905 C.ar      1 MOL     0.0007
     10 C          37.8827   -6.4244   27.7573 C.ar      1 MOL     0.0103
     11 C          38.9430   -5.6913   27.3123 C.ar      1 MOL     0.0106
     12 C          38.7930   -4.3348   27.2031 C.ar      1 MOL     0.0736
     13 C          37.5846   -3.5515   27.4254 C.3       1 MOL     0.0925
     14 C          37.3417   -3.3658   28.8827 C.ar      1 MOL    -0.0406
     15 C          38.3664   -2.7109   29.5889 C.ar      1 MOL     0.0196
     16 C          38.2389   -2.5019   30.9412 C.ar      1 MOL     0.0723
     17 C          39.3015   -1.8189   31.7129 C.2       1 MOL     0.2495
     18 C          40.4593    0.2785   32.2857 C.3       1 MOL     0.1268
     19 C          40.9157    1.5443   31.5924 C.3       1 MOL     0.1265
     20 C          39.2850    1.2555   29.7490 C.3       1 MOL     0.1265
     21 C          38.5609    0.2846   30.6458 C.3       1 MOL     0.1268
     22 C          41.7142    1.4279   29.2391 C.2       1 MOL     0.2187
     23 C          43.1481    1.5610   29.5101 C.3       1 MOL     0.0752
     24 C          43.6383    0.9693   30.8123 C.3       1 MOL     0.0134
     25 C          43.6418    2.4209   30.6175 C.3       1 MOL     0.0134
     26 C          37.1420   -2.9033   31.6663 C.ar      1 MOL     0.1355
     27 C          36.1395   -3.5443   30.9740 C.ar      1 MOL     0.0392
     28 C          36.2669   -3.7600   29.5943 C.ar      1 MOL     0.0066
     29 O          42.2581   -6.1659   26.3144 O.2       1 MOL    -0.2658
     30 O          41.3960    1.3143   28.0017 O.2       1 MOL    -0.2753
     31 O          40.0637   -2.4366   32.4915 O.2       1 MOL    -0.2699
     32 F          37.0628   -2.6729   33.0092 F         1 MOL    -0.2047
     33 H          41.1462   -8.1858   26.9188 H         1 MOL     0.0625
     34 H          39.2564   -9.4977   27.7080 H         1 MOL     0.0618
     35 H          37.2131   -8.3386   28.2275 H         1 MOL     0.0618
     36 H          36.9892   -5.9634   27.9908 H         1 MOL     0.0624
     37 H          36.7497   -4.0610   26.9913 H         1 MOL     0.0377
     38 H          37.7082   -2.5899   26.9722 H         1 MOL     0.0377
     39 H          39.2119   -2.3885   29.0932 H         1 MOL     0.0629
     40 H          41.3023   -0.3699   32.4053 H         1 MOL     0.0480
     41 H          40.0396    0.5599   33.2294 H         1 MOL     0.0480
     42 H          41.9598    1.6947   31.7699 H         1 MOL     0.0480
     43 H          40.3721    2.3832   31.9747 H         1 MOL     0.0480
     44 H          39.2644    0.8882   28.7444 H         1 MOL     0.0480
     45 H          38.7966    2.2060   29.8047 H         1 MOL     0.0480
     46 H          38.0610   -0.4376   30.0345 H         1 MOL     0.0480
     47 H          37.8736    0.8481   31.2402 H         1 MOL     0.0480
     48 H          43.3852    1.4903   28.4694 H         1 MOL     0.0394
     49 H          44.5626    0.4307   30.8411 H         1 MOL     0.0273
     50 H          43.2287    0.3036   31.5431 H         1 MOL     0.0273
     51 H          44.5718    2.9398   30.5129 H         1 MOL     0.0273
     52 H          43.2347    3.2476   31.1598 H         1 MOL     0.0273
     53 H          35.2936   -3.8659   31.4712 H         1 MOL     0.0646
     54 H          35.5008   -4.2434   29.0993 H         1 MOL     0.0621
     55 H          41.7774   -3.6943   26.1844 H         1 MOL     0.1921
@<TRIPOS>BOND
     1    1   17 am
     2    1   18 1 
     3    1   21 1 
     4    2   19 1 
     5    2   20 1 
     6    2   22 am
     7    3    4 ar
     8    3   12 ar
     9    4    5 ar
    10    4   55 1 
    11    5    6 ar
    12    5   29 2 
    13    6    7 ar
    14    6   11 ar
    15    7    8 ar
    16    7   33 1 
    17    8    9 ar
    18    8   34 1 
    19    9   10 ar
    20    9   35 1 
    21   10   11 ar
    22   10   36 1 
    23   11   12 ar
    24   12   13 1 
    25   13   14 1 
    26   13   37 1 
    27   13   38 1 
    28   14   15 ar
    29   14   28 ar
    30   15   16 ar
    31   15   39 1 
    32   16   17 1 
    33   16   26 ar
    34   17   31 2 
    35   18   19 1 
    36   18   40 1 
    37   18   41 1 
    38   19   42 1 
    39   19   43 1 
    40   20   21 1 
    41   20   44 1 
    42   20   45 1 
    43   21   46 1 
    44   21   47 1 
    45   22   23 1 
    46   22   30 2 
    47   23   24 1 
    48   23   25 1 
    49   23   48 1 
    50   24   25 1 
    51   24   49 1 
    52   24   50 1 
    53   25   51 1 
    54   25   52 1 
    55   26   27 ar
    56   26   32 1 
    57   27   28 ar
    58   27   53 1 
    59   28   54 1 
@<TRIPOS>SUBSTRUCTURE
1 MOL         1
@<TRIPOS>MOLECULE
query molecule
   55    59     1     0     0
SMALL
NO_CHARGE

@<TRIPOS>ATOM
      1 N          32.2855  -10.2178   -9.1744 N.am      1 MOL    -0.2945
      2 N          32.6949  -11.9520   -7.2841 N.am      1 MOL    -0.2983
      3 N          36.7120  -11.8775   -9.3824 N.ar      1 MOL    -0.1750
      4 N          36.6312  -12.9615   -8.6496 N.ar      1 MOL    -0.2425
      5 C          36.5346  -14.1939   -9.1681 C.ar      1 MOL     0.2725
      6 C          36.5184  -14.3370  -10.5403 C.ar      1 MOL     0.0496
      7 C          36.3993  -15.5950  -11.1323 C.ar      1 MOL     0.0138
      8 C          36.3637  -15.7121  -12.5051 C.ar      1 MOL     0.0008
      9 C          36.4489  -14.5452  -13.2346 C.ar      1 MOL     0.0007
     10 C          36.5669  -13.2904  -12.6605 C.ar      1 MOL     0.0103
     11 C          36.6038  -13.1858  -11.3013 C.ar      1 MOL     0.0106
     12 C          36.7031  -11.9366  -10.7498 C.ar      1 MOL     0.0736
     13 C          36.8656  -10.6664  -11.4449 C.3       1 MOL     0.0925
     14 C          35.5550  -10.1773  -11.9552 C.ar      1 MOL    -0.0406
     15 C          34.4663  -10.3371  -11.0795 C.ar      1 MOL     0.0196
     16 C          33.2130   -9.9256  -11.4650 C.ar      1 MOL     0.0723
     17 C          32.0466  -10.0834  -10.5672 C.2       1 MOL     0.2495
     18 C          31.1860  -10.3671   -8.2767 C.3       1 MOL     0.1268
     19 C          31.5623  -11.1061   -7.0105 C.3       1 MOL     0.1265
     20 C          33.9384  -11.2880   -7.6898 C.3       1 MOL     0.1265
     21 C          33.6542  -10.1994   -8.6926 C.3       1 MOL     0.1268
     22 C          32.6355  -13.3444   -7.1759 C.2       1 MOL     0.2187
     23 C          31.4712  -14.1502   -6.7987 C.3       1 MOL     0.0752
     24 C          30.7067  -13.6874   -5.5791 C.3       1 MOL     0.0134
     25 C          31.4622  -14.9416   -5.5404 C.3       1 MOL     0.0134
     26 C          32.9501   -9.3512  -12.6860 C.ar      1 MOL     0.1355
     27 C          34.0165   -9.1952  -13.5424 C.ar      1 MOL     0.0392
     28 C          35.2964   -9.6150  -13.1527 C.ar      1 MOL     0.0066
     29 O          36.4574  -15.2451   -8.4820 O.2       1 MOL    -0.2658
     30 O          33.7041  -14.0066   -7.4306 O.2       1 MOL    -0.2753
     31 O          30.8703  -10.1011  -10.9971 O.2       1 MOL    -0.2699
     32 F          31.6868   -8.9594  -13.0225 F         1 MOL    -0.2047
     33 H          36.3385  -16.4391  -10.5416 H         1 MOL     0.0625
     34 H          36.2768  -16.6307  -12.9655 H         1 MOL     0.0618
     35 H          36.4228  -14.6104  -14.2638 H         1 MOL     0.0618
     36 H          36.6266  -12.4466  -13.2519 H         1 MOL     0.0624
     37 H          37.5368  -10.7984  -12.2678 H         1 MOL     0.0377
     38 H          37.2582   -9.9450  -10.7588 H         1 MOL     0.0377
     39 H          34.6080  -10.7625  -10.1503 H         1 MOL     0.0629
     40 H          30.4098  -10.9112   -8.7735 H         1 MOL     0.0480
     41 H          30.8633   -9.3860   -7.9949 H         1 MOL     0.0480
     42 H          30.7371  -11.7038   -6.6847 H         1 MOL     0.0480
     43 H          31.8104  -10.4045   -6.2413 H         1 MOL     0.0480
     44 H          34.5955  -12.0083   -8.1301 H         1 MOL     0.0480
     45 H          34.3951  -10.8505   -6.8267 H         1 MOL     0.0480
     46 H          34.3107  -10.3248   -9.5283 H         1 MOL     0.0480
     47 H          33.8084   -9.2624   -8.2014 H         1 MOL     0.0480
     48 H          31.2629  -14.3877   -7.8208 H         1 MOL     0.0394
     49 H          29.6367  -13.7068   -5.5789 H         1 MOL     0.0273
     50 H          30.6898  -12.7943   -4.9900 H         1 MOL     0.0273
     51 H          30.9397  -15.8747   -5.5035 H         1 MOL     0.0273
     52 H          32.2227  -15.3352   -4.9001 H         1 MOL     0.0273
     53 H          33.8734   -8.7688  -14.4719 H         1 MOL     0.0646
     54 H          36.0786   -9.4868  -13.8140 H         1 MOL     0.0621
     55 H          36.6426  -12.8656   -7.6695 H         1 MOL     0.1921
@<TRIPOS>BOND
     1    1   17 am
     2    1   18 1 
     3    1   21 1 
     4    2   19 1 
     5    2   20 1 
     6    2   22 am
     7    3    4 ar
     8    3   12 ar
     9    4    5 ar
    10    4   55 1 
    11    5    6 ar
    12    5   29 2 
    13    6    7 ar
    14    6   11 ar
    15    7    8 ar
    16    7   33 1 
    17    8    9 ar
    18    8   34 1 
    19    9   10 ar
    20    9   35 1 
    21   10   11 ar
    22   10   36 1 
    23   11   12 ar
    24   12   13 1 
    25   13   14 1 
    26   13   37 1 
    27   13   38 1 
    28   14   15 ar
    29   14   28 ar
    30   15   16 ar
    31   15   39 1 
    32   16   17 1 
    33   16   26 ar
    34   17   31 2 
    35   18   19 1 
    36   18   40 1 
    37   18   41 1 
    38   19   42 1 
    39   19   43 1 
    40   20   21 1 
    41   20   44 1 
    42   20   45 1 
    43   21   46 1 
    44   21   47 1 
    45   22   23 1 
    46   22   30 2 
    47   23   24 1 
    48   23   25 1 
    49   23   48 1 
    50   24   25 1 
    51   24   49 1 
    52   24   50 1 
    53   25   51 1 
    54   25   52 1 
    55   26   27 ar
    56   26   32 1 
    57   27   28 ar
    58   27   53 1 
    59   28   54 1 
@<TRIPOS>SUBSTRUCTURE
1 MOL         1
@<TRIPOS>MOLECULE
query molecule
   55    59     1     0     0
SMALL
NO_CHARGE

@<TRIPOS>ATOM
      1 N          19.5013    8.9204    6.8948 N.am      1 MOL    -0.2945
      2 N          21.2411    7.3366    5.7935 N.am      1 MOL    -0.2983
      3 N          21.9064   16.1162    5.4266 N.ar      1 MOL    -0.1750
      4 N          23.0277   16.7705    5.6085 N.ar      1 MOL    -0.2425
      5 C          24.2365   16.2009    5.5029 C.ar      1 MOL     0.2725
      6 C          24.3130   14.8598    5.1879 C.ar      1 MOL     0.0496
      7 C          25.5450   14.2127    5.0853 C.ar      1 MOL     0.0138
      8 C          25.5964   12.8673    4.7905 C.ar      1 MOL     0.0008
      9 C          24.3922   12.2202    4.6105 C.ar      1 MOL     0.0007
     10 C          23.1626   12.8495    4.7096 C.ar      1 MOL     0.0103
     11 C          23.1229   14.1816    4.9992 C.ar      1 MOL     0.0106
     12 C          21.8987   14.7844    5.1109 C.ar      1 MOL     0.0736
     13 C          20.5892   14.1926    4.8704 C.3       1 MOL     0.0925
     14 C          20.1236   13.4453    6.0713 C.ar      1 MOL    -0.0406
     15 C          19.6316   12.1510    5.8261 C.ar      1 MOL     0.0196
     16 C          19.1690   11.3865    6.8702 C.ar      1 MOL     0.0723
     17 C          18.6417   10.0218    6.6439 C.2       1 MOL     0.2495
     18 C          19.0273    7.5895    6.6927 C.3       1 MOL     0.1268
     19 C          20.1413    6.6143    6.3781 C.3       1 MOL     0.1265
     20 C          21.8869    8.3552    6.6286 C.3       1 MOL     0.1265
     21 C          20.8534    9.1767    7.3553 C.3       1 MOL     0.1268
     22 C          21.6898    7.0963    4.4915 C.2       1 MOL     0.2187
     23 C          21.1434    6.1294    3.5355 C.3       1 MOL     0.0752
     24 C          21.9394    4.8583    3.3441 C.3       1 MOL     0.0134
     25 C          21.8439    5.8359    2.2577 C.3       1 MOL     0.0134
     26 C          19.1575   11.8195    8.1750 C.ar      1 MOL     0.1355
     27 C          19.6394   13.0867    8.4138 C.ar      1 MOL     0.0392
     28 C          20.1112   13.8698    7.3506 C.ar      1 MOL     0.0066
     29 O          25.3228   16.8118    5.6723 O.2       1 MOL    -0.2658
     30 O          22.6850    7.7863    4.0688 O.2       1 MOL    -0.2753
     31 O          17.4734    9.8151    6.2426 O.2       1 MOL    -0.2699
     32 F          18.6867   11.0220    9.1775 F         1 MOL    -0.2047
     33 H          26.4190   14.7421    5.2296 H         1 MOL     0.0625
     34 H          26.4946   12.3675    4.7090 H         1 MOL     0.0618
     35 H          24.4083   11.2125    4.3904 H         1 MOL     0.0618
     36 H          22.2888   12.3191    4.5663 H         1 MOL     0.0624
     37 H          20.6535   13.5203    4.0404 H         1 MOL     0.0377
     38 H          19.8900   14.9750    4.6600 H         1 MOL     0.0377
     39 H          19.6176   11.7764    4.8648 H         1 MOL     0.0629
     40 H          18.3342    7.5930    5.8772 H         1 MOL     0.0480
     41 H          18.5647    7.2694    7.6036 H         1 MOL     0.0480
     42 H          19.7887    5.8761    5.6889 H         1 MOL     0.0480
     43 H          20.4622    6.1285    7.2762 H         1 MOL     0.0480
     44 H          22.4747    8.9990    6.0084 H         1 MOL     0.0480
     45 H          22.5094    7.8681    7.3499 H         1 MOL     0.0480
     46 H          21.0732   10.2131    7.2051 H         1 MOL     0.0480
     47 H          20.8966    8.9056    8.3887 H         1 MOL     0.0480
     48 H          20.1392    6.4056    3.7794 H         1 MOL     0.0394
     49 H          21.4350    3.9179    3.2639 H         1 MOL     0.0273
     50 H          22.7425    4.3819    3.8667 H         1 MOL     0.0273
     51 H          21.2754    5.6019    1.3819 H         1 MOL     0.0273
     52 H          22.5593    6.3602    1.6605 H         1 MOL     0.0273
     53 H          19.6534   13.4601    9.3764 H         1 MOL     0.0646
     54 H          20.4668   14.8166    7.5572 H         1 MOL     0.0621
     55 H          22.9794   17.7280    5.8332 H         1 MOL     0.1921
@<TRIPOS>BOND
     1    1   17 am
     2    1   18 1 
     3    1   21 1 
     4    2   19 1 
     5    2   20 1 
     6    2   22 am
     7    3    4 ar
     8    3   12 ar
     9    4    5 ar
    10    4   55 1 
    11    5    6 ar
    12    5   29 2 
    13    6    7 ar
    14    6   11 ar
    15    7    8 ar
    16    7   33 1 
    17    8    9 ar
    18    8   34 1 
    19    9   10 ar
    20    9   35 1 
    21   10   11 ar
    22   10   36 1 
    23   11   12 ar
    24   12   13 1 
    25   13   14 1 
    26   13   37 1 
    27   13   38 1 
    28   14   15 ar
    29   14   28 ar
    30   15   16 ar
    31   15   39 1 
    32   16   17 1 
    33   16   26 ar
    34   17   31 2 
    35   18   19 1 
    36   18   40 1 
    37   18   41 1 
    38   19   42 1 
    39   19   43 1 
    40   20   21 1 
    41   20   44 1 
    42   20   45 1 
    43   21   46 1 
    44   21   47 1 
    45   22   23 1 
    46   22   30 2 
    47   23   24 1 
    48   23   25 1 
    49   23   48 1 
    50   24   25 1 
    51   24   49 1 
    52   24   50 1 
    53   25   51 1 
    54   25   52 1 
    55   26   27 ar
    56   26   32 1 
    57   27   28 ar
    58   27   53 1 
    59   28   54 1 
@<TRIPOS>SUBSTRUCTURE
1 MOL         1
@<TRIPOS>MOLECULE
query molecule
   55    59     1     0     0
SMALL
NO_CHARGE

@<TRIPOS>ATOM
      1 N         -10.3627  -10.8324   -9.3697 N.am      1 MOL    -0.2945
      2 N         -12.3217   -9.4006   -8.4420 N.am      1 MOL    -0.2983
      3 N          -6.8685  -15.8030  -11.0336 N.ar      1 MOL    -0.1750
      4 N          -6.3484  -15.5453  -12.2091 N.ar      1 MOL    -0.2425
      5 C          -5.3063  -14.7212  -12.3872 C.ar      1 MOL     0.2725
      6 C          -4.7479  -14.1095  -11.2837 C.ar      1 MOL     0.0496
      7 C          -3.6748  -13.2272  -11.4148 C.ar      1 MOL     0.0138
      8 C          -3.1467  -12.6111  -10.3007 C.ar      1 MOL     0.0008
      9 C          -3.7276  -12.9102   -9.0865 C.ar      1 MOL     0.0007
     10 C          -4.7928  -13.7832   -8.9418 C.ar      1 MOL     0.0103
     11 C          -5.3063  -14.3896  -10.0502 C.ar      1 MOL     0.0106
     12 C          -6.3705  -15.2362   -9.8917 C.ar      1 MOL     0.0736
     13 C          -6.9960  -15.6567   -8.6447 C.3       1 MOL     0.0925
     14 C          -8.3410  -15.0349   -8.4978 C.ar      1 MOL    -0.0406
     15 C          -8.5724  -13.8975   -9.2918 C.ar      1 MOL     0.0196
     16 C          -9.7808  -13.2471   -9.2185 C.ar      1 MOL     0.0723
     17 C         -10.0533  -12.0454  -10.0389 C.2       1 MOL     0.2495
     18 C         -10.6266   -9.6514  -10.1265 C.3       1 MOL     0.1268
     19 C         -11.5195   -8.6746   -9.3919 C.3       1 MOL     0.1265
     20 C         -11.6094  -10.1047   -7.3703 C.3       1 MOL     0.1265
     21 C         -10.4031  -10.8222   -7.9192 C.3       1 MOL     0.1268
     22 C         -13.7168   -9.4476   -8.5182 C.2       1 MOL     0.2187
     23 C         -14.5660   -8.8131   -9.5298 C.3       1 MOL     0.0752
     24 C         -13.9019   -8.4865  -10.8483 C.3       1 MOL     0.0134
     25 C         -14.3316   -7.4082   -9.9551 C.3       1 MOL     0.0134
     26 C         -10.8057  -13.6504   -8.3958 C.ar      1 MOL     0.1355
     27 C         -10.5781  -14.7638   -7.6190 C.ar      1 MOL     0.0392
     28 C          -9.3459  -15.4292   -7.6905 C.ar      1 MOL     0.0066
     29 O          -4.7930  -14.4627  -13.5059 O.2       1 MOL    -0.2658
     30 O         -14.3394  -10.1131   -7.6155 O.2       1 MOL    -0.2753
     31 O         -10.0186  -12.0692  -11.2907 O.2       1 MOL    -0.2699
     32 F         -11.9881  -12.9697   -8.3584 F         1 MOL    -0.2047
     33 H          -3.2754  -13.0361  -12.3470 H         1 MOL     0.0625
     34 H          -2.3537  -11.9559  -10.3723 H         1 MOL     0.0618
     35 H          -3.3483  -12.4587   -8.2401 H         1 MOL     0.0618
     36 H          -5.1925  -13.9730   -8.0093 H         1 MOL     0.0624
     37 H          -6.3787  -15.3589   -7.8229 H         1 MOL     0.0377
     38 H          -7.1088  -16.7209   -8.6567 H         1 MOL     0.0377
     39 H          -7.8367  -13.5520   -9.9274 H         1 MOL     0.0629
     40 H         -11.1048   -9.9313  -11.0422 H         1 MOL     0.0480
     41 H          -9.6897   -9.1642  -10.3023 H         1 MOL     0.0480
     42 H         -12.1552   -8.1732  -10.0911 H         1 MOL     0.0480
     43 H         -10.9205   -7.9489   -8.8819 H         1 MOL     0.0480
     44 H         -12.2669  -10.8178   -6.9189 H         1 MOL     0.0480
     45 H         -11.2841   -9.3904   -6.6430 H         1 MOL     0.0480
     46 H         -10.4203  -11.8344   -7.5722 H         1 MOL     0.0480
     47 H          -9.5355  -10.2985   -7.5782 H         1 MOL     0.0480
     48 H         -15.4283   -9.3461   -9.1882 H         1 MOL     0.0394
     49 H         -14.4224   -8.6599  -11.7672 H         1 MOL     0.0273
     50 H         -12.9807   -8.7584  -11.3199 H         1 MOL     0.0273
     51 H         -15.1614   -6.7909  -10.2297 H         1 MOL     0.0273
     52 H         -13.8432   -6.5657   -9.5136 H         1 MOL     0.0273
     53 H         -11.3154  -15.1089   -6.9838 H         1 MOL     0.0646
     54 H          -9.2011  -16.2614   -7.0971 H         1 MOL     0.0621
     55 H          -6.7426  -15.9793  -13.0003 H         1 MOL     0.1921
@<TRIPOS>BOND
     1    1   17 am
     2    1   18 1 
     3    1   21 1 
     4    2   19 1 
     5    2   20 1 
     6    2   22 am
     7    3    4 ar
     8    3   12 ar
     9    4    5 ar
    10    4   55 1 
    11    5    6 ar
    12    5   29 2 
    13    6    7 ar
    14    6   11 ar
    15    7    8 ar
    16    7   33 1 
    17    8    9 ar
    18    8   34 1 
    19    9   10 ar
    20    9   35 1 
    21   10   11 ar
    22   10   36 1 
    23   11   12 ar
    24   12   13 1 
    25   13   14 1 
    26   13   37 1 
    27   13   38 1 
    28   14   15 ar
    29   14   28 ar
    30   15   16 ar
    31   15   39 1 
    32   16   17 1 
    33   16   26 ar
    34   17   31 2 
    35   18   19 1 
    36   18   40 1 
    37   18   41 1 
    38   19   42 1 
    39   19   43 1 
    40   20   21 1 
    41   20   44 1 
    42   20   45 1 
    43   21   46 1 
    44   21   47 1 
    45   22   23 1 
    46   22   30 2 
    47   23   24 1 
    48   23   25 1 
    49   23   48 1 
    50   24   25 1 
    51   24   49 1 
    52   24   50 1 
    53   25   51 1 
    54   25   52 1 
    55   26   27 ar
    56   26   32 1 
    57   27   28 ar
    58   27   53 1 
    59   28   54 1 
@<TRIPOS>SUBSTRUCTURE
1 MOL         1
@<TRIPOS>MOLECULE
query molecule
   55    59     1     0     0
SMALL
NO_CHARGE

@<TRIPOS>ATOM
      1 N         -12.2501  -15.0175   29.2642 N.am      1 MOL    -0.2945
      2 N         -14.1612  -15.2202   31.0121 N.am      1 MOL    -0.2983
      3 N         -10.5325  -18.0397   23.7133 N.ar      1 MOL    -0.1750
      4 N         -10.0008  -19.1905   24.0474 N.ar      1 MOL    -0.2425
      5 C          -8.7894  -19.3048   24.6098 C.ar      1 MOL     0.2725
      6 C          -8.0594  -18.1593   24.8519 C.ar      1 MOL     0.0496
      7 C          -6.7850  -18.2228   25.4167 C.ar      1 MOL     0.0138
      8 C          -6.0653  -17.0669   25.6299 C.ar      1 MOL     0.0008
      9 C          -6.6634  -15.8808   25.2603 C.ar      1 MOL     0.0007
     10 C          -7.9269  -15.8030   24.6986 C.ar      1 MOL     0.0103
     11 C          -8.6317  -16.9525   24.4943 C.ar      1 MOL     0.0106
     12 C          -9.8719  -16.8594   23.9219 C.ar      1 MOL     0.0736
     13 C         -10.6004  -15.6484   23.5670 C.3       1 MOL     0.0925
     14 C         -11.6921  -15.3881   24.5457 C.ar      1 MOL    -0.0406
     15 C         -11.2746  -14.9647   25.8201 C.ar      1 MOL     0.0196
     16 C         -12.2087  -14.7092   26.7953 C.ar      1 MOL     0.0723
     17 C         -11.8006  -14.2655   28.1473 C.2       1 MOL     0.2495
     18 C         -11.8734  -14.6235   30.5833 C.3       1 MOL     0.1268
     19 C         -12.8709  -15.0663   31.6321 C.3       1 MOL     0.1265
     20 C         -14.2771  -16.2369   29.9610 C.3       1 MOL     0.1265
     21 C         -13.0889  -16.1793   29.0357 C.3       1 MOL     0.1268
     22 C         -15.2669  -14.4468   31.3776 C.2       1 MOL     0.2187
     23 C         -15.3064  -13.3897   32.3916 C.3       1 MOL     0.0752
     24 C         -14.5798  -13.6792   33.6855 C.3       1 MOL     0.0134
     25 C         -16.0411  -13.5811   33.6696 C.3       1 MOL     0.0134
     26 C         -13.5623  -14.8447   26.5972 C.ar      1 MOL     0.1355
     27 C         -13.9698  -15.2592   25.3494 C.ar      1 MOL     0.0392
     28 C         -13.0194  -15.5218   24.3524 C.ar      1 MOL     0.0066
     29 O          -8.2633  -20.3990   24.9383 O.2       1 MOL    -0.2658
     30 O         -16.3751  -14.6702   30.7717 O.2       1 MOL    -0.2753
     31 O         -11.0789  -13.2583   28.3304 O.2       1 MOL    -0.2699
     32 F         -14.4506  -14.5791   27.5988 F         1 MOL    -0.2047
     33 H          -6.3809  -19.1363   25.6759 H         1 MOL     0.0625
     34 H          -5.1221  -17.0884   26.0462 H         1 MOL     0.0618
     35 H          -6.1412  -15.0039   25.4101 H         1 MOL     0.0618
     36 H          -8.3299  -14.8891   24.4385 H         1 MOL     0.0624
     37 H         -11.0230  -15.7648   22.5908 H         1 MOL     0.0377
     38 H          -9.9220  -14.8208   23.5806 H         1 MOL     0.0377
     39 H         -10.2698  -14.8465   26.0225 H         1 MOL     0.0629
     40 H         -11.7956  -13.5565   30.6129 H         1 MOL     0.0480
     41 H         -10.9384  -15.0947   30.8067 H         1 MOL     0.0480
     42 H         -12.9290  -14.3301   32.4061 H         1 MOL     0.0480
     43 H         -12.5594  -15.9973   32.0585 H         1 MOL     0.0480
     44 H         -15.1697  -16.0618   29.3978 H         1 MOL     0.0480
     45 H         -14.3121  -17.2042   30.4171 H         1 MOL     0.0480
     46 H         -13.4430  -16.1500   28.0263 H         1 MOL     0.0480
     47 H         -12.4930  -17.0468   29.2243 H         1 MOL     0.0480
     48 H         -15.3161  -12.6258   31.6427 H         1 MOL     0.0394
     49 H         -13.9969  -12.9142   34.1548 H         1 MOL     0.0273
     50 H         -13.8730  -14.4148   34.0086 H         1 MOL     0.0273
     51 H         -16.5218  -12.7466   34.1360 H         1 MOL     0.0273
     52 H         -16.8356  -14.2231   33.9855 H         1 MOL     0.0273
     53 H         -14.9757  -15.3766   25.1479 H         1 MOL     0.0646
     54 H         -13.3517  -15.8317   23.4255 H         1 MOL     0.0621
     55 H         -10.5173  -20.0115   23.8773 H         1 MOL     0.1921
@<TRIPOS>BOND
     1    1   17 am
     2    1   18 1 
     3    1   21 1 
     4    2   19 1 
     5    2   20 1 
     6    2   22 am
     7    3    4 ar
     8    3   12 ar
     9    4    5 ar
    10    4   55 1 
    11    5    6 ar
    12    5   29 2 
    13    6    7 ar
    14    6   11 ar
    15    7    8 ar
    16    7   33 1 
    17    8    9 ar
    18    8   34 1 
    19    9   10 ar
    20    9   35 1 
    21   10   11 ar
    22   10   36 1 
    23   11   12 ar
    24   12   13 1 
    25   13   14 1 
    26   13   37 1 
    27   13   38 1 
    28   14   15 ar
    29   14   28 ar
    30   15   16 ar
    31   15   39 1 
    32   16   17 1 
    33   16   26 ar
    34   17   31 2 
    35   18   19 1 
    36   18   40 1 
    37   18   41 1 
    38   19   42 1 
    39   19   43 1 
    40   20   21 1 
    41   20   44 1 
    42   20   45 1 
    43   21   46 1 
    44   21   47 1 
    45   22   23 1 
    46   22   30 2 
    47   23   24 1 
    48   23   25 1 
    49   23   48 1 
    50   24   25 1 
    51   24   49 1 
    52   24   50 1 
    53   25   51 1 
    54   25   52 1 
    55   26   27 ar
    56   26   32 1 
    57   27   28 ar
    58   27   53 1 
    59   28   54 1 
@<TRIPOS>SUBSTRUCTURE
1 MOL         1
@<TRIPOS>MOLECULE
query molecule
   55    59     1     0     0
SMALL
NO_CHARGE

@<TRIPOS>ATOM
      1 N           5.0809   -9.0145   36.0451 N.am      1 MOL    -0.2945
      2 N           3.3746   -7.2075   36.8011 N.am      1 MOL    -0.2983
      3 N           6.1414  -15.2594   39.7980 N.ar      1 MOL    -0.1750
      4 N           6.0503  -16.4906   39.3571 N.ar      1 MOL    -0.2425
      5 C           4.9333  -16.9967   38.8157 C.ar      1 MOL     0.2725
      6 C           3.8198  -16.1883   38.7143 C.ar      1 MOL     0.0496
      7 C           2.6256  -16.6707   38.1775 C.ar      1 MOL     0.0138
      8 C           1.5196  -15.8515   38.1058 C.ar      1 MOL     0.0008
      9 C           1.6615  -14.5660   38.5840 C.ar      1 MOL     0.0007
     10 C           2.8401  -14.0743   39.1196 C.ar      1 MOL     0.0103
     11 C           3.9294  -14.8923   39.1836 C.ar      1 MOL     0.0106
     12 C           5.0816  -14.3959   39.7319 C.ar      1 MOL     0.0736
     13 C           5.3344  -13.0378   40.1950 C.3       1 MOL     0.0925
     14 C           6.1386  -12.2842   39.1937 C.ar      1 MOL    -0.0406
     15 C           5.4094  -11.7205   38.1316 C.ar      1 MOL     0.0196
     16 C           6.0648  -11.0147   37.1512 C.ar      1 MOL     0.0723
     17 C           5.3256  -10.4125   36.0188 C.2       1 MOL     0.2495
     18 C           4.3757   -8.3969   34.9689 C.3       1 MOL     0.1268
     19 C           3.6560   -7.1340   35.3909 C.3       1 MOL     0.1265
     20 C           4.5266   -7.2784   37.7065 C.3       1 MOL     0.1265
     21 C           5.5585   -8.2401   37.1756 C.3       1 MOL     0.1268
     22 C           2.0716   -7.2136   37.3073 C.2       1 MOL     0.2187
     23 C           0.8264   -7.1628   36.5365 C.3       1 MOL     0.0752
     24 C           0.3178   -5.7840   36.1813 C.3       1 MOL     0.0134
     25 C          -0.4216   -6.6174   37.1320 C.3       1 MOL     0.0134
     26 C           7.4256  -10.8195   37.1442 C.ar      1 MOL     0.1355
     27 C           8.1384  -11.3717   38.1843 C.ar      1 MOL     0.0392
     28 C           7.4730  -12.0933   39.1858 C.ar      1 MOL     0.0066
     29 O           4.8270  -18.1740   38.3862 O.2       1 MOL    -0.2658
     30 O           1.9288   -7.2700   38.5808 O.2       1 MOL    -0.2753
     31 O           4.9159  -11.0936   35.0508 O.2       1 MOL    -0.2699
     32 F           8.0301  -10.1109   36.1467 F         1 MOL    -0.2047
     33 H           2.5703  -17.6419   37.8330 H         1 MOL     0.0625
     34 H           0.6264  -16.1850   37.7128 H         1 MOL     0.0618
     35 H           0.8452  -13.9367   38.5409 H         1 MOL     0.0618
     36 H           2.8943  -13.1031   39.4650 H         1 MOL     0.0624
     37 H           5.8699  -13.0752   41.1207 H         1 MOL     0.0377
     38 H           4.3973  -12.5386   40.3292 H         1 MOL     0.0377
     39 H           4.3851  -11.8367   38.0883 H         1 MOL     0.0629
     40 H           3.6555   -9.0911   34.5883 H         1 MOL     0.0480
     41 H           5.0955   -8.1256   34.2243 H         1 MOL     0.0480
     42 H           2.7403   -7.0430   34.8455 H         1 MOL     0.0480
     43 H           4.2701   -6.2814   35.1871 H         1 MOL     0.0480
     44 H           4.1988   -7.6110   38.6690 H         1 MOL     0.0480
     45 H           4.9681   -6.3066   37.7822 H         1 MOL     0.0480
     46 H           5.8315   -8.9154   37.9595 H         1 MOL     0.0480
     47 H           6.3924   -7.6621   36.8386 H         1 MOL     0.0480
     48 H           1.0645   -8.0739   36.0290 H         1 MOL     0.0394
     49 H          -0.0850   -5.5965   35.2077 H         1 MOL     0.0273
     50 H           0.7303   -4.7968   36.1998 H         1 MOL     0.0273
     51 H          -1.3683   -7.0298   36.8514 H         1 MOL     0.0273
     52 H          -0.7725   -6.4767   38.1321 H         1 MOL     0.0273
     53 H           9.1634  -11.2541   38.2268 H         1 MOL     0.0646
     54 H           8.0313  -12.4973   39.9543 H         1 MOL     0.0621
     55 H           6.8420  -17.0721   39.4265 H         1 MOL     0.1921
@<TRIPOS>BOND
     1    1   17 am
     2    1   18 1 
     3    1   21 1 
     4    2   19 1 
     5    2   20 1 
     6    2   22 am
     7    3    4 ar
     8    3   12 ar
     9    4    5 ar
    10    4   55 1 
    11    5    6 ar
    12    5   29 2 
    13    6    7 ar
    14    6   11 ar
    15    7    8 ar
    16    7   33 1 
    17    8    9 ar
    18    8   34 1 
    19    9   10 ar
    20    9   35 1 
    21   10   11 ar
    22   10   36 1 
    23   11   12 ar
    24   12   13 1 
    25   13   14 1 
    26   13   37 1 
    27   13   38 1 
    28   14   15 ar
    29   14   28 ar
    30   15   16 ar
    31   15   39 1 
    32   16   17 1 
    33   16   26 ar
    34   17   31 2 
    35   18   19 1 
    36   18   40 1 
    37   18   41 1 
    38   19   42 1 
    39   19   43 1 
    40   20   21 1 
    41   20   44 1 
    42   20   45 1 
    43   21   46 1 
    44   21   47 1 
    45   22   23 1 
    46   22   30 2 
    47   23   24 1 
    48   23   25 1 
    49   23   48 1 
    50   24   25 1 
    51   24   49 1 
    52   24   50 1 
    53   25   51 1 
    54   25   52 1 
    55   26   27 ar
    56   26   32 1 
    57   27   28 ar
    58   27   53 1 
    59   28   54 1 
@<TRIPOS>SUBSTRUCTURE
1 MOL         1
@<TRIPOS>MOLECULE
query molecule
   55    59     1     0     0
SMALL
NO_CHARGE

@<TRIPOS>ATOM
      1 N         -16.2194   -8.7699   19.4638 N.am      1 MOL    -0.2945
      2 N         -16.5095   -6.6130   20.8824 N.am      1 MOL    -0.2983
      3 N         -12.1611   -5.7916   16.2866 N.ar      1 MOL    -0.1750
      4 N         -11.0113   -5.6653   16.9036 N.ar      1 MOL    -0.2425
      5 C         -10.0168   -6.5574   16.7948 C.ar      1 MOL     0.2725
      6 C         -10.2048   -7.6666   15.9960 C.ar      1 MOL     0.0496
      7 C          -9.2101   -8.6362   15.8634 C.ar      1 MOL     0.0138
      8 C          -9.4281   -9.7467   15.0768 C.ar      1 MOL     0.0008
      9 C         -10.6527   -9.8383   14.4499 C.ar      1 MOL     0.0007
     10 C         -11.6489   -8.8841   14.5728 C.ar      1 MOL     0.0103
     11 C         -11.4221   -7.7877   15.3514 C.ar      1 MOL     0.0106
     12 C         -12.4238   -6.8628   15.4762 C.ar      1 MOL     0.0736
     13 C         -13.7134   -6.8495   14.7981 C.3       1 MOL     0.0925
     14 C         -14.5670   -7.9730   15.2740 C.ar      1 MOL    -0.0406
     15 C         -14.5515   -8.1994   16.6619 C.ar      1 MOL     0.0196
     16 C         -15.2996   -9.2211   17.1961 C.ar      1 MOL     0.0723
     17 C         -15.3015   -9.4868   18.6524 C.2       1 MOL     0.2495
     18 C         -16.2543   -9.0023   20.8716 C.3       1 MOL     0.1268
     19 C         -16.7605   -7.8060   21.6485 C.3       1 MOL     0.1265
     20 C         -17.1823   -6.5027   19.5835 C.3       1 MOL     0.1265
     21 C         -17.1084   -7.8096   18.8366 C.3       1 MOL     0.1268
     22 C         -15.6662   -5.5939   21.3346 C.2       1 MOL     0.2187
     23 C         -14.9169   -5.5637   22.5935 C.3       1 MOL     0.0752
     24 C         -15.6416   -4.9840   23.7872 C.3       1 MOL     0.0134
     25 C         -14.4994   -4.2751   23.2058 C.3       1 MOL     0.0134
     26 C         -16.0838  -10.0578   16.4379 C.ar      1 MOL     0.1355
     27 C         -16.0982   -9.8353   15.0795 C.ar      1 MOL     0.0392
     28 C         -15.3353   -8.7943   14.5311 C.ar      1 MOL     0.0066
     29 O          -8.9071   -6.4531   17.3774 O.2       1 MOL    -0.2658
     30 O         -15.5184   -4.5665   20.5811 O.2       1 MOL    -0.2753
     31 O         -14.5259  -10.3160   19.1811 O.2       1 MOL    -0.2699
     32 F         -16.8085  -11.0595   17.0161 F         1 MOL    -0.2047
     33 H          -8.3096   -8.5214   16.3542 H         1 MOL     0.0625
     34 H          -8.7082  -10.4762   14.9631 H         1 MOL     0.0618
     35 H         -10.8369  -10.6625   13.8574 H         1 MOL     0.0618
     36 H         -12.5497   -9.0002   14.0825 H         1 MOL     0.0624
     37 H         -13.5581   -6.9474   13.7439 H         1 MOL     0.0377
     38 H         -14.2083   -5.9259   15.0153 H         1 MOL     0.0377
     39 H         -13.9799   -7.6004   17.2775 H         1 MOL     0.0629
     40 H         -15.2640   -9.2337   21.2051 H         1 MOL     0.0480
     41 H         -16.9308   -9.8129   21.0486 H         1 MOL     0.0480
     42 H         -16.2505   -7.7450   22.5868 H         1 MOL     0.0480
     43 H         -17.8106   -7.9082   21.8279 H         1 MOL     0.0480
     44 H         -16.7071   -5.7395   19.0038 H         1 MOL     0.0480
     45 H         -18.2109   -6.2565   19.7460 H         1 MOL     0.0480
     46 H         -16.7559   -7.6169   17.8448 H         1 MOL     0.0480
     47 H         -18.0896   -8.2346   18.8356 H         1 MOL     0.0480
     48 H         -14.3965   -6.4644   22.3439 H         1 MOL     0.0394
     49 H         -15.5509   -5.4498   24.7464 H         1 MOL     0.0273
     50 H         -16.6582   -4.7321   24.0066 H         1 MOL     0.0273
     51 H         -13.5786   -4.2183   23.7479 H         1 MOL     0.0273
     52 H         -14.3474   -3.2850   22.8319 H         1 MOL     0.0273
     53 H         -16.6712  -10.4351   14.4647 H         1 MOL     0.0646
     54 H         -15.3637   -8.6493   13.5094 H         1 MOL     0.0621
     55 H         -10.8713   -4.8754   17.4749 H         1 MOL     0.1921
@<TRIPOS>BOND
     1    1   17 am
     2    1   18 1 
     3    1   21 1 
     4    2   19 1 
     5    2   20 1 
     6    2   22 am
     7    3    4 ar
     8    3   12 ar
     9    4    5 ar
    10    4   55 1 
    11    5    6 ar
    12    5   29 2 
    13    6    7 ar
    14    6   11 ar
    15    7    8 ar
    16    7   33 1 
    17    8    9 ar
    18    8   34 1 
    19    9   10 ar
    20    9   35 1 
    21   10   11 ar
    22   10   36 1 
    23   11   12 ar
    24   12   13 1 
    25   13   14 1 
    26   13   37 1 
    27   13   38 1 
    28   14   15 ar
    29   14   28 ar
    30   15   16 ar
    31   15   39 1 
    32   16   17 1 
    33   16   26 ar
    34   17   31 2 
    35   18   19 1 
    36   18   40 1 
    37   18   41 1 
    38   19   42 1 
    39   19   43 1 
    40   20   21 1 
    41   20   44 1 
    42   20   45 1 
    43   21   46 1 
    44   21   47 1 
    45   22   23 1 
    46   22   30 2 
    47   23   24 1 
    48   23   25 1 
    49   23   48 1 
    50   24   25 1 
    51   24   49 1 
    52   24   50 1 
    53   25   51 1 
    54   25   52 1 
    55   26   27 ar
    56   26   32 1 
    57   27   28 ar
    58   27   53 1 
    59   28   54 1 
@<TRIPOS>SUBSTRUCTURE
1 MOL         1
@<TRIPOS>MOLECULE
query molecule
   55    59     1     0     0
SMALL
NO_CHARGE

@<TRIPOS>ATOM
      1 N          31.2680    7.9846   17.6849 N.am      1 MOL    -0.2945
      2 N          32.3499    7.5673   20.0095 N.am      1 MOL    -0.2983
      3 N          35.1529    5.1296   11.3442 N.ar      1 MOL    -0.1750
      4 N          36.1537    5.2568   10.5070 N.ar      1 MOL    -0.2425
      5 C          37.4065    5.5331   10.8956 C.ar      1 MOL     0.2725
      6 C          37.6637    5.6936   12.2416 C.ar      1 MOL     0.0496
      7 C          38.9455    6.0019   12.6987 C.ar      1 MOL     0.0138
      8 C          39.1747    6.1788   14.0462 C.ar      1 MOL     0.0008
      9 C          38.0920    6.0382   14.8883 C.ar      1 MOL     0.0007
     10 C          36.8147    5.7330   14.4487 C.ar      1 MOL     0.0103
     11 C          36.5992    5.5574   13.1135 C.ar      1 MOL     0.0106
     12 C          35.3272    5.2734   12.6941 C.ar      1 MOL     0.0736
     13 C          34.1483    5.0419   13.5185 C.3       1 MOL     0.0925
     14 C          33.5115    6.3339   13.8961 C.ar      1 MOL    -0.0406
     15 C          32.5754    6.2645   14.9433 C.ar      1 MOL     0.0196
     16 C          31.9266    7.4033   15.3567 C.ar      1 MOL     0.0723
     17 C          30.9337    7.3620   16.4538 C.2       1 MOL     0.2495
     18 C          30.3345    7.9698   18.7644 C.3       1 MOL     0.1268
     19 C          31.0051    8.0704   20.1176 C.3       1 MOL     0.1265
     20 C          33.2585    8.2856   19.1093 C.3       1 MOL     0.1265
     21 C          32.5623    8.6273   17.8170 C.3       1 MOL     0.1268
     22 C          32.7916    6.4468   20.7191 C.2       1 MOL     0.2187
     23 C          32.0058    5.6203   21.6392 C.3       1 MOL     0.0752
     24 C          31.6882    6.2360   22.9831 C.3       1 MOL     0.0134
     25 C          32.6014    5.0943   22.8955 C.3       1 MOL     0.0134
     26 C          32.1418    8.6398   14.7956 C.ar      1 MOL     0.1355
     27 C          33.0582    8.7065   13.7706 C.ar      1 MOL     0.0392
     28 C          33.7213    7.5463   13.3456 C.ar      1 MOL     0.0066
     29 O          38.3793    5.6575   10.1082 O.2       1 MOL    -0.2658
     30 O          34.0124    6.0865   20.5612 O.2       1 MOL    -0.2753
     31 O          29.8212    6.8005   16.3272 O.2       1 MOL    -0.2699
     32 F          31.4713    9.7417   15.2415 F         1 MOL    -0.2047
     33 H          39.7233    6.0970   12.0271 H         1 MOL     0.0625
     34 H          40.1131    6.4066   14.4078 H         1 MOL     0.0618
     35 H          38.2416    6.1679   15.9007 H         1 MOL     0.0618
     36 H          36.0371    5.6392   15.1208 H         1 MOL     0.0624
     37 H          34.4365    4.5187   14.4063 H         1 MOL     0.0377
     38 H          33.4440    4.4621   12.9589 H         1 MOL     0.0377
     39 H          32.3761    5.3609   15.3999 H         1 MOL     0.0629
     40 H          29.7789    7.0560   18.7242 H         1 MOL     0.0480
     41 H          29.6991    8.8243   18.6540 H         1 MOL     0.0480
     42 H          30.4604    7.4905   20.8326 H         1 MOL     0.0480
     43 H          31.0241    9.0915   20.4379 H         1 MOL     0.0480
     44 H          34.1069    7.6689   18.8988 H         1 MOL     0.0480
     45 H          33.5700    9.1930   19.5832 H         1 MOL     0.0480
     46 H          33.1818    8.3152   17.0022 H         1 MOL     0.0480
     47 H          32.3976    9.6837   17.8109 H         1 MOL     0.0480
     48 H          31.4726    5.1675   20.8298 H         1 MOL     0.0394
     49 H          30.7157    6.1120   23.4122 H         1 MOL     0.0273
     50 H          31.7441    7.2213   23.3966 H         1 MOL     0.0273
     51 H          32.2948    4.1398   23.2697 H         1 MOL     0.0273
     52 H          33.6006    4.9107   23.2287 H         1 MOL     0.0273
     53 H          33.2573    9.6115   13.3149 H         1 MOL     0.0646
     54 H          34.4034    7.6241   12.5748 H         1 MOL     0.0621
     55 H          35.9762    5.1429    9.5451 H         1 MOL     0.1921
@<TRIPOS>BOND
     1    1   17 am
     2    1   18 1 
     3    1   21 1 
     4    2   19 1 
     5    2   20 1 
     6    2   22 am
     7    3    4 ar
     8    3   12 ar
     9    4    5 ar
    10    4   55 1 
    11    5    6 ar
    12    5   29 2 
    13    6    7 ar
    14    6   11 ar
    15    7    8 ar
    16    7   33 1 
    17    8    9 ar
    18    8   34 1 
    19    9   10 ar
    20    9   35 1 
    21   10   11 ar
    22   10   36 1 
    23   11   12 ar
    24   12   13 1 
    25   13   14 1 
    26   13   37 1 
    27   13   38 1 
    28   14   15 ar
    29   14   28 ar
    30   15   16 ar
    31   15   39 1 
    32   16   17 1 
    33   16   26 ar
    34   17   31 2 
    35   18   19 1 
    36   18   40 1 
    37   18   41 1 
    38   19   42 1 
    39   19   43 1 
    40   20   21 1 
    41   20   44 1 
    42   20   45 1 
    43   21   46 1 
    44   21   47 1 
    45   22   23 1 
    46   22   30 2 
    47   23   24 1 
    48   23   25 1 
    49   23   48 1 
    50   24   25 1 
    51   24   49 1 
    52   24   50 1 
    53   25   51 1 
    54   25   52 1 
    55   26   27 ar
    56   26   32 1 
    57   27   28 ar
    58   27   53 1 
    59   28   54 1 
@<TRIPOS>SUBSTRUCTURE
1 MOL         1
@<TRIPOS>MOLECULE
query molecule
   55    59     1     0     0
SMALL
NO_CHARGE

@<TRIPOS>ATOM
      1 N         -10.2891   13.3109   12.5133 N.am      1 MOL    -0.2945
      2 N         -12.0241   11.4805   13.1360 N.am      1 MOL    -0.2983
      3 N          -9.5564   12.9860    7.4619 N.ar      1 MOL    -0.1750
      4 N          -9.9308   11.9067    6.8188 N.ar      1 MOL    -0.2425
      5 C          -9.7791   11.7491    5.4963 C.ar      1 MOL     0.2725
      6 C          -9.2013   12.7690    4.7685 C.ar      1 MOL     0.0496
      7 C          -9.0379   12.6653    3.3866 C.ar      1 MOL     0.0138
      8 C          -8.4777   13.7056    2.6770 C.ar      1 MOL     0.0008
      9 C          -8.1019   14.8212    3.3949 C.ar      1 MOL     0.0007
     10 C          -8.2585   14.9380    4.7659 C.ar      1 MOL     0.0103
     11 C          -8.8115   13.9018    5.4590 C.ar      1 MOL     0.0106
     12 C          -8.9752   14.0405    6.8112 C.ar      1 MOL     0.0736
     13 C          -8.5457   15.1509    7.6511 C.3       1 MOL     0.0925
     14 C          -9.5977   15.4904    8.6487 C.ar      1 MOL    -0.0406
     15 C          -9.3923   14.9803    9.9430 C.ar      1 MOL     0.0196
     16 C         -10.3141   15.2313   10.9309 C.ar      1 MOL     0.0723
     17 C         -10.1278   14.7053   12.3020 C.2       1 MOL     0.2495
     18 C         -10.1128   12.7658   13.8205 C.3       1 MOL     0.1268
     19 C         -10.8961   11.4879   14.0308 C.3       1 MOL     0.1265
     20 C         -11.7328   11.4853   11.6983 C.3       1 MOL     0.1265
     21 C         -10.6320   12.4656   11.3846 C.3       1 MOL     0.1268
     22 C         -13.3451   11.4705   13.5932 C.2       1 MOL     0.2187
     23 C         -13.7950   11.4789   14.9877 C.3       1 MOL     0.0752
     24 C         -13.7605   10.1497   15.7076 C.3       1 MOL     0.0134
     25 C         -15.0437   10.7823   15.3941 C.3       1 MOL     0.0134
     26 C         -11.4551   15.9707   10.7276 C.ar      1 MOL     0.1355
     27 C         -11.6552   16.4696    9.4603 C.ar      1 MOL     0.0392
     28 C         -10.7172   16.2144    8.4497 C.ar      1 MOL     0.0066
     29 O         -10.1305   10.7214    4.8622 O.2       1 MOL    -0.2658
     30 O         -14.2785   11.4528   12.7137 O.2       1 MOL    -0.2753
     31 O          -9.8353   15.4470   13.2681 O.2       1 MOL    -0.2699
     32 F         -12.3411   16.1916   11.7419 F         1 MOL    -0.2047
     33 H          -9.3362   11.8083    2.8951 H         1 MOL     0.0625
     34 H          -8.3463   13.6520    1.6557 H         1 MOL     0.0618
     35 H          -7.6817   15.6120    2.8827 H         1 MOL     0.0618
     36 H          -7.9609   15.7959    5.2566 H         1 MOL     0.0624
     37 H          -8.3554   16.0052    7.0355 H         1 MOL     0.0377
     38 H          -7.6563   14.8651    8.1733 H         1 MOL     0.0377
     39 H          -8.5519   14.4187   10.1503 H         1 MOL     0.0629
     40 H         -10.4371   13.4891   14.5397 H         1 MOL     0.0480
     41 H          -9.0745   12.5315   13.9356 H         1 MOL     0.0480
     42 H         -11.2392   11.4392   15.0427 H         1 MOL     0.0480
     43 H         -10.2703   10.6424   13.8332 H         1 MOL     0.0480
     44 H         -12.6148   11.7636   11.1605 H         1 MOL     0.0480
     45 H         -11.4156   10.5060   11.4058 H         1 MOL     0.0480
     46 H         -10.9507   13.0903   10.5763 H         1 MOL     0.0480
     47 H          -9.7607   11.8998   11.1318 H         1 MOL     0.0480
     48 H         -13.4216   12.4701   15.1370 H         1 MOL     0.0394
     49 H         -13.4222   10.0989   16.7217 H         1 MOL     0.0273
     50 H         -13.3186    9.1947   15.5133 H         1 MOL     0.0273
     51 H         -15.6436   11.1847   16.1835 H         1 MOL     0.0273
     52 H         -15.9249   10.4664   14.8773 H         1 MOL     0.0273
     53 H         -12.4964   17.0319    9.2543 H         1 MOL     0.0646
     54 H         -10.8916   16.5999    7.5081 H         1 MOL     0.0621
     55 H         -10.3435   11.1752    7.3331 H         1 MOL     0.1921
@<TRIPOS>BOND
     1    1   17 am
     2    1   18 1 
     3    1   21 1 
     4    2   19 1 
     5    2   20 1 
     6    2   22 am
     7    3    4 ar
     8    3   12 ar
     9    4    5 ar
    10    4   55 1 
    11    5    6 ar
    12    5   29 2 
    13    6    7 ar
    14    6   11 ar
    15    7    8 ar
    16    7   33 1 
    17    8    9 ar
    18    8   34 1 
    19    9   10 ar
    20    9   35 1 
    21   10   11 ar
    22   10   36 1 
    23   11   12 ar
    24   12   13 1 
    25   13   14 1 
    26   13   37 1 
    27   13   38 1 
    28   14   15 ar
    29   14   28 ar
    30   15   16 ar
    31   15   39 1 
    32   16   17 1 
    33   16   26 ar
    34   17   31 2 
    35   18   19 1 
    36   18   40 1 
    37   18   41 1 
    38   19   42 1 
    39   19   43 1 
    40   20   21 1 
    41   20   44 1 
    42   20   45 1 
    43   21   46 1 
    44   21   47 1 
    45   22   23 1 
    46   22   30 2 
    47   23   24 1 
    48   23   25 1 
    49   23   48 1 
    50   24   25 1 
    51   24   49 1 
    52   24   50 1 
    53   25   51 1 
    54   25   52 1 
    55   26   27 ar
    56   26   32 1 
    57   27   28 ar
    58   27   53 1 
    59   28   54 1 
@<TRIPOS>SUBSTRUCTURE
1 MOL         1
@<TRIPOS>MOLECULE
query molecule
   55    59     1     0     0
SMALL
NO_CHARGE

@<TRIPOS>ATOM
      1 N          26.1746    5.1619   15.4210 N.am      1 MOL    -0.2945
      2 N          28.6941    4.5386   15.3121 N.am      1 MOL    -0.2983
      3 N          21.1816   -0.2561   17.5635 N.ar      1 MOL    -0.1750
      4 N          20.0748   -0.9151   17.3196 N.ar      1 MOL    -0.2425
      5 C          18.8798   -0.5502   17.8050 C.ar      1 MOL     0.2725
      6 C          18.8024    0.5733   18.6021 C.ar      1 MOL     0.0496
      7 C          17.5871    0.9861   19.1497 C.ar      1 MOL     0.0138
      8 C          17.5371    2.0994   19.9606 C.ar      1 MOL     0.0008
      9 C          18.7260    2.7587   20.1914 C.ar      1 MOL     0.0007
     10 C          19.9390    2.3602   19.6550 C.ar      1 MOL     0.0103
     11 C          19.9770    1.2587   18.8518 C.ar      1 MOL     0.0106
     12 C          21.1870    0.8682   18.3440 C.ar      1 MOL     0.0736
     13 C          22.4708    1.5435   18.4822 C.3       1 MOL     0.0925
     14 C          22.8729    2.1727   17.1940 C.ar      1 MOL    -0.0406
     15 C          23.7197    3.2901   17.3041 C.ar      1 MOL     0.0196
     16 C          24.1371    3.9456   16.1706 C.ar      1 MOL     0.0723
     17 C          25.0256    5.1267   16.2539 C.2       1 MOL     0.2495
     18 C          27.0525    6.2861   15.4696 C.3       1 MOL     0.1268
     19 C          28.4689    5.9389   15.0642 C.3       1 MOL     0.1265
     20 C          27.8672    3.5885   14.5602 C.3       1 MOL     0.1265
     21 C          26.4309    4.0439   14.5320 C.3       1 MOL     0.1268
     22 C          29.6505    4.0818   16.2237 C.2       1 MOL     0.2187
     23 C          30.5373    4.9003   17.0548 C.3       1 MOL     0.0752
     24 C          31.4393    5.8647   16.3184 C.3       1 MOL     0.0134
     25 C          32.0114    4.7121   17.0181 C.3       1 MOL     0.0134
     26 C          23.7692    3.5665   14.9014 C.ar      1 MOL     0.1355
     27 C          22.9403    2.4727   14.7948 C.ar      1 MOL     0.0392
     28 C          22.5117    1.8022   15.9493 C.ar      1 MOL     0.0066
     29 O          17.8076   -1.1683   17.5813 O.2       1 MOL    -0.2658
     30 O          29.7810    2.8134   16.3628 O.2       1 MOL    -0.2753
     31 O          24.7943    6.0834   17.0285 O.2       1 MOL    -0.2699
     32 F          24.2103    4.2513   13.8063 F         1 MOL    -0.2047
     33 H          16.7242    0.4576   18.9468 H         1 MOL     0.0625
     34 H          16.6511    2.4240   20.3762 H         1 MOL     0.0618
     35 H          18.7109    3.5938   20.7967 H         1 MOL     0.0618
     36 H          20.8017    2.8887   19.8593 H         1 MOL     0.0624
     37 H          23.2141    0.8309   18.7732 H         1 MOL     0.0377
     38 H          22.3802    2.3086   19.2250 H         1 MOL     0.0377
     39 H          24.0264    3.6171   18.2333 H         1 MOL     0.0629
     40 H          27.0657    6.6673   16.4696 H         1 MOL     0.0480
     41 H          26.6859    7.0127   14.7741 H         1 MOL     0.0480
     42 H          29.1595    6.5214   15.6370 H         1 MOL     0.0480
     43 H          28.6109    6.1512   14.0249 H         1 MOL     0.0480
     44 H          27.9218    2.6272   15.0266 H         1 MOL     0.0480
     45 H          28.2306    3.5325   13.5553 H         1 MOL     0.0480
     46 H          25.8071    3.2256   14.8260 H         1 MOL     0.0480
     47 H          26.2173    4.3707   13.5366 H         1 MOL     0.0480
     48 H          29.8179    4.9357   17.8458 H         1 MOL     0.0394
     49 H          31.5920    6.8527   16.7004 H         1 MOL     0.0273
     50 H          31.4863    6.2447   15.3192 H         1 MOL     0.0273
     51 H          32.5885    4.8637   17.9063 H         1 MOL     0.0273
     52 H          32.6548    3.9083   16.7299 H         1 MOL     0.0273
     53 H          22.6346    2.1461   13.8642 H         1 MOL     0.0646
     54 H          21.8902    0.9851   15.8413 H         1 MOL     0.0621
     55 H          20.1239   -1.7177   16.7510 H         1 MOL     0.1921
@<TRIPOS>BOND
     1    1   17 am
     2    1   18 1 
     3    1   21 1 
     4    2   19 1 
     5    2   20 1 
     6    2   22 am
     7    3    4 ar
     8    3   12 ar
     9    4    5 ar
    10    4   55 1 
    11    5    6 ar
    12    5   29 2 
    13    6    7 ar
    14    6   11 ar
    15    7    8 ar
    16    7   33 1 
    17    8    9 ar
    18    8   34 1 
    19    9   10 ar
    20    9   35 1 
    21   10   11 ar
    22   10   36 1 
    23   11   12 ar
    24   12   13 1 
    25   13   14 1 
    26   13   37 1 
    27   13   38 1 
    28   14   15 ar
    29   14   28 ar
    30   15   16 ar
    31   15   39 1 
    32   16   17 1 
    33   16   26 ar
    34   17   31 2 
    35   18   19 1 
    36   18   40 1 
    37   18   41 1 
    38   19   42 1 
    39   19   43 1 
    40   20   21 1 
    41   20   44 1 
    42   20   45 1 
    43   21   46 1 
    44   21   47 1 
    45   22   23 1 
    46   22   30 2 
    47   23   24 1 
    48   23   25 1 
    49   23   48 1 
    50   24   25 1 
    51   24   49 1 
    52   24   50 1 
    53   25   51 1 
    54   25   52 1 
    55   26   27 ar
    56   26   32 1 
    57   27   28 ar
    58   27   53 1 
    59   28   54 1 
@<TRIPOS>SUBSTRUCTURE
1 MOL         1
@<TRIPOS>MOLECULE
query molecule
   55    59     1     0     0
SMALL
NO_CHARGE

@<TRIPOS>ATOM
      1 N           0.8341   11.6025    2.6487 N.am      1 MOL    -0.2945
      2 N          -1.6374   12.2630    2.1971 N.am      1 MOL    -0.2983
      3 N           7.1554   13.2647   -1.4649 N.ar      1 MOL    -0.1750
      4 N           7.2793   13.6666   -2.7065 N.ar      1 MOL    -0.2425
      5 C           6.3697   13.4089   -3.6569 C.ar      1 MOL     0.2725
      6 C           5.2446   12.6851   -3.3196 C.ar      1 MOL     0.0496
      7 C           4.2763   12.3718   -4.2743 C.ar      1 MOL     0.0138
      8 C           3.1708   11.6292   -3.9193 C.ar      1 MOL     0.0008
      9 C           3.0844   11.2263   -2.6035 C.ar      1 MOL     0.0007
     10 C           4.0377   11.5296   -1.6459 C.ar      1 MOL     0.0103
     11 C           5.1265   12.2671   -2.0069 C.ar      1 MOL     0.0106
     12 C           6.0681   12.5431   -1.0521 C.ar      1 MOL     0.0736
     13 C           6.0203   12.2156    0.3669 C.3       1 MOL     0.0925
     14 C           4.9346   12.9775    1.0439 C.ar      1 MOL    -0.0406
     15 C           4.0390   12.2070    1.8067 C.ar      1 MOL     0.0196
     16 C           2.9968   12.8189    2.4611 C.ar      1 MOL     0.0723
     17 C           2.0354   12.0350    3.2688 C.2       1 MOL     0.2495
     18 C          -0.1151   10.8404    3.3938 C.3       1 MOL     0.1268
     19 C          -1.5275   10.9963    2.8726 C.3       1 MOL     0.1265
     20 C          -0.7979   12.4590    1.0102 C.3       1 MOL     0.1265
     21 C           0.5981   11.9486    1.2593 C.3       1 MOL     0.1268
     22 C          -2.4969   13.2751    2.6344 C.2       1 MOL     0.2187
     23 C          -3.3815   13.2365    3.8019 C.3       1 MOL     0.0752
     24 C          -4.8659   13.2382    3.5143 C.3       1 MOL     0.0134
     25 C          -4.2397   14.3988    4.1516 C.3       1 MOL     0.0134
     26 C           2.7695   14.1740    2.4159 C.ar      1 MOL     0.1355
     27 C           3.6468   14.9272    1.6689 C.ar      1 MOL     0.0392
     28 C           4.7107   14.3059    0.9991 C.ar      1 MOL     0.0066
     29 O           6.4703   13.7867   -4.8523 O.2       1 MOL    -0.2658
     30 O          -2.5289   14.3626    1.9551 O.2       1 MOL    -0.2753
     31 O           2.2503   11.7464    4.4686 O.2       1 MOL    -0.2699
     32 F           1.7191   14.7345    3.0832 F         1 MOL    -0.2047
     33 H           4.3875   12.6970   -5.2474 H         1 MOL     0.0625
     34 H           2.4418   11.3856   -4.6068 H         1 MOL     0.0618
     35 H           2.2654   10.6683   -2.3171 H         1 MOL     0.0618
     36 H           3.9264   11.2030   -0.6731 H         1 MOL     0.0624
     37 H           6.9585   12.4639    0.8176 H         1 MOL     0.0377
     38 H           5.8236   11.1690    0.4733 H         1 MOL     0.0377
     39 H           4.1637   11.1851    1.8746 H         1 MOL     0.0629
     40 H          -0.0884   11.1633    4.4139 H         1 MOL     0.0480
     41 H           0.1529    9.8083    3.2985 H         1 MOL     0.0480
     42 H          -2.2176   10.9629    3.6893 H         1 MOL     0.0480
     43 H          -1.7528   10.2012    2.1925 H         1 MOL     0.0480
     44 H          -0.7541   13.5023    0.7775 H         1 MOL     0.0480
     45 H          -1.2225   11.9157    0.1920 H         1 MOL     0.0480
     46 H           1.2957   12.7086    0.9748 H         1 MOL     0.0480
     47 H           0.7217   11.0573    0.6817 H         1 MOL     0.0480
     48 H          -2.6826   12.6435    4.3535 H         1 MOL     0.0394
     49 H          -5.5209   12.6066    4.0775 H         1 MOL     0.0273
     50 H          -5.4684   13.0850    2.6434 H         1 MOL     0.0273
     51 H          -4.4470   14.6160    5.1787 H         1 MOL     0.0273
     52 H          -4.2075   15.4444    3.9306 H         1 MOL     0.0273
     53 H           3.5212   15.9499    1.6022 H         1 MOL     0.0646
     54 H           5.3538   14.8938    0.4456 H         1 MOL     0.0621
     55 H           8.0802   14.1839   -2.9530 H         1 MOL     0.1921
@<TRIPOS>BOND
     1    1   17 am
     2    1   18 1 
     3    1   21 1 
     4    2   19 1 
     5    2   20 1 
     6    2   22 am
     7    3    4 ar
     8    3   12 ar
     9    4    5 ar
    10    4   55 1 
    11    5    6 ar
    12    5   29 2 
    13    6    7 ar
    14    6   11 ar
    15    7    8 ar
    16    7   33 1 
    17    8    9 ar
    18    8   34 1 
    19    9   10 ar
    20    9   35 1 
    21   10   11 ar
    22   10   36 1 
    23   11   12 ar
    24   12   13 1 
    25   13   14 1 
    26   13   37 1 
    27   13   38 1 
    28   14   15 ar
    29   14   28 ar
    30   15   16 ar
    31   15   39 1 
    32   16   17 1 
    33   16   26 ar
    34   17   31 2 
    35   18   19 1 
    36   18   40 1 
    37   18   41 1 
    38   19   42 1 
    39   19   43 1 
    40   20   21 1 
    41   20   44 1 
    42   20   45 1 
    43   21   46 1 
    44   21   47 1 
    45   22   23 1 
    46   22   30 2 
    47   23   24 1 
    48   23   25 1 
    49   23   48 1 
    50   24   25 1 
    51   24   49 1 
    52   24   50 1 
    53   25   51 1 
    54   25   52 1 
    55   26   27 ar
    56   26   32 1 
    57   27   28 ar
    58   27   53 1 
    59   28   54 1 
@<TRIPOS>SUBSTRUCTURE
1 MOL         1
@<TRIPOS>MOLECULE
query molecule
   55    59     1     0     0
SMALL
NO_CHARGE

@<TRIPOS>ATOM
      1 N          33.8944    3.0694   40.8008 N.am      1 MOL    -0.2945
      2 N          32.5833    5.1711   40.0185 N.am      1 MOL    -0.2983
      3 N          40.2631    1.9886   37.5775 N.ar      1 MOL    -0.1750
      4 N          40.7151    2.7104   36.5808 N.ar      1 MOL    -0.2425
      5 C          39.9226    3.2421   35.6395 C.ar      1 MOL     0.2725
      6 C          38.5625    3.0230   35.7160 C.ar      1 MOL     0.0496
      7 C          37.6945    3.5364   34.7516 C.ar      1 MOL     0.0138
      8 C          36.3417    3.2869   34.8365 C.ar      1 MOL     0.0008
      9 C          35.9127    2.5209   35.8997 C.ar      1 MOL     0.0007
     10 C          36.7626    2.0048   36.8636 C.ar      1 MOL     0.0103
     11 C          38.0992    2.2598   36.7718 C.ar      1 MOL     0.0106
     12 C          38.9276    1.7274   37.7231 C.ar      1 MOL     0.0736
     13 C          38.5506    0.9693   38.9090 C.3       1 MOL     0.0925
     14 C          38.1305    1.8859   40.0048 C.ar      1 MOL    -0.0406
     15 C          36.7698    1.8276   40.3548 C.ar      1 MOL     0.0196
     16 C          36.2841    2.6434   41.3485 C.ar      1 MOL     0.0723
     17 C          34.8562    2.6079   41.7373 C.2       1 MOL     0.2495
     18 C          32.5076    3.0461   41.1376 C.3       1 MOL     0.1268
     19 C          31.7073    4.0901   40.3888 C.3       1 MOL     0.1265
     20 C          33.6875    4.8503   39.1077 C.3       1 MOL     0.1265
     21 C          34.3484    3.5577   39.5120 C.3       1 MOL     0.1268
     22 C          32.4097    6.4744   40.4935 C.2       1 MOL     0.2187
     23 C          31.3712    6.9461   41.4133 C.3       1 MOL     0.0752
     24 C          30.4227    5.8950   41.9438 C.3       1 MOL     0.0134
     25 C          29.9366    6.9261   41.0243 C.3       1 MOL     0.0134
     26 C          37.0669    3.5365   42.0410 C.ar      1 MOL     0.1355
     27 C          38.3988    3.5926   41.6976 C.ar      1 MOL     0.0392
     28 C          38.8974    2.7624   40.6834 C.ar      1 MOL     0.0066
     29 O          40.3371    3.9379   34.6773 O.2       1 MOL    -0.2658
     30 O          33.2386    7.3680   40.0939 O.2       1 MOL    -0.2753
     31 O          34.4784    2.1870   42.8548 O.2       1 MOL    -0.2699
     32 F          36.5367    4.3260   43.0199 F         1 MOL    -0.2047
     33 H          38.0657    4.1043   33.9740 H         1 MOL     0.0625
     34 H          35.6807    3.6559   34.1364 H         1 MOL     0.0618
     35 H          34.9039    2.3212   35.9813 H         1 MOL     0.0618
     36 H          36.3908    1.4359   37.6405 H         1 MOL     0.0624
     37 H          39.3876    0.3889   39.2368 H         1 MOL     0.0377
     38 H          37.7293    0.3288   38.6628 H         1 MOL     0.0377
     39 H          36.1376    1.1745   39.8666 H         1 MOL     0.0629
     40 H          32.4073    3.2254   42.1880 H         1 MOL     0.0480
     41 H          32.1241    2.0854   40.8620 H         1 MOL     0.0480
     42 H          30.9240    4.4604   41.0161 H         1 MOL     0.0480
     43 H          31.2758    3.6554   39.5112 H         1 MOL     0.0480
     44 H          34.4101    5.6387   39.1380 H         1 MOL     0.0480
     45 H          33.2990    4.7434   38.1164 H         1 MOL     0.0480
     46 H          35.4057    3.7152   39.5611 H         1 MOL     0.0480
     47 H          34.0884    2.8220   38.7810 H         1 MOL     0.0480
     48 H          32.0176    7.7013   41.8086 H         1 MOL     0.0394
     49 H          30.1261    5.9116   42.9720 H         1 MOL     0.0273
     50 H          30.4096    4.8251   41.9583 H         1 MOL     0.0273
     51 H          29.2782    7.6894   41.3833 H         1 MOL     0.0273
     52 H          29.4161    6.9080   40.0905 H         1 MOL     0.0273
     53 H          39.0305    4.2463   42.1873 H         1 MOL     0.0646
     54 H          39.8998    2.8248   40.4452 H         1 MOL     0.0621
     55 H          41.6850    2.8704   36.5213 H         1 MOL     0.1921
@<TRIPOS>BOND
     1    1   17 am
     2    1   18 1 
     3    1   21 1 
     4    2   19 1 
     5    2   20 1 
     6    2   22 am
     7    3    4 ar
     8    3   12 ar
     9    4    5 ar
    10    4   55 1 
    11    5    6 ar
    12    5   29 2 
    13    6    7 ar
    14    6   11 ar
    15    7    8 ar
    16    7   33 1 
    17    8    9 ar
    18    8   34 1 
    19    9   10 ar
    20    9   35 1 
    21   10   11 ar
    22   10   36 1 
    23   11   12 ar
    24   12   13 1 
    25   13   14 1 
    26   13   37 1 
    27   13   38 1 
    28   14   15 ar
    29   14   28 ar
    30   15   16 ar
    31   15   39 1 
    32   16   17 1 
    33   16   26 ar
    34   17   31 2 
    35   18   19 1 
    36   18   40 1 
    37   18   41 1 
    38   19   42 1 
    39   19   43 1 
    40   20   21 1 
    41   20   44 1 
    42   20   45 1 
    43   21   46 1 
    44   21   47 1 
    45   22   23 1 
    46   22   30 2 
    47   23   24 1 
    48   23   25 1 
    49   23   48 1 
    50   24   25 1 
    51   24   49 1 
    52   24   50 1 
    53   25   51 1 
    54   25   52 1 
    55   26   27 ar
    56   26   32 1 
    57   27   28 ar
    58   27   53 1 
    59   28   54 1 
@<TRIPOS>SUBSTRUCTURE
1 MOL         1
@<TRIPOS>MOLECULE
query molecule
   55    59     1     0     0
SMALL
NO_CHARGE

@<TRIPOS>ATOM
      1 N          -5.7727  -12.4601   38.0644 N.am      1 MOL    -0.2945
      2 N          -6.2154  -14.5580   39.5312 N.am      1 MOL    -0.2983
      3 N          -3.3690  -16.2409   35.4704 N.ar      1 MOL    -0.1750
      4 N          -4.2868  -17.1598   35.2913 N.ar      1 MOL    -0.2425
      5 C          -4.8804  -17.3854   34.1108 C.ar      1 MOL     0.2725
      6 C          -4.5133  -16.6164   33.0256 C.ar      1 MOL     0.0496
      7 C          -5.1137  -16.7960   31.7789 C.ar      1 MOL     0.0138
      8 C          -4.7463  -16.0017   30.7142 C.ar      1 MOL     0.0008
      9 C          -3.7797  -15.0472   30.9504 C.ar      1 MOL     0.0007
     10 C          -3.1758  -14.8578   32.1821 C.ar      1 MOL     0.0103
     11 C          -3.5447  -15.6507   33.2285 C.ar      1 MOL     0.0106
     12 C          -2.9505  -15.4386   34.4436 C.ar      1 MOL     0.0736
     13 C          -1.8789  -14.5034   34.7599 C.3       1 MOL     0.0925
     14 C          -2.4368  -13.1740   35.1323 C.ar      1 MOL    -0.0406
     15 C          -3.7105  -13.1970   35.7279 C.ar      1 MOL     0.0196
     16 C          -4.3136  -12.0187   36.0975 C.ar      1 MOL     0.0723
     17 C          -5.6551  -12.0099   36.7233 C.2       1 MOL     0.2495
     18 C          -7.0489  -12.4618   38.7034 C.3       1 MOL     0.1268
     19 C          -7.1498  -13.4969   39.8032 C.3       1 MOL     0.1265
     20 C          -4.7925  -14.2019   39.5090 C.3       1 MOL     0.1265
     21 C          -4.5816  -12.9115   38.7596 C.3       1 MOL     0.1268
     22 C          -6.6222  -15.8744   39.2949 C.2       1 MOL     0.2187
     23 C          -7.9970  -16.3808   39.2694 C.3       1 MOL     0.0752
     24 C          -9.0912  -15.3469   39.4102 C.3       1 MOL     0.0134
     25 C          -8.8583  -16.3204   40.4794 C.3       1 MOL     0.0134
     26 C          -3.7335  -10.7855   35.9170 C.ar      1 MOL     0.1355
     27 C          -2.4867  -10.7641   35.3339 C.ar      1 MOL     0.0392
     28 C          -1.8689  -11.9645   34.9547 C.ar      1 MOL     0.0066
     29 O          -5.7612  -18.2624   33.9190 O.2       1 MOL    -0.2658
     30 O          -5.7094  -16.7480   39.0737 O.2       1 MOL    -0.2753
     31 O          -6.6757  -11.6209   36.1103 O.2       1 MOL    -0.2699
     32 F          -4.3741   -9.6431   36.3006 F         1 MOL    -0.2047
     33 H          -5.8335  -17.5248   31.6535 H         1 MOL     0.0625
     34 H          -5.1753  -16.1158   29.7835 H         1 MOL     0.0618
     35 H          -3.4911  -14.4412   30.1671 H         1 MOL     0.0618
     36 H          -2.4568  -14.1278   32.3071 H         1 MOL     0.0624
     37 H          -1.2447  -14.3922   33.9052 H         1 MOL     0.0377
     38 H          -1.3200  -14.8860   35.5886 H         1 MOL     0.0377
     39 H          -4.1911  -14.0961   35.8867 H         1 MOL     0.0629
     40 H          -7.7994  -12.6677   37.9687 H         1 MOL     0.0480
     41 H          -7.1873  -11.4993   39.1513 H         1 MOL     0.0480
     42 H          -8.1435  -13.8917   39.8348 H         1 MOL     0.0480
     43 H          -6.9230  -13.0462   40.7471 H         1 MOL     0.0480
     44 H          -4.2411  -14.9820   39.0274 H         1 MOL     0.0480
     45 H          -4.4513  -14.0756   40.5153 H         1 MOL     0.0480
     46 H          -3.8027  -13.0574   38.0404 H         1 MOL     0.0480
     47 H          -4.3261  -12.1615   39.4775 H         1 MOL     0.0480
     48 H          -7.7309  -17.1648   38.5920 H         1 MOL     0.0394
     49 H          -9.9726  -15.4148   38.8070 H         1 MOL     0.0273
     50 H          -9.1359  -14.2793   39.3537 H         1 MOL     0.0273
     51 H          -9.5765  -17.0929   40.6592 H         1 MOL     0.0273
     52 H          -8.6678  -16.2450   41.5288 H         1 MOL     0.0273
     53 H          -2.0066   -9.8637   35.1760 H         1 MOL     0.0646
     54 H          -0.9341  -11.9203   34.5191 H         1 MOL     0.0621
     55 H          -4.5526  -17.7119   36.0621 H         1 MOL     0.1921
@<TRIPOS>BOND
     1    1   17 am
     2    1   18 1 
     3    1   21 1 
     4    2   19 1 
     5    2   20 1 
     6    2   22 am
     7    3    4 ar
     8    3   12 ar
     9    4    5 ar
    10    4   55 1 
    11    5    6 ar
    12    5   29 2 
    13    6    7 ar
    14    6   11 ar
    15    7    8 ar
    16    7   33 1 
    17    8    9 ar
    18    8   34 1 
    19    9   10 ar
    20    9   35 1 
    21   10   11 ar
    22   10   36 1 
    23   11   12 ar
    24   12   13 1 
    25   13   14 1 
    26   13   37 1 
    27   13   38 1 
    28   14   15 ar
    29   14   28 ar
    30   15   16 ar
    31   15   39 1 
    32   16   17 1 
    33   16   26 ar
    34   17   31 2 
    35   18   19 1 
    36   18   40 1 
    37   18   41 1 
    38   19   42 1 
    39   19   43 1 
    40   20   21 1 
    41   20   44 1 
    42   20   45 1 
    43   21   46 1 
    44   21   47 1 
    45   22   23 1 
    46   22   30 2 
    47   23   24 1 
    48   23   25 1 
    49   23   48 1 
    50   24   25 1 
    51   24   49 1 
    52   24   50 1 
    53   25   51 1 
    54   25   52 1 
    55   26   27 ar
    56   26   32 1 
    57   27   28 ar
    58   27   53 1 
    59   28   54 1 
@<TRIPOS>SUBSTRUCTURE
1 MOL         1
@<TRIPOS>MOLECULE
query molecule
   55    59     1     0     0
SMALL
NO_CHARGE

@<TRIPOS>ATOM
      1 N          40.8171    3.4288   -7.8624 N.am      1 MOL    -0.2945
      2 N          42.0420    1.1407   -7.7486 N.am      1 MOL    -0.2983
      3 N          43.6501    4.2845   -4.1789 N.ar      1 MOL    -0.1750
      4 N          43.5500    3.3386   -3.2767 N.ar      1 MOL    -0.2425
      5 C          44.2145    3.3598   -2.1127 C.ar      1 MOL     0.2725
      6 C          45.0474    4.4263   -1.8434 C.ar      1 MOL     0.0496
      7 C          45.7777    4.4885   -0.6560 C.ar      1 MOL     0.0138
      8 C          46.6199    5.5531   -0.4177 C.ar      1 MOL     0.0008
      9 C          46.6951    6.5220   -1.3958 C.ar      1 MOL     0.0007
     10 C          45.9766    6.4730   -2.5787 C.ar      1 MOL     0.0103
     11 C          45.1441    5.4166   -2.8036 C.ar      1 MOL     0.0106
     12 C          44.4545    5.3748   -3.9856 C.ar      1 MOL     0.0736
     13 C          44.4249    6.3845   -5.0357 C.3       1 MOL     0.0925
     14 C          43.0421    6.5521   -5.5621 C.ar      1 MOL    -0.0406
     15 C          42.6652    5.6495   -6.5725 C.ar      1 MOL     0.0196
     16 C          41.4112    5.7313   -7.1290 C.ar      1 MOL     0.0723
     17 C          40.9862    4.7980   -8.1966 C.2       1 MOL     0.2495
     18 C          40.4035    2.4995   -8.8636 C.3       1 MOL     0.1268
     19 C          40.8641    1.0868   -8.5750 C.3       1 MOL     0.1265
     20 C          41.8951    1.7442   -6.4196 C.3       1 MOL     0.1265
     21 C          41.0706    3.0033   -6.4984 C.3       1 MOL     0.1268
     22 C          43.2796    0.6481   -8.1724 C.2       1 MOL     0.2187
     23 C          43.5874    0.0345   -9.4670 C.3       1 MOL     0.0752
     24 C          42.6851   -1.0992   -9.8990 C.3       1 MOL     0.0134
     25 C          44.0835   -1.3641   -9.5534 C.3       1 MOL     0.0134
     26 C          40.4768    6.6652   -6.7489 C.ar      1 MOL     0.1355
     27 C          40.8468    7.5483   -5.7599 C.ar      1 MOL     0.0392
     28 C          42.1258    7.4683   -5.1906 C.ar      1 MOL     0.0066
     29 O          44.1306    2.4632   -1.2348 O.2       1 MOL    -0.2658
     30 O          44.2648    0.7335   -7.3555 O.2       1 MOL    -0.2753
     31 O          40.7742    5.1783   -9.3709 O.2       1 MOL    -0.2699
     32 F          39.2440    6.7061   -7.3331 F         1 MOL    -0.2047
     33 H          45.6867    3.7368    0.0452 H         1 MOL     0.0625
     34 H          47.1693    5.6213    0.4522 H         1 MOL     0.0618
     35 H          47.3207    7.3269   -1.2379 H         1 MOL     0.0618
     36 H          46.0690    7.2247   -3.2801 H         1 MOL     0.0624
     37 H          45.0711    6.0824   -5.8333 H         1 MOL     0.0377
     38 H          44.7525    7.3177   -4.6267 H         1 MOL     0.0377
     39 H          43.3283    4.9280   -6.8954 H         1 MOL     0.0629
     40 H          40.8096    2.8070   -9.8048 H         1 MOL     0.0480
     41 H          39.3331    2.4943   -8.8773 H         1 MOL     0.0480
     42 H          41.0916    0.5884   -9.4937 H         1 MOL     0.0480
     43 H          40.0895    0.5493   -8.0686 H         1 MOL     0.0480
     44 H          42.8632    1.9820   -6.0313 H         1 MOL     0.0480
     45 H          41.3998    1.0477   -5.7757 H         1 MOL     0.0480
     46 H          41.5931    3.7863   -5.9893 H         1 MOL     0.0480
     47 H          40.1241    2.7959   -6.0463 H         1 MOL     0.0480
     48 H          43.9340    0.9657   -9.8634 H         1 MOL     0.0394
     49 H          42.3629   -1.1686  -10.9172 H         1 MOL     0.0273
     50 H          41.7390   -1.4795   -9.5747 H         1 MOL     0.0273
     51 H          44.7776   -1.6350  -10.3214 H         1 MOL     0.0273
     52 H          44.5707   -2.0274   -8.8707 H         1 MOL     0.0273
     53 H          40.1820    8.2695   -5.4373 H         1 MOL     0.0646
     54 H          42.3780    8.1428   -4.4509 H         1 MOL     0.0621
     55 H          42.9567    2.5751   -3.4633 H         1 MOL     0.1921
@<TRIPOS>BOND
     1    1   17 am
     2    1   18 1 
     3    1   21 1 
     4    2   19 1 
     5    2   20 1 
     6    2   22 am
     7    3    4 ar
     8    3   12 ar
     9    4    5 ar
    10    4   55 1 
    11    5    6 ar
    12    5   29 2 
    13    6    7 ar
    14    6   11 ar
    15    7    8 ar
    16    7   33 1 
    17    8    9 ar
    18    8   34 1 
    19    9   10 ar
    20    9   35 1 
    21   10   11 ar
    22   10   36 1 
    23   11   12 ar
    24   12   13 1 
    25   13   14 1 
    26   13   37 1 
    27   13   38 1 
    28   14   15 ar
    29   14   28 ar
    30   15   16 ar
    31   15   39 1 
    32   16   17 1 
    33   16   26 ar
    34   17   31 2 
    35   18   19 1 
    36   18   40 1 
    37   18   41 1 
    38   19   42 1 
    39   19   43 1 
    40   20   21 1 
    41   20   44 1 
    42   20   45 1 
    43   21   46 1 
    44   21   47 1 
    45   22   23 1 
    46   22   30 2 
    47   23   24 1 
    48   23   25 1 
    49   23   48 1 
    50   24   25 1 
    51   24   49 1 
    52   24   50 1 
    53   25   51 1 
    54   25   52 1 
    55   26   27 ar
    56   26   32 1 
    57   27   28 ar
    58   27   53 1 
    59   28   54 1 
@<TRIPOS>SUBSTRUCTURE
1 MOL         1
@<TRIPOS>MOLECULE
query molecule
   55    59     1     0     0
SMALL
NO_CHARGE

@<TRIPOS>ATOM
      1 N           3.2704   -3.1302   -4.6552 N.am      1 MOL    -0.2945
      2 N           1.0934   -4.3561   -5.3668 N.am      1 MOL    -0.2983
      3 N           6.0857    2.8709   -7.5821 N.ar      1 MOL    -0.1750
      4 N           6.9649    3.8236   -7.3865 N.ar      1 MOL    -0.2425
      5 C           6.6332    5.0591   -6.9861 C.ar      1 MOL     0.2725
      6 C           5.3025    5.3508   -6.7672 C.ar      1 MOL     0.0496
      7 C           4.9004    6.6263   -6.3691 C.ar      1 MOL     0.0138
      8 C           3.5635    6.9009   -6.1770 C.ar      1 MOL     0.0008
      9 C           2.6754    5.8694   -6.3974 C.ar      1 MOL     0.0007
     10 C           3.0603    4.5992   -6.7929 C.ar      1 MOL     0.0103
     11 C           4.3858    4.3373   -6.9777 C.ar      1 MOL     0.0106
     12 C           4.7477    3.0815   -7.3857 C.ar      1 MOL     0.0736
     13 C           3.8845    1.9228   -7.5740 C.3       1 MOL     0.0925
     14 C           4.5587    0.6843   -7.0958 C.ar      1 MOL    -0.0406
     15 C           3.9206    0.0187   -6.0340 C.ar      1 MOL     0.0196
     16 C           4.4722   -1.1287   -5.5165 C.ar      1 MOL     0.0723
     17 C           3.8263   -1.8500   -4.3967 C.2       1 MOL     0.2495
     18 C           2.6436   -3.8583   -3.5997 C.3       1 MOL     0.1268
     19 C           1.5937   -4.8264   -4.1013 C.3       1 MOL     0.1265
     20 C           2.0542   -4.2711   -6.4720 C.3       1 MOL     0.1265
     21 C           3.3539   -3.6729   -5.9984 C.3       1 MOL     0.1268
     22 C          -0.2424   -3.9904   -5.5570 C.2       1 MOL     0.2187
     23 C          -1.3115   -4.0060   -4.5550 C.3       1 MOL     0.0752
     24 C          -1.1041   -3.1240   -3.3446 C.3       1 MOL     0.0134
     25 C          -1.0863   -4.5817   -3.2032 C.3       1 MOL     0.0134
     26 C           5.6402   -1.6820   -5.9853 C.ar      1 MOL     0.1355
     27 C           6.2640   -1.0297   -7.0246 C.ar      1 MOL     0.0392
     28 C           5.7044    0.1419   -7.5543 C.ar      1 MOL     0.0066
     29 O           7.4616    5.9852   -6.7919 O.2       1 MOL    -0.2658
     30 O          -0.5898   -3.5951   -6.7267 O.2       1 MOL    -0.2753
     31 O           3.7581   -1.3681   -3.2426 O.2       1 MOL    -0.2699
     32 F           6.1483   -2.8237   -5.4367 F         1 MOL    -0.2047
     33 H           5.6048    7.3651   -6.2175 H         1 MOL     0.0625
     34 H           3.2422    7.8354   -5.8825 H         1 MOL     0.0618
     35 H           1.6698    6.0541   -6.2606 H         1 MOL     0.0618
     36 H           2.3550    3.8611   -6.9454 H         1 MOL     0.0624
     37 H           3.6550    1.8198   -8.6141 H         1 MOL     0.0377
     38 H           2.9868    2.0656   -7.0090 H         1 MOL     0.0377
     39 H           3.0408    0.3911   -5.6442 H         1 MOL     0.0629
     40 H           2.1778   -3.1624   -2.9332 H         1 MOL     0.0480
     41 H           3.4023   -4.4306   -3.1069 H         1 MOL     0.0480
     42 H           0.7916   -4.8837   -3.3960 H         1 MOL     0.0480
     43 H           2.0246   -5.7989   -4.2199 H         1 MOL     0.0480
     44 H           1.6467   -3.6568   -7.2473 H         1 MOL     0.0480
     45 H           2.2436   -5.2568   -6.8430 H         1 MOL     0.0480
     46 H           3.6310   -2.8847   -6.6671 H         1 MOL     0.0480
     47 H           4.0810   -4.4566   -5.9827 H         1 MOL     0.0480
     48 H          -2.0584   -4.1573   -5.3059 H         1 MOL     0.0394
     49 H          -1.9212   -2.5576   -2.9487 H         1 MOL     0.0273
     50 H          -0.4327   -2.3298   -3.0927 H         1 MOL     0.0273
     51 H          -1.8887   -5.0752   -2.6956 H         1 MOL     0.0273
     52 H          -0.3895   -5.2835   -2.7968 H         1 MOL     0.0273
     53 H           7.1441   -1.4037   -7.4142 H         1 MOL     0.0646
     54 H           6.1926    0.6116   -8.3332 H         1 MOL     0.0621
     55 H           7.9162    3.6211   -7.5408 H         1 MOL     0.1921
@<TRIPOS>BOND
     1    1   17 am
     2    1   18 1 
     3    1   21 1 
     4    2   19 1 
     5    2   20 1 
     6    2   22 am
     7    3    4 ar
     8    3   12 ar
     9    4    5 ar
    10    4   55 1 
    11    5    6 ar
    12    5   29 2 
    13    6    7 ar
    14    6   11 ar
    15    7    8 ar
    16    7   33 1 
    17    8    9 ar
    18    8   34 1 
    19    9   10 ar
    20    9   35 1 
    21   10   11 ar
    22   10   36 1 
    23   11   12 ar
    24   12   13 1 
    25   13   14 1 
    26   13   37 1 
    27   13   38 1 
    28   14   15 ar
    29   14   28 ar
    30   15   16 ar
    31   15   39 1 
    32   16   17 1 
    33   16   26 ar
    34   17   31 2 
    35   18   19 1 
    36   18   40 1 
    37   18   41 1 
    38   19   42 1 
    39   19   43 1 
    40   20   21 1 
    41   20   44 1 
    42   20   45 1 
    43   21   46 1 
    44   21   47 1 
    45   22   23 1 
    46   22   30 2 
    47   23   24 1 
    48   23   25 1 
    49   23   48 1 
    50   24   25 1 
    51   24   49 1 
    52   24   50 1 
    53   25   51 1 
    54   25   52 1 
    55   26   27 ar
    56   26   32 1 
    57   27   28 ar
    58   27   53 1 
    59   28   54 1 
@<TRIPOS>SUBSTRUCTURE
1 MOL         1
@<TRIPOS>MOLECULE
query molecule
   55    59     1     0     0
SMALL
NO_CHARGE

@<TRIPOS>ATOM
      1 N          38.8954   10.7284   36.2760 N.am      1 MOL    -0.2945
      2 N          41.0182   11.2236   34.8630 N.am      1 MOL    -0.2983
      3 N          35.5060   11.2543   42.1605 N.ar      1 MOL    -0.1750
      4 N          34.3590   11.3027   42.7936 N.ar      1 MOL    -0.2425
      5 C          33.9624   12.3597   43.5164 C.ar      1 MOL     0.2725
      6 C          34.7972   13.4548   43.6036 C.ar      1 MOL     0.0496
      7 C          34.4422   14.5732   44.3589 C.ar      1 MOL     0.0138
      8 C          35.3013   15.6471   44.4491 C.ar      1 MOL     0.0008
      9 C          36.4970   15.5502   43.7692 C.ar      1 MOL     0.0007
     10 C          36.8623   14.4467   43.0164 C.ar      1 MOL     0.0103
     11 C          36.0038   13.3904   42.9316 C.ar      1 MOL     0.0106
     12 C          36.3879   12.3002   42.1977 C.ar      1 MOL     0.0736
     13 C          37.5961   12.1456   41.3981 C.3       1 MOL     0.0925
     14 C          37.3846   12.6741   40.0221 C.ar      1 MOL    -0.0406
     15 C          37.5618   11.7440   38.9823 C.ar      1 MOL     0.0196
     16 C          37.3987   12.1396   37.6763 C.ar      1 MOL     0.0723
     17 C          37.5816   11.1851   36.5597 C.2       1 MOL     0.2495
     18 C          39.1109    9.8040   35.2102 C.3       1 MOL     0.1268
     19 C          40.5046    9.8993   34.6275 C.3       1 MOL     0.1265
     20 C          41.1901   11.6315   36.2616 C.3       1 MOL     0.1265
     21 C          39.9974   11.2166   37.0841 C.3       1 MOL     0.1268
     22 C          41.3440   12.0986   33.8225 C.2       1 MOL     0.2187
     23 C          41.2160   11.8449   32.3851 C.3       1 MOL     0.0752
     24 C          42.3346   12.3688   31.5131 C.3       1 MOL     0.0134
     25 C          40.9973   12.9600   31.4268 C.3       1 MOL     0.0134
     26 C          37.0633   13.4224   37.3131 C.ar      1 MOL     0.1355
     27 C          36.8901   14.3320   38.3317 C.ar      1 MOL     0.0392
     28 C          37.0568   13.9319   39.6653 C.ar      1 MOL     0.0066
     29 O          32.8661   12.4253   44.1293 O.2       1 MOL    -0.2658
     30 O          41.8055   13.2528   34.1390 O.2       1 MOL    -0.2753
     31 O          36.6217   10.7745   35.8678 O.2       1 MOL    -0.2699
     32 F          36.9133   13.7663   36.0008 F         1 MOL    -0.2047
     33 H          33.5349   14.5967   44.8501 H         1 MOL     0.0625
     34 H          35.0610   16.4846   45.0006 H         1 MOL     0.0618
     35 H          37.1551   16.3426   43.8246 H         1 MOL     0.0618
     36 H          37.7704   14.4234   42.5264 H         1 MOL     0.0624
     37 H          37.8507   11.1078   41.3415 H         1 MOL     0.0377
     38 H          38.3888   12.6968   41.8599 H         1 MOL     0.0377
     39 H          37.8140   10.7673   39.1992 H         1 MOL     0.0629
     40 H          38.4007   10.0036   34.4348 H         1 MOL     0.0480
     41 H          38.9939    8.8175   35.6093 H         1 MOL     0.0480
     42 H          40.4679    9.7094   33.5754 H         1 MOL     0.0480
     43 H          41.1417    9.1749   35.0910 H         1 MOL     0.0480
     44 H          41.2963   12.6950   36.3084 H         1 MOL     0.0480
     45 H          42.0633   11.1555   36.6564 H         1 MOL     0.0480
     46 H          39.6588   12.0622   37.6458 H         1 MOL     0.0480
     47 H          40.3087   10.4148   37.7192 H         1 MOL     0.0480
     48 H          40.7178   10.9145   32.5599 H         1 MOL     0.0394
     49 H          42.7093   11.7725   30.7074 H         1 MOL     0.0273
     50 H          43.3200   12.7460   31.6912 H         1 MOL     0.0273
     51 H          40.4020   12.7998   30.5522 H         1 MOL     0.0273
     52 H          40.6141   13.9545   31.5128 H         1 MOL     0.0273
     53 H          36.6372   15.3090   38.1132 H         1 MOL     0.0646
     54 H          36.9215   14.6339   40.4100 H         1 MOL     0.0621
     55 H          33.7589   10.5241   42.7346 H         1 MOL     0.1921
@<TRIPOS>BOND
     1    1   17 am
     2    1   18 1 
     3    1   21 1 
     4    2   19 1 
     5    2   20 1 
     6    2   22 am
     7    3    4 ar
     8    3   12 ar
     9    4    5 ar
    10    4   55 1 
    11    5    6 ar
    12    5   29 2 
    13    6    7 ar
    14    6   11 ar
    15    7    8 ar
    16    7   33 1 
    17    8    9 ar
    18    8   34 1 
    19    9   10 ar
    20    9   35 1 
    21   10   11 ar
    22   10   36 1 
    23   11   12 ar
    24   12   13 1 
    25   13   14 1 
    26   13   37 1 
    27   13   38 1 
    28   14   15 ar
    29   14   28 ar
    30   15   16 ar
    31   15   39 1 
    32   16   17 1 
    33   16   26 ar
    34   17   31 2 
    35   18   19 1 
    36   18   40 1 
    37   18   41 1 
    38   19   42 1 
    39   19   43 1 
    40   20   21 1 
    41   20   44 1 
    42   20   45 1 
    43   21   46 1 
    44   21   47 1 
    45   22   23 1 
    46   22   30 2 
    47   23   24 1 
    48   23   25 1 
    49   23   48 1 
    50   24   25 1 
    51   24   49 1 
    52   24   50 1 
    53   25   51 1 
    54   25   52 1 
    55   26   27 ar
    56   26   32 1 
    57   27   28 ar
    58   27   53 1 
    59   28   54 1 
@<TRIPOS>SUBSTRUCTURE
1 MOL         1
@<TRIPOS>MOLECULE
query molecule
   55    59     1     0     0
SMALL
NO_CHARGE

@<TRIPOS>ATOM
      1 N          28.3413   17.9822   40.9747 N.am      1 MOL    -0.2945
      2 N          29.5656   18.2600   43.2489 N.am      1 MOL    -0.2983
      3 N          32.1158   15.2320   39.0847 N.ar      1 MOL    -0.1750
      4 N          32.7083   14.9630   40.2228 N.ar      1 MOL    -0.2425
      5 C          34.0187   15.1530   40.4321 C.ar      1 MOL     0.2725
      6 C          34.7889   15.6558   39.4037 C.ar      1 MOL     0.0496
      7 C          36.1612   15.8538   39.5615 C.ar      1 MOL     0.0138
      8 C          36.9146   16.3371   38.5135 C.ar      1 MOL     0.0008
      9 C          36.2492   16.6029   37.3354 C.ar      1 MOL     0.0007
     10 C          34.8884   16.4107   37.1647 C.ar      1 MOL     0.0103
     11 C          34.1515   15.9346   38.2088 C.ar      1 MOL     0.0106
     12 C          32.8108   15.7338   38.0178 C.ar      1 MOL     0.0736
     13 C          32.0224   16.0512   36.8342 C.3       1 MOL     0.0925
     14 C          30.9401   17.0174   37.1696 C.ar      1 MOL    -0.0406
     15 C          30.1442   16.6748   38.2772 C.ar      1 MOL     0.0196
     16 C          29.1127   17.4989   38.6587 C.ar      1 MOL     0.0723
     17 C          28.2551   17.1640   39.8179 C.2       1 MOL     0.2495
     18 C          27.5267   17.6937   42.1105 C.3       1 MOL     0.1268
     19 C          28.1364   18.1845   43.4061 C.3       1 MOL     0.1265
     20 C          30.0754   19.1954   42.2404 C.3       1 MOL     0.1265
     21 C          29.2636   19.1025   40.9741 C.3       1 MOL     0.1268
     22 C          30.4466   17.4863   44.0102 C.2       1 MOL     0.2187
     23 C          30.0936   16.5040   45.0386 C.3       1 MOL     0.0752
     24 C          28.6786   16.5710   45.5671 C.3       1 MOL     0.0134
     25 C          29.8043   16.9261   46.4342 C.3       1 MOL     0.0134
     26 C          28.8023   18.6694   38.0078 C.ar      1 MOL     0.1355
     27 C          29.5820   19.0037   36.9238 C.ar      1 MOL     0.0392
     28 C          30.6346   18.1646   36.5312 C.ar      1 MOL     0.0066
     29 O          34.6046   14.9024   41.5164 O.2       1 MOL    -0.2658
     30 O          31.7030   17.6370   43.8009 O.2       1 MOL    -0.2753
     31 O          27.4658   16.1916   39.8061 O.2       1 MOL    -0.2699
     32 F          27.7665   19.4539   38.4254 F         1 MOL    -0.2047
     33 H          36.6126   15.6389   40.4643 H         1 MOL     0.0625
     34 H          37.9298   16.4921   38.6062 H         1 MOL     0.0618
     35 H          36.7948   16.9641   36.5380 H         1 MOL     0.0618
     36 H          34.4377   16.6248   36.2611 H         1 MOL     0.0624
     37 H          31.5859   15.1528   36.4503 H         1 MOL     0.0377
     38 H          32.6636   16.4943   36.1008 H         1 MOL     0.0377
     39 H          30.3339   15.8068   38.8019 H         1 MOL     0.0629
     40 H          27.3918   16.6339   42.1749 H         1 MOL     0.0480
     41 H          26.5948   18.2037   41.9779 H         1 MOL     0.0480
     42 H          27.8967   17.5044   44.1962 H         1 MOL     0.0480
     43 H          27.7459   19.1514   43.6471 H         1 MOL     0.0480
     44 H          31.0953   18.9573   42.0221 H         1 MOL     0.0480
     45 H          30.0028   20.1917   42.6240 H         1 MOL     0.0480
     46 H          29.9328   18.9918   40.1465 H         1 MOL     0.0480
     47 H          28.6817   19.9964   40.8997 H         1 MOL     0.0480
     48 H          30.7447   15.7716   44.6096 H         1 MOL     0.0394
     49 H          28.1301   15.6693   45.7441 H         1 MOL     0.0273
     50 H          27.7771   17.0576   45.2578 H         1 MOL     0.0273
     51 H          30.0692   16.2848   47.2488 H         1 MOL     0.0273
     52 H          30.0520   17.7846   47.0215 H         1 MOL     0.0273
     53 H          29.3914   19.8729   36.3999 H         1 MOL     0.0646
     54 H          31.2036   18.4385   35.7146 H         1 MOL     0.0621
     55 H          32.1635   14.6043   40.9605 H         1 MOL     0.1921
@<TRIPOS>BOND
     1    1   17 am
     2    1   18 1 
     3    1   21 1 
     4    2   19 1 
     5    2   20 1 
     6    2   22 am
     7    3    4 ar
     8    3   12 ar
     9    4    5 ar
    10    4   55 1 
    11    5    6 ar
    12    5   29 2 
    13    6    7 ar
    14    6   11 ar
    15    7    8 ar
    16    7   33 1 
    17    8    9 ar
    18    8   34 1 
    19    9   10 ar
    20    9   35 1 
    21   10   11 ar
    22   10   36 1 
    23   11   12 ar
    24   12   13 1 
    25   13   14 1 
    26   13   37 1 
    27   13   38 1 
    28   14   15 ar
    29   14   28 ar
    30   15   16 ar
    31   15   39 1 
    32   16   17 1 
    33   16   26 ar
    34   17   31 2 
    35   18   19 1 
    36   18   40 1 
    37   18   41 1 
    38   19   42 1 
    39   19   43 1 
    40   20   21 1 
    41   20   44 1 
    42   20   45 1 
    43   21   46 1 
    44   21   47 1 
    45   22   23 1 
    46   22   30 2 
    47   23   24 1 
    48   23   25 1 
    49   23   48 1 
    50   24   25 1 
    51   24   49 1 
    52   24   50 1 
    53   25   51 1 
    54   25   52 1 
    55   26   27 ar
    56   26   32 1 
    57   27   28 ar
    58   27   53 1 
    59   28   54 1 
@<TRIPOS>SUBSTRUCTURE
1 MOL         1
@<TRIPOS>MOLECULE
query molecule
   55    59     1     0     0
SMALL
NO_CHARGE

@<TRIPOS>ATOM
      1 N         -11.1840  -12.5894   31.0481 N.am      1 MOL    -0.2945
      2 N         -12.2293  -14.7639   32.0113 N.am      1 MOL    -0.2983
      3 N         -13.8729   -9.6289   27.3039 N.ar      1 MOL    -0.1750
      4 N         -14.7811  -10.2260   26.5709 N.ar      1 MOL    -0.2425
      5 C         -16.0100   -9.7283   26.3735 C.ar      1 MOL     0.2725
      6 C         -16.3435   -8.5287   26.9681 C.ar      1 MOL     0.0496
      7 C         -17.6152   -7.9760   26.8119 C.ar      1 MOL     0.0138
      8 C         -17.9330   -6.7872   27.4327 C.ar      1 MOL     0.0008
      9 C         -16.9474   -6.1971   28.1954 C.ar      1 MOL     0.0007
     10 C         -15.6816   -6.7345   28.3594 C.ar      1 MOL     0.0103
     11 C         -15.3766   -7.9099   27.7387 C.ar      1 MOL     0.0106
     12 C         -14.1266   -8.4363   27.9256 C.ar      1 MOL     0.0736
     13 C         -13.0117   -7.8465   28.6552 C.3       1 MOL     0.0925
     14 C         -12.8709   -8.4779   29.9963 C.ar      1 MOL    -0.0406
     15 C         -11.9321   -9.5218   30.0787 C.ar      1 MOL     0.0196
     16 C         -11.7381  -10.1739   31.2728 C.ar      1 MOL     0.0723
     17 C         -10.7599  -11.2787   31.3905 C.2       1 MOL     0.2495
     18 C         -10.2680  -13.6797   31.1441 C.3       1 MOL     0.1268
     19 C         -10.9606  -15.0057   31.3747 C.3       1 MOL     0.1265
     20 C         -13.2119  -13.9768   31.2585 C.3       1 MOL     0.1265
     21 C         -12.5509  -12.7908   30.6044 C.3       1 MOL     0.1268
     22 C         -12.5327  -15.2461   33.2878 C.2       1 MOL     0.2187
     23 C         -11.6582  -16.0292   34.1649 C.3       1 MOL     0.0752
     24 C         -12.0453  -16.0729   35.6259 C.3       1 MOL     0.0134
     25 C         -10.8303  -15.3695   35.2084 C.3       1 MOL     0.0134
     26 C         -12.4224   -9.8604   32.4232 C.ar      1 MOL     0.1355
     27 C         -13.3411   -8.8385   32.3414 C.ar      1 MOL     0.0392
     28 C         -13.5423   -8.1717   31.1243 C.ar      1 MOL     0.0066
     29 O         -16.8939  -10.2853   25.6733 O.2       1 MOL    -0.2658
     30 O         -13.6960  -14.9851   33.7609 O.2       1 MOL    -0.2753
     31 O          -9.5839  -11.0912   31.7784 O.2       1 MOL    -0.2699
     32 F         -12.1941  -10.5388   33.5853 F         1 MOL    -0.2047
     33 H         -18.3187   -8.4574   26.2302 H         1 MOL     0.0625
     34 H         -18.8656   -6.3590   27.3317 H         1 MOL     0.0618
     35 H         -17.1650   -5.3073   28.6697 H         1 MOL     0.0618
     36 H         -14.9789   -6.2530   28.9423 H         1 MOL     0.0624
     37 H         -13.1855   -6.7976   28.7763 H         1 MOL     0.0377
     38 H         -12.1109   -8.0112   28.1013 H         1 MOL     0.0377
     39 H         -11.3908   -9.7976   29.2447 H         1 MOL     0.0629
     40 H          -9.6004  -13.4952   31.9600 H         1 MOL     0.0480
     41 H          -9.7451  -13.7456   30.2123 H         1 MOL     0.0480
     42 H         -10.3544  -15.6232   32.0035 H         1 MOL     0.0480
     43 H         -11.1126  -15.5028   30.4391 H         1 MOL     0.0480
     44 H         -13.9728  -13.6307   31.9262 H         1 MOL     0.0480
     45 H         -13.6414  -14.5948   30.4978 H         1 MOL     0.0480
     46 H         -13.1169  -11.9129   30.8368 H         1 MOL     0.0480
     47 H         -12.5217  -12.9796   29.5524 H         1 MOL     0.0480
     48 H         -11.4411  -16.7253   33.3822 H         1 MOL     0.0394
     49 H         -11.9719  -16.9904   36.1718 H         1 MOL     0.0273
     50 H         -12.9184  -15.8105   36.1859 H         1 MOL     0.0273
     51 H          -9.8713  -15.7727   35.4590 H         1 MOL     0.0273
     52 H         -10.4567  -14.3776   35.3490 H         1 MOL     0.0273
     53 H         -13.8818   -8.5631   33.1769 H         1 MOL     0.0646
     54 H         -14.2374   -7.4093   31.0903 H         1 MOL     0.0621
     55 H         -14.5486  -11.0823   26.1438 H         1 MOL     0.1921
@<TRIPOS>BOND
     1    1   17 am
     2    1   18 1 
     3    1   21 1 
     4    2   19 1 
     5    2   20 1 
     6    2   22 am
     7    3    4 ar
     8    3   12 ar
     9    4    5 ar
    10    4   55 1 
    11    5    6 ar
    12    5   29 2 
    13    6    7 ar
    14    6   11 ar
    15    7    8 ar
    16    7   33 1 
    17    8    9 ar
    18    8   34 1 
    19    9   10 ar
    20    9   35 1 
    21   10   11 ar
    22   10   36 1 
    23   11   12 ar
    24   12   13 1 
    25   13   14 1 
    26   13   37 1 
    27   13   38 1 
    28   14   15 ar
    29   14   28 ar
    30   15   16 ar
    31   15   39 1 
    32   16   17 1 
    33   16   26 ar
    34   17   31 2 
    35   18   19 1 
    36   18   40 1 
    37   18   41 1 
    38   19   42 1 
    39   19   43 1 
    40   20   21 1 
    41   20   44 1 
    42   20   45 1 
    43   21   46 1 
    44   21   47 1 
    45   22   23 1 
    46   22   30 2 
    47   23   24 1 
    48   23   25 1 
    49   23   48 1 
    50   24   25 1 
    51   24   49 1 
    52   24   50 1 
    53   25   51 1 
    54   25   52 1 
    55   26   27 ar
    56   26   32 1 
    57   27   28 ar
    58   27   53 1 
    59   28   54 1 
@<TRIPOS>SUBSTRUCTURE
1 MOL         1
@<TRIPOS>MOLECULE
query molecule
   55    59     1     0     0
SMALL
NO_CHARGE

@<TRIPOS>ATOM
      1 N          33.4787   15.4636   22.7771 N.am      1 MOL    -0.2945
      2 N          30.9651   15.7016   23.3882 N.am      1 MOL    -0.2983
      3 N          35.7860   15.3786   27.6579 N.ar      1 MOL    -0.1750
      4 N          35.1056   15.6509   28.7449 N.ar      1 MOL    -0.2425
      5 C          35.5735   16.4321   29.7287 C.ar      1 MOL     0.2725
      6 C          36.8330   16.9802   29.5986 C.ar      1 MOL     0.0496
      7 C          37.3762   17.7840   30.6015 C.ar      1 MOL     0.0138
      8 C          38.6449   18.3034   30.4595 C.ar      1 MOL     0.0008
      9 C          39.3236   17.9879   29.3015 C.ar      1 MOL     0.0007
     10 C          38.7971   17.1914   28.2983 C.ar      1 MOL     0.0103
     11 C          37.5399   16.6846   28.4476 C.ar      1 MOL     0.0106
     12 C          37.0413   15.8848   27.4546 C.ar      1 MOL     0.0736
     13 C          37.6617   15.5597   26.1769 C.3       1 MOL     0.0925
     14 C          36.8788   14.5112   25.4662 C.ar      1 MOL    -0.0406
     15 C          36.1033   14.9637   24.3839 C.ar      1 MOL     0.0196
     16 C          35.3376   14.0719   23.6717 C.ar      1 MOL     0.0723
     17 C          34.5080   14.5179   22.5297 C.2       1 MOL     0.2495
     18 C          32.6612   15.9212   21.7004 C.3       1 MOL     0.1268
     19 C          31.2924   16.3762   22.1591 C.3       1 MOL     0.1265
     20 C          31.8314   15.9646   24.5425 C.3       1 MOL     0.1265
     21 C          33.2811   15.9469   24.1311 C.3       1 MOL     0.1268
     22 C          29.8774   14.8306   23.5000 C.2       1 MOL     0.2187
     23 C          28.9349   14.4574   22.4419 C.3       1 MOL     0.0752
     24 C          28.9073   15.3559   21.2261 C.3       1 MOL     0.0134
     25 C          27.7563   15.3082   22.1306 C.3       1 MOL     0.0134
     26 C          35.2815   12.7286   23.9586 C.ar      1 MOL     0.1355
     27 C          36.0409   12.2868   25.0183 C.ar      1 MOL     0.0392
     28 C          36.8225   13.1942   25.7478 C.ar      1 MOL     0.0066
     29 O          34.9357   16.7057   30.7776 O.2       1 MOL    -0.2658
     30 O          29.6647   14.2888   24.6430 O.2       1 MOL    -0.2753
     31 O          34.6873   14.0898   21.3663 O.2       1 MOL    -0.2699
     32 F          34.5044   11.8829   23.2213 F         1 MOL    -0.2047
     33 H          36.8272   17.9906   31.4506 H         1 MOL     0.0625
     34 H          39.0674   18.9002   31.1865 H         1 MOL     0.0618
     35 H          40.2754   18.3654   29.1758 H         1 MOL     0.0618
     36 H          39.3473   16.9843   27.4499 H         1 MOL     0.0624
     37 H          38.6552   15.2015   26.3487 H         1 MOL     0.0377
     38 H          37.6854   16.4412   25.5704 H         1 MOL     0.0377
     39 H          36.1089   15.9625   24.1253 H         1 MOL     0.0629
     40 H          32.5397   15.1219   20.9991 H         1 MOL     0.0480
     41 H          33.1511   16.7642   21.2583 H         1 MOL     0.0480
     42 H          30.5651   16.1363   21.4122 H         1 MOL     0.0480
     43 H          31.2960   17.4349   22.3157 H         1 MOL     0.0480
     44 H          31.6677   15.2120   25.2851 H         1 MOL     0.0480
     45 H          31.5973   16.9309   24.9382 H         1 MOL     0.0480
     46 H          33.8188   15.3095   24.8017 H         1 MOL     0.0480
     47 H          33.6371   16.9544   24.1668 H         1 MOL     0.0480
     48 H          29.0573   13.4161   22.6543 H         1 MOL     0.0394
     49 H          28.8368   14.9295   20.2471 H         1 MOL     0.0273
     50 H          29.5383   16.1303   20.8425 H         1 MOL     0.0273
     51 H          26.8442   14.8534   21.8049 H         1 MOL     0.0273
     52 H          27.2026   16.0446   22.6731 H         1 MOL     0.0273
     53 H          36.0349   11.2868   25.2756 H         1 MOL     0.0646
     54 H          37.3824   12.8367   26.5379 H         1 MOL     0.0621
     55 H          34.2059   15.2628   28.8431 H         1 MOL     0.1921
@<TRIPOS>BOND
     1    1   17 am
     2    1   18 1 
     3    1   21 1 
     4    2   19 1 
     5    2   20 1 
     6    2   22 am
     7    3    4 ar
     8    3   12 ar
     9    4    5 ar
    10    4   55 1 
    11    5    6 ar
    12    5   29 2 
    13    6    7 ar
    14    6   11 ar
    15    7    8 ar
    16    7   33 1 
    17    8    9 ar
    18    8   34 1 
    19    9   10 ar
    20    9   35 1 
    21   10   11 ar
    22   10   36 1 
    23   11   12 ar
    24   12   13 1 
    25   13   14 1 
    26   13   37 1 
    27   13   38 1 
    28   14   15 ar
    29   14   28 ar
    30   15   16 ar
    31   15   39 1 
    32   16   17 1 
    33   16   26 ar
    34   17   31 2 
    35   18   19 1 
    36   18   40 1 
    37   18   41 1 
    38   19   42 1 
    39   19   43 1 
    40   20   21 1 
    41   20   44 1 
    42   20   45 1 
    43   21   46 1 
    44   21   47 1 
    45   22   23 1 
    46   22   30 2 
    47   23   24 1 
    48   23   25 1 
    49   23   48 1 
    50   24   25 1 
    51   24   49 1 
    52   24   50 1 
    53   25   51 1 
    54   25   52 1 
    55   26   27 ar
    56   26   32 1 
    57   27   28 ar
    58   27   53 1 
    59   28   54 1 
@<TRIPOS>SUBSTRUCTURE
1 MOL         1
@<TRIPOS>MOLECULE
query molecule
   55    59     1     0     0
SMALL
NO_CHARGE

@<TRIPOS>ATOM
      1 N           9.3650   11.7465  -10.6242 N.am      1 MOL    -0.2945
      2 N           7.2279   12.0713  -12.0649 N.am      1 MOL    -0.2983
      3 N          13.7283    9.0177  -11.8778 N.ar      1 MOL    -0.1750
      4 N          13.3561    7.9126  -11.2786 N.ar      1 MOL    -0.2425
      5 C          13.5707    7.6740   -9.9772 C.ar      1 MOL     0.2725
      6 C          14.2148    8.6338   -9.2239 C.ar      1 MOL     0.0496
      7 C          14.4812    8.4282   -7.8697 C.ar      1 MOL     0.0138
      8 C          15.1450    9.3922   -7.1419 C.ar      1 MOL     0.0008
      9 C          15.5194   10.5362   -7.8145 C.ar      1 MOL     0.0007
     10 C          15.2620   10.7533   -9.1578 C.ar      1 MOL     0.0103
     11 C          14.6023    9.7942   -9.8682 C.ar      1 MOL     0.0106
     12 C          14.3714   10.0172  -11.1992 C.ar      1 MOL     0.0736
     13 C          14.6712   11.2193  -11.9660 C.3       1 MOL     0.0925
     14 C          13.7147   12.3090  -11.6270 C.ar      1 MOL    -0.0406
     15 C          12.5504   11.9039  -10.9502 C.ar      1 MOL     0.0196
     16 C          11.6021   12.8362  -10.6033 C.ar      1 MOL     0.0723
     17 C          10.3647   12.4406   -9.8936 C.2       1 MOL     0.2495
     18 C           8.1604   11.3443   -9.9730 C.3       1 MOL     0.1268
     19 C           6.9940   11.2175  -10.9294 C.3       1 MOL     0.1265
     20 C           8.4003   11.7698  -12.8936 C.3       1 MOL     0.1265
     21 C           9.5944   11.4596  -12.0281 C.3       1 MOL     0.1268
     22 C           6.3907   13.1448  -12.3822 C.2       1 MOL     0.2187
     23 C           5.1983   13.5789  -11.6495 C.3       1 MOL     0.0752
     24 C           4.9051   12.8470  -10.3594 C.3       1 MOL     0.0134
     25 C           4.0165   12.6877  -11.5126 C.3       1 MOL     0.0134
     26 C          11.7242   14.1765  -10.8837 C.ar      1 MOL     0.1355
     27 C          12.8642   14.5719  -11.5463 C.ar      1 MOL     0.0392
     28 C          13.8333   13.6231  -11.9025 C.ar      1 MOL     0.0066
     29 O          13.2202    6.6214   -9.3846 O.2       1 MOL    -0.2658
     30 O           6.6804   13.8375  -13.4222 O.2       1 MOL    -0.2753
     31 O          10.1782   12.6979   -8.6820 O.2       1 MOL    -0.2699
     32 F          10.7534   15.0636  -10.5186 F         1 MOL    -0.2047
     33 H          14.1802    7.5536   -7.4120 H         1 MOL     0.0625
     34 H          15.3527    9.2633   -6.1401 H         1 MOL     0.0618
     35 H          16.0186   11.2698   -7.2885 H         1 MOL     0.0618
     36 H          15.5643   11.6279   -9.6151 H         1 MOL     0.0624
     37 H          14.5976   10.9985  -13.0105 H         1 MOL     0.0377
     38 H          15.6620   11.5444  -11.7251 H         1 MOL     0.0377
     39 H          12.4084   10.9094  -10.7149 H         1 MOL     0.0629
     40 H           7.9148   12.0719   -9.2274 H         1 MOL     0.0480
     41 H           8.3322   10.3793   -9.5426 H         1 MOL     0.0480
     42 H           6.0917   11.5131  -10.4368 H         1 MOL     0.0480
     43 H           6.8989   10.2016  -11.2523 H         1 MOL     0.0480
     44 H           8.6234   12.6152  -13.5100 H         1 MOL     0.0480
     45 H           8.1845   10.9161  -13.5016 H         1 MOL     0.0480
     46 H          10.4225   12.0480  -12.3646 H         1 MOL     0.0480
     47 H           9.7890   10.4117  -12.1133 H         1 MOL     0.0480
     48 H           5.3257   14.5900  -11.9749 H         1 MOL     0.0394
     49 H           4.5737   13.3905   -9.4991 H         1 MOL     0.0273
     50 H           5.4521   12.1801   -9.7261 H         1 MOL     0.0273
     51 H           3.0333   13.1094  -11.4870 H         1 MOL     0.0273
     52 H           3.6479   11.8465  -12.0601 H         1 MOL     0.0273
     53 H          13.0054   15.5676  -11.7806 H         1 MOL     0.0646
     54 H          14.6787   13.9462  -12.3991 H         1 MOL     0.0621
     55 H          12.8956    7.2240  -11.8112 H         1 MOL     0.1921
@<TRIPOS>BOND
     1    1   17 am
     2    1   18 1 
     3    1   21 1 
     4    2   19 1 
     5    2   20 1 
     6    2   22 am
     7    3    4 ar
     8    3   12 ar
     9    4    5 ar
    10    4   55 1 
    11    5    6 ar
    12    5   29 2 
    13    6    7 ar
    14    6   11 ar
    15    7    8 ar
    16    7   33 1 
    17    8    9 ar
    18    8   34 1 
    19    9   10 ar
    20    9   35 1 
    21   10   11 ar
    22   10   36 1 
    23   11   12 ar
    24   12   13 1 
    25   13   14 1 
    26   13   37 1 
    27   13   38 1 
    28   14   15 ar
    29   14   28 ar
    30   15   16 ar
    31   15   39 1 
    32   16   17 1 
    33   16   26 ar
    34   17   31 2 
    35   18   19 1 
    36   18   40 1 
    37   18   41 1 
    38   19   42 1 
    39   19   43 1 
    40   20   21 1 
    41   20   44 1 
    42   20   45 1 
    43   21   46 1 
    44   21   47 1 
    45   22   23 1 
    46   22   30 2 
    47   23   24 1 
    48   23   25 1 
    49   23   48 1 
    50   24   25 1 
    51   24   49 1 
    52   24   50 1 
    53   25   51 1 
    54   25   52 1 
    55   26   27 ar
    56   26   32 1 
    57   27   28 ar
    58   27   53 1 
    59   28   54 1 
@<TRIPOS>SUBSTRUCTURE
1 MOL         1
@<TRIPOS>MOLECULE
query molecule
   55    59     1     0     0
SMALL
NO_CHARGE

@<TRIPOS>ATOM
      1 N         -20.8907  -16.8270   38.4864 N.am      1 MOL    -0.2945
      2 N         -20.7412  -17.0642   41.0690 N.am      1 MOL    -0.2983
      3 N         -14.1884  -15.7495   35.1644 N.ar      1 MOL    -0.1750
      4 N         -13.1709  -14.9280   35.0723 N.ar      1 MOL    -0.2425
      5 C         -12.3004  -14.7211   36.0704 C.ar      1 MOL     0.2725
      6 C         -12.4773  -15.4026   37.2570 C.ar      1 MOL     0.0496
      7 C         -11.6123  -15.2095   38.3348 C.ar      1 MOL     0.0138
      8 C         -11.8209  -15.8850   39.5179 C.ar      1 MOL     0.0008
      9 C         -12.9047  -16.7359   39.5694 C.ar      1 MOL     0.0007
     10 C         -13.7713  -16.9368   38.5080 C.ar      1 MOL     0.0103
     11 C         -13.5544  -16.2654   37.3409 C.ar      1 MOL     0.0106
     12 C         -14.4307  -16.4622   36.3075 C.ar      1 MOL     0.0736
     13 C         -15.5540  -17.3887   36.2564 C.3       1 MOL     0.0925
     14 C         -16.8410  -16.6464   36.1566 C.ar      1 MOL    -0.0406
     15 C         -17.9556  -17.2873   36.7263 C.ar      1 MOL     0.0196
     16 C         -19.1901  -16.6856   36.6751 C.ar      1 MOL     0.0723
     17 C         -20.3829  -17.3365   37.2626 C.2       1 MOL     0.2495
     18 C         -22.0420  -17.4251   39.0811 C.3       1 MOL     0.1268
     19 C         -22.0848  -17.2425   40.5831 C.3       1 MOL     0.1265
     20 C         -20.0113  -15.8856   40.5892 C.3       1 MOL     0.1265
     21 C         -20.2211  -15.6998   39.1085 C.3       1 MOL     0.1268
     22 C         -20.1387  -17.9605   41.9566 C.2       1 MOL     0.2187
     23 C         -20.7281  -19.1821   42.5110 C.3       1 MOL     0.0752
     24 C         -20.6693  -20.4099   41.6306 C.3       1 MOL     0.0134
     25 C         -21.9570  -19.7756   41.9218 C.3       1 MOL     0.0134
     26 C         -19.4093  -15.4628   36.0864 C.ar      1 MOL     0.1355
     27 C         -18.3176  -14.8364   35.5290 C.ar      1 MOL     0.0392
     28 C         -17.0568  -15.4479   35.5786 C.ar      1 MOL     0.0066
     29 O         -11.3183  -13.9386   36.0007 O.2       1 MOL    -0.2658
     30 O         -18.9412  -17.7046   42.3383 O.2       1 MOL    -0.2753
     31 O         -20.9489  -18.3113   36.7167 O.2       1 MOL    -0.2699
     32 F         -20.6555  -14.9069   36.0607 F         1 MOL    -0.2047
     33 H         -10.8148  -14.5606   38.2460 H         1 MOL     0.0625
     34 H         -11.1951  -15.7593   40.3278 H         1 MOL     0.0618
     35 H         -13.0796  -17.2504   40.4462 H         1 MOL     0.0618
     36 H         -14.5693  -17.5852   38.5980 H         1 MOL     0.0624
     37 H         -15.5595  -17.9851   37.1448 H         1 MOL     0.0377
     38 H         -15.4487  -18.0118   35.3926 H         1 MOL     0.0377
     39 H         -17.8469  -18.2070   37.1813 H         1 MOL     0.0629
     40 H         -22.0347  -18.4729   38.8632 H         1 MOL     0.0480
     41 H         -22.9051  -16.9419   38.6718 H         1 MOL     0.0480
     42 H         -22.5201  -18.1073   41.0379 H         1 MOL     0.0480
     43 H         -22.6762  -16.3845   40.8272 H         1 MOL     0.0480
     44 H         -18.9670  -16.0147   40.7826 H         1 MOL     0.0480
     45 H         -20.3772  -15.0197   41.1004 H         1 MOL     0.0480
     46 H         -19.2668  -15.5711   38.6416 H         1 MOL     0.0480
     47 H         -20.8476  -14.8433   38.9781 H         1 MOL     0.0480
     48 H         -20.4460  -18.9066   43.5055 H         1 MOL     0.0394
     49 H         -20.4336  -21.3630   42.0564 H         1 MOL     0.0273
     50 H         -20.1408  -20.6781   40.7398 H         1 MOL     0.0273
     51 H         -22.6624  -20.2730   42.5542 H         1 MOL     0.0273
     52 H         -22.7550  -19.3962   41.3197 H         1 MOL     0.0273
     53 H         -18.4277  -13.9157   35.0746 H         1 MOL     0.0646
     54 H         -16.2548  -14.9569   35.1526 H         1 MOL     0.0621
     55 H         -13.0394  -14.4391   34.2276 H         1 MOL     0.1921
@<TRIPOS>BOND
     1    1   17 am
     2    1   18 1 
     3    1   21 1 
     4    2   19 1 
     5    2   20 1 
     6    2   22 am
     7    3    4 ar
     8    3   12 ar
     9    4    5 ar
    10    4   55 1 
    11    5    6 ar
    12    5   29 2 
    13    6    7 ar
    14    6   11 ar
    15    7    8 ar
    16    7   33 1 
    17    8    9 ar
    18    8   34 1 
    19    9   10 ar
    20    9   35 1 
    21   10   11 ar
    22   10   36 1 
    23   11   12 ar
    24   12   13 1 
    25   13   14 1 
    26   13   37 1 
    27   13   38 1 
    28   14   15 ar
    29   14   28 ar
    30   15   16 ar
    31   15   39 1 
    32   16   17 1 
    33   16   26 ar
    34   17   31 2 
    35   18   19 1 
    36   18   40 1 
    37   18   41 1 
    38   19   42 1 
    39   19   43 1 
    40   20   21 1 
    41   20   44 1 
    42   20   45 1 
    43   21   46 1 
    44   21   47 1 
    45   22   23 1 
    46   22   30 2 
    47   23   24 1 
    48   23   25 1 
    49   23   48 1 
    50   24   25 1 
    51   24   49 1 
    52   24   50 1 
    53   25   51 1 
    54   25   52 1 
    55   26   27 ar
    56   26   32 1 
    57   27   28 ar
    58   27   53 1 
    59   28   54 1 
@<TRIPOS>SUBSTRUCTURE
1 MOL         1
@<TRIPOS>MOLECULE
query molecule
   55    59     1     0     0
SMALL
NO_CHARGE

@<TRIPOS>ATOM
      1 N          17.4743   13.6824   -2.8539 N.am      1 MOL    -0.2945
      2 N          19.7064   14.8115   -3.5550 N.am      1 MOL    -0.2983
      3 N          13.3488    7.7025   -5.6724 N.ar      1 MOL    -0.1750
      4 N          13.0396    6.4430   -5.8640 N.ar      1 MOL    -0.2425
      5 C          13.9379    5.4494   -5.8121 C.ar      1 MOL     0.2725
      6 C          15.2555    5.7594   -5.5447 C.ar      1 MOL     0.0496
      7 C          16.2346    4.7662   -5.4991 C.ar      1 MOL     0.0138
      8 C          17.5482    5.1017   -5.2513 C.ar      1 MOL     0.0008
      9 C          17.8265    6.4384   -5.0590 C.ar      1 MOL     0.0007
     10 C          16.8653    7.4344   -5.1018 C.ar      1 MOL     0.0103
     11 C          15.5680    7.0915   -5.3451 C.ar      1 MOL     0.0106
     12 C          14.6331    8.0902   -5.4016 C.ar      1 MOL     0.0736
     13 C          14.8306    9.5106   -5.1439 C.3       1 MOL     0.0925
     14 C          15.7970    9.7112   -4.0290 C.ar      1 MOL    -0.0406
     15 C          15.9032   11.0289   -3.5492 C.ar      1 MOL     0.0196
     16 C          16.7768   11.3161   -2.5279 C.ar      1 MOL     0.0723
     17 C          16.9137   12.6936   -2.0036 C.2       1 MOL     0.2495
     18 C          17.6179   15.0230   -2.3855 C.3       1 MOL     0.1268
     19 C          18.7400   15.7663   -3.0779 C.3       1 MOL     0.1265
     20 C          19.2476   13.8461   -4.5597 C.3       1 MOL     0.1265
     21 C          17.8910   13.3030   -4.1912 C.3       1 MOL     0.1268
     22 C          21.0263   14.7857   -3.0954 C.2       1 MOL     0.2187
     23 C          21.6274   15.6677   -2.0915 C.3       1 MOL     0.0752
     24 C          21.7492   17.1259   -2.4723 C.3       1 MOL     0.0134
     25 C          22.9513   16.3025   -2.3236 C.3       1 MOL     0.0134
     26 C          17.5745   10.3699   -1.9293 C.ar      1 MOL     0.1355
     27 C          17.4698    9.0805   -2.3997 C.ar      1 MOL     0.0392
     28 C          16.5802    8.7841   -3.4423 C.ar      1 MOL     0.0066
     29 O          13.6605    4.2359   -5.9918 O.2       1 MOL    -0.2658
     30 O          21.8118   13.9020   -3.5928 O.2       1 MOL    -0.2753
     31 O          16.5531   13.0066   -0.8457 O.2       1 MOL    -0.2699
     32 F          18.4273   10.7056   -0.9180 F         1 MOL    -0.2047
     33 H          15.9749    3.7790   -5.6503 H         1 MOL     0.0625
     34 H          18.2891    4.3856   -5.2123 H         1 MOL     0.0618
     35 H          18.8039    6.7112   -4.8734 H         1 MOL     0.0618
     36 H          17.1260    8.4218   -4.9516 H         1 MOL     0.0624
     37 H          13.8931    9.9547   -4.8814 H         1 MOL     0.0377
     38 H          15.2239    9.9703   -6.0267 H         1 MOL     0.0377
     39 H          15.3270   11.7781   -3.9631 H         1 MOL     0.0629
     40 H          17.8199   14.9987   -1.3348 H         1 MOL     0.0480
     41 H          16.7058   15.5402   -2.6012 H         1 MOL     0.0480
     42 H          19.2070   16.4364   -2.3872 H         1 MOL     0.0480
     43 H          18.3489   16.3289   -3.9001 H         1 MOL     0.0480
     44 H          19.9460   13.0376   -4.6168 H         1 MOL     0.0480
     45 H          19.1757   14.3394   -5.5066 H         1 MOL     0.0480
     46 H          17.9238   12.2349   -4.2470 H         1 MOL     0.0480
     47 H          17.1826   13.7167   -4.8769 H         1 MOL     0.0480
     48 H          21.2167   15.0903   -1.2900 H         1 MOL     0.0394
     49 H          21.5293   17.8871   -1.7529 H         1 MOL     0.0273
     50 H          21.3438   17.7424   -3.2472 H         1 MOL     0.0273
     51 H          23.6113   16.4715   -1.4984 H         1 MOL     0.0273
     52 H          23.7861   16.0802   -2.9536 H         1 MOL     0.0273
     53 H          18.0465    8.3315   -1.9842 H         1 MOL     0.0646
     54 H          16.5214    7.8092   -3.7766 H         1 MOL     0.0621
     55 H          12.1006    6.2156   -6.0550 H         1 MOL     0.1921
@<TRIPOS>BOND
     1    1   17 am
     2    1   18 1 
     3    1   21 1 
     4    2   19 1 
     5    2   20 1 
     6    2   22 am
     7    3    4 ar
     8    3   12 ar
     9    4    5 ar
    10    4   55 1 
    11    5    6 ar
    12    5   29 2 
    13    6    7 ar
    14    6   11 ar
    15    7    8 ar
    16    7   33 1 
    17    8    9 ar
    18    8   34 1 
    19    9   10 ar
    20    9   35 1 
    21   10   11 ar
    22   10   36 1 
    23   11   12 ar
    24   12   13 1 
    25   13   14 1 
    26   13   37 1 
    27   13   38 1 
    28   14   15 ar
    29   14   28 ar
    30   15   16 ar
    31   15   39 1 
    32   16   17 1 
    33   16   26 ar
    34   17   31 2 
    35   18   19 1 
    36   18   40 1 
    37   18   41 1 
    38   19   42 1 
    39   19   43 1 
    40   20   21 1 
    41   20   44 1 
    42   20   45 1 
    43   21   46 1 
    44   21   47 1 
    45   22   23 1 
    46   22   30 2 
    47   23   24 1 
    48   23   25 1 
    49   23   48 1 
    50   24   25 1 
    51   24   49 1 
    52   24   50 1 
    53   25   51 1 
    54   25   52 1 
    55   26   27 ar
    56   26   32 1 
    57   27   28 ar
    58   27   53 1 
    59   28   54 1 
@<TRIPOS>SUBSTRUCTURE
1 MOL         1
@<TRIPOS>MOLECULE
query molecule
   55    59     1     0     0
SMALL
NO_CHARGE

@<TRIPOS>ATOM
      1 N         -12.1364    2.8570   39.2779 N.am      1 MOL    -0.2945
      2 N         -11.3637    1.5252   41.3702 N.am      1 MOL    -0.2983
      3 N          -9.2525    1.4199   33.4823 N.ar      1 MOL    -0.1750
      4 N          -9.4131    1.1615   32.2071 N.ar      1 MOL    -0.2425
      5 C          -8.4512    1.3483   31.2924 C.ar      1 MOL     0.2725
      6 C          -7.2286    1.8367   31.7054 C.ar      1 MOL     0.0496
      7 C          -6.1995    2.0686   30.7921 C.ar      1 MOL     0.0138
      8 C          -4.9936    2.5771   31.2243 C.ar      1 MOL     0.0008
      9 C          -4.8716    2.8360   32.5731 C.ar      1 MOL     0.0007
     10 C          -5.8844    2.6112   33.4904 C.ar      1 MOL     0.0103
     11 C          -7.0729    2.1054   33.0527 C.ar      1 MOL     0.0106
     12 C          -8.0695    1.9056   33.9700 C.ar      1 MOL     0.0736
     13 C          -8.0006    2.0874   35.4140 C.3       1 MOL     0.0925
     14 C          -9.0278    3.0650   35.8684 C.ar      1 MOL    -0.0406
     15 C         -10.0880    2.5251   36.6180 C.ar      1 MOL     0.0196
     16 C         -11.0911    3.3468   37.0734 C.ar      1 MOL     0.0723
     17 C         -12.2221    2.8079   37.8618 C.2       1 MOL     0.2495
     18 C         -13.2092    2.3516   40.0720 C.3       1 MOL     0.1268
     19 C         -12.7553    1.8882   41.4396 C.3       1 MOL     0.1265
     20 C         -10.4152    2.5892   41.0235 C.3       1 MOL     0.1265
     21 C         -10.9495    3.4255   39.8893 C.3       1 MOL     0.1268
     22 C         -10.9138    0.2248   41.6166 C.2       1 MOL     0.2187
     23 C         -11.7330   -0.9413   41.9576 C.3       1 MOL     0.0752
     24 C         -11.5242   -1.5223   43.3378 C.3       1 MOL     0.0134
     25 C         -11.1167   -2.2800   42.1524 C.3       1 MOL     0.0134
     26 C         -11.1232    4.7005   36.8361 C.ar      1 MOL     0.1355
     27 C         -10.0848    5.2280   36.1022 C.ar      1 MOL     0.0392
     28 C          -9.0603    4.3923   35.6351 C.ar      1 MOL     0.0066
     29 O          -8.5857    1.1053   30.0658 O.2       1 MOL    -0.2658
     30 O          -9.6519    0.0078   41.5402 O.2       1 MOL    -0.2753
     31 O         -13.2394    2.3166   37.3209 O.2       1 MOL    -0.2699
     32 F         -12.1426    5.4745   37.3098 F         1 MOL    -0.2047
     33 H          -6.3409    1.8584   29.7916 H         1 MOL     0.0625
     34 H          -4.2182    2.7563   30.5686 H         1 MOL     0.0618
     35 H          -3.9775    3.2183   32.9174 H         1 MOL     0.0618
     36 H          -5.7426    2.8227   34.4907 H         1 MOL     0.0624
     37 H          -7.0288    2.4497   35.6774 H         1 MOL     0.0377
     38 H          -8.1868    1.1471   35.8897 H         1 MOL     0.0377
     39 H         -10.1130    1.5146   36.8252 H         1 MOL     0.0629
     40 H         -13.6540    1.5239   39.5597 H         1 MOL     0.0480
     41 H         -13.9082    3.1494   40.2163 H         1 MOL     0.0480
     42 H         -13.3336    1.0407   41.7420 H         1 MOL     0.0480
     43 H         -12.8902    2.6752   42.1523 H         1 MOL     0.0480
     44 H          -9.4851    2.1503   40.7286 H         1 MOL     0.0480
     45 H         -10.2724    3.2178   41.8776 H         1 MOL     0.0480
     46 H         -10.1894    3.5119   39.1410 H         1 MOL     0.0480
     47 H         -11.2217    4.3774   40.2930 H         1 MOL     0.0480
     48 H         -12.5480   -0.5840   41.3639 H         1 MOL     0.0394
     49 H         -12.3653   -1.8441   43.9159 H         1 MOL     0.0273
     50 H         -11.0367   -1.1936   44.2318 H         1 MOL     0.0273
     51 H         -11.6582   -3.1597   41.8732 H         1 MOL     0.0273
     52 H         -10.2024   -2.7347   41.8353 H         1 MOL     0.0273
     53 H         -10.0607    6.2395   35.8960 H         1 MOL     0.0646
     54 H          -8.2937    4.8133   35.0868 H         1 MOL     0.0621
     55 H         -10.2835    0.8124   31.9066 H         1 MOL     0.1921
@<TRIPOS>BOND
     1    1   17 am
     2    1   18 1 
     3    1   21 1 
     4    2   19 1 
     5    2   20 1 
     6    2   22 am
     7    3    4 ar
     8    3   12 ar
     9    4    5 ar
    10    4   55 1 
    11    5    6 ar
    12    5   29 2 
    13    6    7 ar
    14    6   11 ar
    15    7    8 ar
    16    7   33 1 
    17    8    9 ar
    18    8   34 1 
    19    9   10 ar
    20    9   35 1 
    21   10   11 ar
    22   10   36 1 
    23   11   12 ar
    24   12   13 1 
    25   13   14 1 
    26   13   37 1 
    27   13   38 1 
    28   14   15 ar
    29   14   28 ar
    30   15   16 ar
    31   15   39 1 
    32   16   17 1 
    33   16   26 ar
    34   17   31 2 
    35   18   19 1 
    36   18   40 1 
    37   18   41 1 
    38   19   42 1 
    39   19   43 1 
    40   20   21 1 
    41   20   44 1 
    42   20   45 1 
    43   21   46 1 
    44   21   47 1 
    45   22   23 1 
    46   22   30 2 
    47   23   24 1 
    48   23   25 1 
    49   23   48 1 
    50   24   25 1 
    51   24   49 1 
    52   24   50 1 
    53   25   51 1 
    54   25   52 1 
    55   26   27 ar
    56   26   32 1 
    57   27   28 ar
    58   27   53 1 
    59   28   54 1 
@<TRIPOS>SUBSTRUCTURE
1 MOL         1
@<TRIPOS>MOLECULE
query molecule
   55    59     1     0     0
SMALL
NO_CHARGE

@<TRIPOS>ATOM
      1 N         -18.5401   -0.3546   39.9043 N.am      1 MOL    -0.2945
      2 N         -19.0945   -2.8919   39.9617 N.am      1 MOL    -0.2983
      3 N         -13.2870    0.3628   39.0789 N.ar      1 MOL    -0.1750
      4 N         -12.5166    0.3769   40.1395 N.ar      1 MOL    -0.2425
      5 C         -11.8149   -0.6879   40.5526 C.ar      1 MOL     0.2725
      6 C         -11.9027   -1.8608   39.8314 C.ar      1 MOL     0.0496
      7 C         -11.2091   -3.0047   40.2286 C.ar      1 MOL     0.0138
      8 C         -11.3286   -4.1714   39.5048 C.ar      1 MOL     0.0008
      9 C         -12.1518   -4.1398   38.3991 C.ar      1 MOL     0.0007
     10 C         -12.8462   -3.0123   37.9937 C.ar      1 MOL     0.0103
     11 C         -12.7190   -1.8621   38.7154 C.ar      1 MOL     0.0106
     12 C         -13.4260   -0.7616   38.3111 C.ar      1 MOL     0.0736
     13 C         -14.2590   -0.6250   37.1235 C.3       1 MOL     0.0925
     14 C         -15.2452    0.4767   37.2994 C.ar      1 MOL    -0.0406
     15 C         -16.3796    0.1572   38.0668 C.ar      1 MOL     0.0196
     16 C         -17.3519    1.1055   38.2769 C.ar      1 MOL     0.0723
     17 C         -18.5589    0.7988   39.0771 C.2       1 MOL     0.2495
     18 C         -19.6833   -0.6804   40.6942 C.3       1 MOL     0.1268
     19 C         -19.7839   -2.1609   40.9929 C.3       1 MOL     0.1265
     20 C         -17.6531   -2.6544   39.8282 C.3       1 MOL     0.1265
     21 C         -17.3480   -1.1818   39.9273 C.3       1 MOL     0.1268
     22 C         -19.7479   -3.7911   39.1140 C.2       1 MOL     0.2187
     23 C         -21.1751   -4.1231   39.1130 C.3       1 MOL     0.0752
     24 C         -22.0891   -3.1391   39.8075 C.3       1 MOL     0.0134
     25 C         -21.8809   -4.4738   40.3734 C.3       1 MOL     0.0134
     26 C         -17.2826    2.3818   37.7705 C.ar      1 MOL     0.1355
     27 C         -16.1718    2.6933   37.0195 C.ar      1 MOL     0.0392
     28 C         -15.1783    1.7278   36.8024 C.ar      1 MOL     0.0066
     29 O         -11.0700   -0.6934   41.5660 O.2       1 MOL    -0.2658
     30 O         -19.0402   -4.4008   38.2349 O.2       1 MOL    -0.2753
     31 O         -19.5826    1.5197   39.0449 O.2       1 MOL    -0.2699
     32 F         -18.2754    3.2879   38.0069 F         1 MOL    -0.2047
     33 H         -10.6052   -2.9770   41.0650 H         1 MOL     0.0625
     34 H         -10.8257   -5.0291   39.7783 H         1 MOL     0.0618
     35 H         -12.2563   -5.0030   37.8441 H         1 MOL     0.0618
     36 H         -13.4509   -3.0410   37.1577 H         1 MOL     0.0624
     37 H         -14.7827   -1.5425   36.9530 H         1 MOL     0.0377
     38 H         -13.6325   -0.3951   36.2868 H         1 MOL     0.0377
     39 H         -16.4818   -0.7867   38.4708 H         1 MOL     0.0629
     40 H         -20.5628   -0.3768   40.1653 H         1 MOL     0.0480
     41 H         -19.5870   -0.1676   41.6290 H         1 MOL     0.0480
     42 H         -20.8125   -2.4538   41.0152 H         1 MOL     0.0480
     43 H         -19.3407   -2.3697   41.9444 H         1 MOL     0.0480
     44 H         -17.3220   -3.0186   38.8783 H         1 MOL     0.0480
     45 H         -17.1431   -3.1657   40.6179 H         1 MOL     0.0480
     46 H         -16.7262   -0.9054   39.1014 H         1 MOL     0.0480
     47 H         -16.8619   -1.0172   40.8652 H         1 MOL     0.0480
     48 H         -21.0991   -4.5931   38.1551 H         1 MOL     0.0394
     49 H         -23.0321   -2.8841   39.3703 H         1 MOL     0.0273
     50 H         -21.9876   -2.1376   40.1704 H         1 MOL     0.0273
     51 H         -22.6776   -5.1880   40.3550 H         1 MOL     0.0273
     52 H         -21.5676   -4.8389   41.3283 H         1 MOL     0.0273
     53 H         -16.0705    3.6385   36.6163 H         1 MOL     0.0646
     54 H         -14.3558    1.9874   36.2352 H         1 MOL     0.0621
     55 H         -12.4497    1.2115   40.6581 H         1 MOL     0.1921
@<TRIPOS>BOND
     1    1   17 am
     2    1   18 1 
     3    1   21 1 
     4    2   19 1 
     5    2   20 1 
     6    2   22 am
     7    3    4 ar
     8    3   12 ar
     9    4    5 ar
    10    4   55 1 
    11    5    6 ar
    12    5   29 2 
    13    6    7 ar
    14    6   11 ar
    15    7    8 ar
    16    7   33 1 
    17    8    9 ar
    18    8   34 1 
    19    9   10 ar
    20    9   35 1 
    21   10   11 ar
    22   10   36 1 
    23   11   12 ar
    24   12   13 1 
    25   13   14 1 
    26   13   37 1 
    27   13   38 1 
    28   14   15 ar
    29   14   28 ar
    30   15   16 ar
    31   15   39 1 
    32   16   17 1 
    33   16   26 ar
    34   17   31 2 
    35   18   19 1 
    36   18   40 1 
    37   18   41 1 
    38   19   42 1 
    39   19   43 1 
    40   20   21 1 
    41   20   44 1 
    42   20   45 1 
    43   21   46 1 
    44   21   47 1 
    45   22   23 1 
    46   22   30 2 
    47   23   24 1 
    48   23   25 1 
    49   23   48 1 
    50   24   25 1 
    51   24   49 1 
    52   24   50 1 
    53   25   51 1 
    54   25   52 1 
    55   26   27 ar
    56   26   32 1 
    57   27   28 ar
    58   27   53 1 
    59   28   54 1 
@<TRIPOS>SUBSTRUCTURE
1 MOL         1
@<TRIPOS>MOLECULE
query molecule
   55    59     1     0     0
SMALL
NO_CHARGE

@<TRIPOS>ATOM
      1 N          33.1300    9.0511   44.7446 N.am      1 MOL    -0.2945
      2 N          35.3604    7.7410   44.9843 N.am      1 MOL    -0.2983
      3 N          28.5655    6.5550   40.6811 N.ar      1 MOL    -0.1750
      4 N          27.4611    5.9151   40.9800 N.ar      1 MOL    -0.2425
      5 C          27.3802    4.5786   41.0443 C.ar      1 MOL     0.2725
      6 C          28.5110    3.8322   40.7839 C.ar      1 MOL     0.0496
      7 C          28.4774    2.4376   40.8174 C.ar      1 MOL     0.0138
      8 C          29.6141    1.7120   40.5329 C.ar      1 MOL     0.0008
      9 C          30.7509    2.4273   40.2212 C.ar      1 MOL     0.0007
     10 C          30.7985    3.8109   40.1839 C.ar      1 MOL     0.0103
     11 C          29.6688    4.5195   40.4695 C.ar      1 MOL     0.0106
     12 C          29.7286    5.8860   40.4109 C.ar      1 MOL     0.0736
     13 C          30.8990    6.7163   40.1583 C.3       1 MOL     0.0925
     14 C          30.8327    7.9717   40.9565 C.ar      1 MOL    -0.0406
     15 C          31.2947    7.8722   42.2810 C.ar      1 MOL     0.0196
     16 C          31.2639    8.9753   43.1002 C.ar      1 MOL     0.0723
     17 C          31.7398    8.9016   44.5000 C.2       1 MOL     0.2495
     18 C          33.6261    8.9908   46.0815 C.3       1 MOL     0.1268
     19 C          35.0678    8.5348   46.1494 C.3       1 MOL     0.1265
     20 C          35.2608    8.4090   43.6821 C.3       1 MOL     0.1265
     21 C          34.0213    9.2639   43.6194 C.3       1 MOL     0.1268
     22 C          35.7237    6.3935   45.0657 C.2       1 MOL     0.2187
     23 C          35.8519    5.5874   46.2826 C.3       1 MOL     0.0752
     24 C          37.0618    4.6840   46.3597 C.3       1 MOL     0.0134
     25 C          35.7210    4.1073   46.2384 C.3       1 MOL     0.0134
     26 C          30.7979   10.2033   42.6944 C.ar      1 MOL     0.1355
     27 C          30.3459   10.2995   41.3977 C.ar      1 MOL     0.0392
     28 C          30.3749    9.1757   40.5595 C.ar      1 MOL     0.0066
     29 O          26.3308    3.9472   41.3304 O.2       1 MOL    -0.2658
     30 O          35.9753    5.7783   43.9687 O.2       1 MOL    -0.2753
     31 O          30.9597    8.7138   45.4617 O.2       1 MOL    -0.2699
     32 F          30.7873   11.2692   43.5467 F         1 MOL    -0.2047
     33 H          27.6005    1.9486   41.0562 H         1 MOL     0.0625
     34 H          29.6140    0.6810   40.5517 H         1 MOL     0.0618
     35 H          31.6125    1.9034   40.0037 H         1 MOL     0.0618
     36 H          31.6756    4.2992   39.9439 H         1 MOL     0.0624
     37 H          30.9384    6.9624   39.1176 H         1 MOL     0.0377
     38 H          31.7758    6.1733   40.4439 H         1 MOL     0.0377
     39 H          31.6554    6.9735   42.6370 H         1 MOL     0.0629
     40 H          33.0230    8.3053   46.6400 H         1 MOL     0.0480
     41 H          33.5802    9.9800   46.4882 H         1 MOL     0.0480
     42 H          35.2180    7.9484   47.0313 H         1 MOL     0.0480
     43 H          35.7161    9.3857   46.1812 H         1 MOL     0.0480
     44 H          35.2176    7.6705   42.9092 H         1 MOL     0.0480
     45 H          36.1182    9.0348   43.5473 H         1 MOL     0.0480
     46 H          33.4923    9.0333   42.7181 H         1 MOL     0.0480
     47 H          34.3345   10.2858   43.6476 H         1 MOL     0.0480
     48 H          35.3946    6.3507   46.8764 H         1 MOL     0.0394
     49 H          37.6032    4.5917   47.2782 H         1 MOL     0.0273
     50 H          37.9771    4.5960   45.8124 H         1 MOL     0.0273
     51 H          35.2902    3.5872   47.0684 H         1 MOL     0.0273
     52 H          35.2637    3.4178   45.5612 H         1 MOL     0.0273
     53 H          29.9857   11.1997   41.0425 H         1 MOL     0.0646
     54 H          30.0298    9.2750   39.5917 H         1 MOL     0.0621
     55 H          26.6508    6.4427   41.1671 H         1 MOL     0.1921
@<TRIPOS>BOND
     1    1   17 am
     2    1   18 1 
     3    1   21 1 
     4    2   19 1 
     5    2   20 1 
     6    2   22 am
     7    3    4 ar
     8    3   12 ar
     9    4    5 ar
    10    4   55 1 
    11    5    6 ar
    12    5   29 2 
    13    6    7 ar
    14    6   11 ar
    15    7    8 ar
    16    7   33 1 
    17    8    9 ar
    18    8   34 1 
    19    9   10 ar
    20    9   35 1 
    21   10   11 ar
    22   10   36 1 
    23   11   12 ar
    24   12   13 1 
    25   13   14 1 
    26   13   37 1 
    27   13   38 1 
    28   14   15 ar
    29   14   28 ar
    30   15   16 ar
    31   15   39 1 
    32   16   17 1 
    33   16   26 ar
    34   17   31 2 
    35   18   19 1 
    36   18   40 1 
    37   18   41 1 
    38   19   42 1 
    39   19   43 1 
    40   20   21 1 
    41   20   44 1 
    42   20   45 1 
    43   21   46 1 
    44   21   47 1 
    45   22   23 1 
    46   22   30 2 
    47   23   24 1 
    48   23   25 1 
    49   23   48 1 
    50   24   25 1 
    51   24   49 1 
    52   24   50 1 
    53   25   51 1 
    54   25   52 1 
    55   26   27 ar
    56   26   32 1 
    57   27   28 ar
    58   27   53 1 
    59   28   54 1 
@<TRIPOS>SUBSTRUCTURE
1 MOL         1
@<TRIPOS>MOLECULE
query molecule
   55    59     1     0     0
SMALL
NO_CHARGE

@<TRIPOS>ATOM
      1 N         -12.8984  -14.6077   -7.3369 N.am      1 MOL    -0.2945
      2 N         -14.7446  -15.7528   -8.7612 N.am      1 MOL    -0.2983
      3 N          -7.7933  -12.4937   -6.2916 N.ar      1 MOL    -0.1750
      4 N          -7.2222  -12.1554   -5.1611 N.ar      1 MOL    -0.2425
      5 C          -6.0275  -11.5512   -5.0931 C.ar      1 MOL     0.2725
      6 C          -5.3593  -11.2681   -6.2665 C.ar      1 MOL     0.0496
      7 C          -4.1042  -10.6585   -6.2521 C.ar      1 MOL     0.0138
      8 C          -3.4456  -10.4047   -7.4359 C.ar      1 MOL     0.0008
      9 C          -4.0834  -10.7803   -8.5992 C.ar      1 MOL     0.0007
     10 C          -5.3283  -11.3862   -8.6284 C.ar      1 MOL     0.0103
     11 C          -5.9726  -11.6306   -7.4515 C.ar      1 MOL     0.0106
     12 C          -7.1947  -12.2462   -7.4972 C.ar      1 MOL     0.0736
     13 C          -7.9643  -12.6116   -8.6793 C.3       1 MOL     0.0925
     14 C          -9.3647  -12.1184   -8.5656 C.ar      1 MOL    -0.0406
     15 C         -10.2244  -12.9111   -7.7846 C.ar      1 MOL     0.0196
     16 C         -11.5395  -12.5436   -7.6285 C.ar      1 MOL     0.0723
     17 C         -12.4699  -13.3588   -6.8155 C.2       1 MOL     0.2495
     18 C         -13.7915  -15.4241   -6.5801 C.3       1 MOL     0.1268
     19 C         -14.6274  -16.3375   -7.4507 C.3       1 MOL     0.1265
     20 C         -13.5039  -15.5742   -9.5233 C.3       1 MOL     0.1265
     21 C         -12.4132  -15.0280   -8.6383 C.3       1 MOL     0.1268
     22 C         -15.9734  -15.3642   -9.3029 C.2       1 MOL     0.2187
     23 C         -17.2887  -15.4638   -8.6648 C.3       1 MOL     0.0752
     24 C         -18.2071  -14.2757   -8.8411 C.3       1 MOL     0.0134
     25 C         -17.6539  -14.5871   -7.5212 C.3       1 MOL     0.0134
     26 C         -12.0814  -11.4184   -8.2032 C.ar      1 MOL     0.1355
     27 C         -11.2390  -10.6432   -8.9676 C.ar      1 MOL     0.0392
     28 C          -9.8969  -11.0159   -9.1297 C.ar      1 MOL     0.0066
     29 O          -5.4644  -11.2180   -4.0190 O.2       1 MOL    -0.2658
     30 O         -15.9708  -14.8636  -10.4838 O.2       1 MOL    -0.2753
     31 O         -12.8838  -12.9821   -5.6950 O.2       1 MOL    -0.2699
     32 F         -13.3948  -11.0964   -8.0187 F         1 MOL    -0.2047
     33 H          -3.6685  -10.3966   -5.3540 H         1 MOL     0.0625
     34 H          -2.5178   -9.9549   -7.4507 H         1 MOL     0.0618
     35 H          -3.6071  -10.6005   -9.4964 H         1 MOL     0.0618
     36 H          -5.7629  -11.6489   -9.5270 H         1 MOL     0.0624
     37 H          -7.9732  -13.6770   -8.7785 H         1 MOL     0.0377
     38 H          -7.5107  -12.1634   -9.5388 H         1 MOL     0.0377
     39 H          -9.8690  -13.7665   -7.3302 H         1 MOL     0.0629
     40 H         -14.4469  -14.7882   -6.0218 H         1 MOL     0.0480
     41 H         -13.1987  -16.0425   -5.9380 H         1 MOL     0.0480
     42 H         -15.5998  -16.4534   -7.0202 H         1 MOL     0.0480
     43 H         -14.1603  -17.2978   -7.5219 H         1 MOL     0.0480
     44 H         -13.6792  -14.8906  -10.3274 H         1 MOL     0.0480
     45 H         -13.1933  -16.5236   -9.9069 H         1 MOL     0.0480
     46 H         -11.9689  -14.1846   -9.1244 H         1 MOL     0.0480
     47 H         -11.7063  -15.8140   -8.4781 H         1 MOL     0.0480
     48 H         -17.3225  -16.5212   -8.8236 H         1 MOL     0.0394
     49 H         -19.2485  -14.4284   -9.0347 H         1 MOL     0.0273
     50 H         -18.2166  -13.4136   -9.4748 H         1 MOL     0.0273
     51 H         -18.2967  -14.9592   -6.7509 H         1 MOL     0.0273
     52 H         -17.0957  -14.0335   -6.7965 H         1 MOL     0.0273
     53 H         -11.5958   -9.7870   -9.4213 H         1 MOL     0.0646
     54 H          -9.2867  -10.4171   -9.7083 H         1 MOL     0.0621
     55 H          -7.6946  -12.3546   -4.3203 H         1 MOL     0.1921
@<TRIPOS>BOND
     1    1   17 am
     2    1   18 1 
     3    1   21 1 
     4    2   19 1 
     5    2   20 1 
     6    2   22 am
     7    3    4 ar
     8    3   12 ar
     9    4    5 ar
    10    4   55 1 
    11    5    6 ar
    12    5   29 2 
    13    6    7 ar
    14    6   11 ar
    15    7    8 ar
    16    7   33 1 
    17    8    9 ar
    18    8   34 1 
    19    9   10 ar
    20    9   35 1 
    21   10   11 ar
    22   10   36 1 
    23   11   12 ar
    24   12   13 1 
    25   13   14 1 
    26   13   37 1 
    27   13   38 1 
    28   14   15 ar
    29   14   28 ar
    30   15   16 ar
    31   15   39 1 
    32   16   17 1 
    33   16   26 ar
    34   17   31 2 
    35   18   19 1 
    36   18   40 1 
    37   18   41 1 
    38   19   42 1 
    39   19   43 1 
    40   20   21 1 
    41   20   44 1 
    42   20   45 1 
    43   21   46 1 
    44   21   47 1 
    45   22   23 1 
    46   22   30 2 
    47   23   24 1 
    48   23   25 1 
    49   23   48 1 
    50   24   25 1 
    51   24   49 1 
    52   24   50 1 
    53   25   51 1 
    54   25   52 1 
    55   26   27 ar
    56   26   32 1 
    57   27   28 ar
    58   27   53 1 
    59   28   54 1 
@<TRIPOS>SUBSTRUCTURE
1 MOL         1
@<TRIPOS>MOLECULE
query molecule
   55    59     1     0     0
SMALL
NO_CHARGE

@<TRIPOS>ATOM
      1 N          42.5270  -15.9481    4.6262 N.am      1 MOL    -0.2945
      2 N          40.1147  -16.7870    5.1011 N.am      1 MOL    -0.2983
      3 N          43.1510  -10.6717   -0.1360 N.ar      1 MOL    -0.1750
      4 N          42.1595  -10.2820   -0.8999 N.ar      1 MOL    -0.2425
      5 C          41.3119  -11.1328   -1.4953 C.ar      1 MOL     0.2725
      6 C          41.4851  -12.4876   -1.2998 C.ar      1 MOL     0.0496
      7 C          40.6438  -13.4174   -1.9120 C.ar      1 MOL     0.0138
      8 C          40.8489  -14.7667   -1.7195 C.ar      1 MOL     0.0008
      9 C          41.9052  -15.1295   -0.9109 C.ar      1 MOL     0.0007
     10 C          42.7481  -14.2178   -0.2975 C.ar      1 MOL     0.0103
     11 C          42.5349  -12.8850   -0.4924 C.ar      1 MOL     0.0106
     12 C          43.3880  -11.9976    0.1070 C.ar      1 MOL     0.0736
     13 C          44.4798  -12.2934    1.0254 C.3       1 MOL     0.0925
     14 C          43.9910  -12.3098    2.4319 C.ar      1 MOL    -0.0406
     15 C          43.9790  -13.5709    3.0542 C.ar      1 MOL     0.0196
     16 C          43.5348  -13.6897    4.3493 C.ar      1 MOL     0.0723
     17 C          43.5067  -15.0038    5.0304 C.2       1 MOL     0.2495
     18 C          42.4718  -17.2276    5.2563 C.3       1 MOL     0.1268
     19 C          41.0890  -17.8415    5.2110 C.3       1 MOL     0.1265
     20 C          40.1715  -15.9519    3.8964 C.3       1 MOL     0.1265
     21 C          41.5972  -15.5866    3.5724 C.3       1 MOL     0.1268
     22 C          39.1503  -16.5503    6.0850 C.2       1 MOL     0.2187
     23 C          38.9753  -17.2830    7.3418 C.3       1 MOL     0.0752
     24 C          37.8446  -16.8194    8.2321 C.3       1 MOL     0.0134
     25 C          39.2350  -16.6302    8.6518 C.3       1 MOL     0.0134
     26 C          43.0900  -12.6238    5.0949 C.ar      1 MOL     0.1355
     27 C          43.1022  -11.3899    4.4848 C.ar      1 MOL     0.0392
     28 C          43.5539  -11.2652    3.1632 C.ar      1 MOL     0.0066
     29 O          40.3546  -10.7783   -2.2300 O.2       1 MOL    -0.2658
     30 O          38.3204  -15.5928    5.8857 O.2       1 MOL    -0.2753
     31 O          44.3133  -15.3013    5.9413 O.2       1 MOL    -0.2699
     32 F          42.6577  -12.7937    6.3783 F         1 MOL    -0.2047
     33 H          39.8665  -13.0947   -2.5091 H         1 MOL     0.0625
     34 H          40.2403  -15.4726   -2.1607 H         1 MOL     0.0618
     35 H          42.0770  -16.1346   -0.7548 H         1 MOL     0.0618
     36 H          43.5260  -14.5414    0.2987 H         1 MOL     0.0624
     37 H          45.2375  -11.5446    0.9247 H         1 MOL     0.0377
     38 H          44.8784  -13.2580    0.7888 H         1 MOL     0.0377
     39 H          44.3025  -14.4047    2.5397 H         1 MOL     0.0629
     40 H          42.7651  -17.1182    6.2797 H         1 MOL     0.0480
     41 H          43.1327  -17.8793    4.7229 H         1 MOL     0.0480
     42 H          40.9146  -18.4005    6.1062 H         1 MOL     0.0480
     43 H          41.0109  -18.4973    4.3689 H         1 MOL     0.0480
     44 H          39.6083  -15.0572    4.0605 H         1 MOL     0.0480
     45 H          39.7612  -16.5009    3.0746 H         1 MOL     0.0480
     46 H          41.6524  -14.5292    3.4180 H         1 MOL     0.0480
     47 H          41.8773  -16.1327    2.6968 H         1 MOL     0.0480
     48 H          39.3073  -18.1962    6.8943 H         1 MOL     0.0394
     49 H          37.2277  -17.5374    8.7314 H         1 MOL     0.0273
     50 H          36.9966  -16.1788    8.1074 H         1 MOL     0.0273
     51 H          39.6271  -17.2063    9.4639 H         1 MOL     0.0273
     52 H          39.8118  -15.7859    8.9643 H         1 MOL     0.0273
     53 H          42.7788  -10.5562    5.0010 H         1 MOL     0.0646
     54 H          43.5524  -10.3286    2.7292 H         1 MOL     0.0621
     55 H          42.0307   -9.3161   -1.0428 H         1 MOL     0.1921
@<TRIPOS>BOND
     1    1   17 am
     2    1   18 1 
     3    1   21 1 
     4    2   19 1 
     5    2   20 1 
     6    2   22 am
     7    3    4 ar
     8    3   12 ar
     9    4    5 ar
    10    4   55 1 
    11    5    6 ar
    12    5   29 2 
    13    6    7 ar
    14    6   11 ar
    15    7    8 ar
    16    7   33 1 
    17    8    9 ar
    18    8   34 1 
    19    9   10 ar
    20    9   35 1 
    21   10   11 ar
    22   10   36 1 
    23   11   12 ar
    24   12   13 1 
    25   13   14 1 
    26   13   37 1 
    27   13   38 1 
    28   14   15 ar
    29   14   28 ar
    30   15   16 ar
    31   15   39 1 
    32   16   17 1 
    33   16   26 ar
    34   17   31 2 
    35   18   19 1 
    36   18   40 1 
    37   18   41 1 
    38   19   42 1 
    39   19   43 1 
    40   20   21 1 
    41   20   44 1 
    42   20   45 1 
    43   21   46 1 
    44   21   47 1 
    45   22   23 1 
    46   22   30 2 
    47   23   24 1 
    48   23   25 1 
    49   23   48 1 
    50   24   25 1 
    51   24   49 1 
    52   24   50 1 
    53   25   51 1 
    54   25   52 1 
    55   26   27 ar
    56   26   32 1 
    57   27   28 ar
    58   27   53 1 
    59   28   54 1 
@<TRIPOS>SUBSTRUCTURE
1 MOL         1
@<TRIPOS>MOLECULE
query molecule
   55    59     1     0     0
SMALL
NO_CHARGE

@<TRIPOS>ATOM
      1 N         -12.6891    9.5195    6.2497 N.am      1 MOL    -0.2945
      2 N         -15.1475   10.3227    6.0061 N.am      1 MOL    -0.2983
      3 N          -6.3913    8.6104    4.2701 N.ar      1 MOL    -0.1750
      4 N          -5.1210    8.8419    4.4971 N.ar      1 MOL    -0.2425
      5 C          -4.2204    9.0201    3.5204 C.ar      1 MOL     0.2725
      6 C          -4.6431    8.9581    2.2085 C.ar      1 MOL     0.0496
      7 C          -3.7439    9.1166    1.1533 C.ar      1 MOL     0.0138
      8 C          -4.1850    9.0294   -0.1495 C.ar      1 MOL     0.0008
      9 C          -5.5281    8.7820   -0.3396 C.ar      1 MOL     0.0007
     10 C          -6.4315    8.6223    0.6978 C.ar      1 MOL     0.0103
     11 C          -5.9851    8.7130    1.9832 C.ar      1 MOL     0.0106
     12 C          -6.8880    8.5352    2.9970 C.ar      1 MOL     0.0736
     13 C          -8.3274    8.3393    2.8836 C.3       1 MOL     0.0925
     14 C          -9.0609    9.4995    3.4608 C.ar      1 MOL    -0.0406
     15 C          -9.8208    9.2239    4.6116 C.ar      1 MOL     0.0196
     16 C         -10.5416   10.2286    5.2114 C.ar      1 MOL     0.0723
     17 C         -11.3537    9.9692    6.4216 C.2       1 MOL     0.2495
     18 C         -13.5015    9.2542    7.3928 C.3       1 MOL     0.1268
     19 C         -14.9797    9.4105    7.1074 C.3       1 MOL     0.1265
     20 C         -14.5781    9.9194    4.7157 C.3       1 MOL     0.1265
     21 C         -13.2003    9.3384    4.9037 C.3       1 MOL     0.1268
     22 C         -15.8175   11.5426    6.1370 C.2       1 MOL     0.2187
     23 C         -16.4242   12.0886    7.3539 C.3       1 MOL     0.0752
     24 C         -16.5637   11.1321    8.5165 C.3       1 MOL     0.0134
     25 C         -17.7560   11.6225    7.8216 C.3       1 MOL     0.0134
     26 C         -10.5663   11.5214    4.7444 C.ar      1 MOL     0.1355
     27 C          -9.8222   11.7900    3.6179 C.ar      1 MOL     0.0392
     28 C          -9.0864   10.7670    3.0028 C.ar      1 MOL     0.0066
     29 O          -2.9987    9.2443    3.7181 O.2       1 MOL    -0.2658
     30 O         -15.9227   12.2782    5.0915 O.2       1 MOL    -0.2753
     31 O         -10.9008   10.1333    7.5778 O.2       1 MOL    -0.2699
     32 F         -11.2992   12.4842    5.3758 F         1 MOL    -0.2047
     33 H          -2.7473    9.3000    1.3484 H         1 MOL     0.0625
     34 H          -3.5398    9.1434   -0.9457 H         1 MOL     0.0618
     35 H          -5.8788    8.7116   -1.3072 H         1 MOL     0.0618
     36 H          -7.4279    8.4377    0.5019 H         1 MOL     0.0624
     37 H          -8.6045    7.4501    3.4104 H         1 MOL     0.0377
     38 H          -8.5834    8.2513    1.8482 H         1 MOL     0.0377
     39 H          -9.8373    8.2700    5.0043 H         1 MOL     0.0629
     40 H         -13.2289    9.9352    8.1721 H         1 MOL     0.0480
     41 H         -13.3332    8.2367    7.6797 H         1 MOL     0.0480
     42 H         -15.4739    9.7975    7.9736 H         1 MOL     0.0480
     43 H         -15.4036    8.4596    6.8592 H         1 MOL     0.0480
     44 H         -14.5144   10.7744    4.0757 H         1 MOL     0.0480
     45 H         -15.2088    9.1752    4.2761 H         1 MOL     0.0480
     46 H         -12.5314    9.8163    4.2186 H         1 MOL     0.0480
     47 H         -13.2687    8.2863    4.7260 H         1 MOL     0.0480
     48 H         -16.0040   13.0550    7.1696 H         1 MOL     0.0394
     49 H         -16.3493   11.4639    9.5112 H         1 MOL     0.0273
     50 H         -16.1683   10.1667    8.7543 H         1 MOL     0.0273
     51 H         -18.4145   12.3061    8.3158 H         1 MOL     0.0273
     52 H         -18.5909   11.1509    7.3484 H         1 MOL     0.0273
     53 H          -9.8061   12.7452    3.2262 H         1 MOL     0.0646
     54 H          -8.5372   10.9952    2.1590 H         1 MOL     0.0621
     55 H          -4.8135    8.8876    5.4315 H         1 MOL     0.1921
@<TRIPOS>BOND
     1    1   17 am
     2    1   18 1 
     3    1   21 1 
     4    2   19 1 
     5    2   20 1 
     6    2   22 am
     7    3    4 ar
     8    3   12 ar
     9    4    5 ar
    10    4   55 1 
    11    5    6 ar
    12    5   29 2 
    13    6    7 ar
    14    6   11 ar
    15    7    8 ar
    16    7   33 1 
    17    8    9 ar
    18    8   34 1 
    19    9   10 ar
    20    9   35 1 
    21   10   11 ar
    22   10   36 1 
    23   11   12 ar
    24   12   13 1 
    25   13   14 1 
    26   13   37 1 
    27   13   38 1 
    28   14   15 ar
    29   14   28 ar
    30   15   16 ar
    31   15   39 1 
    32   16   17 1 
    33   16   26 ar
    34   17   31 2 
    35   18   19 1 
    36   18   40 1 
    37   18   41 1 
    38   19   42 1 
    39   19   43 1 
    40   20   21 1 
    41   20   44 1 
    42   20   45 1 
    43   21   46 1 
    44   21   47 1 
    45   22   23 1 
    46   22   30 2 
    47   23   24 1 
    48   23   25 1 
    49   23   48 1 
    50   24   25 1 
    51   24   49 1 
    52   24   50 1 
    53   25   51 1 
    54   25   52 1 
    55   26   27 ar
    56   26   32 1 
    57   27   28 ar
    58   27   53 1 
    59   28   54 1 
@<TRIPOS>SUBSTRUCTURE
1 MOL         1
@<TRIPOS>MOLECULE
query molecule
   55    59     1     0     0
SMALL
NO_CHARGE

@<TRIPOS>ATOM
      1 N          35.5800   12.1727   -4.3299 N.am      1 MOL    -0.2945
      2 N          33.1757   13.1136   -4.0429 N.am      1 MOL    -0.2983
      3 N          35.6717    9.8641   -9.0779 N.ar      1 MOL    -0.1750
      4 N          34.6001    9.6192   -9.7923 N.ar      1 MOL    -0.2425
      5 C          34.6449    9.1634  -11.0521 C.ar      1 MOL     0.2725
      6 C          35.8761    8.9387  -11.6331 C.ar      1 MOL     0.0496
      7 C          35.9801    8.4837  -12.9481 C.ar      1 MOL     0.0138
      8 C          37.2208    8.2865  -13.5150 C.ar      1 MOL     0.0008
      9 C          38.3188    8.5598  -12.7270 C.ar      1 MOL     0.0007
     10 C          38.2304    9.0121  -11.4211 C.ar      1 MOL     0.0103
     11 C          36.9979    9.2014  -10.8688 C.ar      1 MOL     0.0106
     12 C          36.9283    9.6656   -9.5826 C.ar      1 MOL     0.0736
     13 C          38.0319    9.9127   -8.6639 C.3       1 MOL     0.0925
     14 C          37.9095   11.2635   -8.0494 C.ar      1 MOL    -0.0406
     15 C          37.5012   11.2820   -6.7038 C.ar      1 MOL     0.0196
     16 C          37.3494   12.4824   -6.0521 C.ar      1 MOL     0.0723
     17 C          36.9177   12.5349   -4.6371 C.2       1 MOL     0.2495
     18 C          35.1284   12.2061   -2.9764 C.3       1 MOL     0.1268
     19 C          33.6350   12.4255   -2.8645 C.3       1 MOL     0.1265
     20 C          33.3368   12.4182   -5.3245 C.3       1 MOL     0.1265
     21 C          34.6962   11.7731   -5.4092 C.3       1 MOL     0.1268
     22 C          32.6006   14.3868   -3.9926 C.2       1 MOL     0.2187
     23 C          32.3859   15.2103   -2.7998 C.3       1 MOL     0.0752
     24 C          30.9535   15.3529   -2.3370 C.3       1 MOL     0.0134
     25 C          31.6672   16.5088   -2.8845 C.3       1 MOL     0.0134
     26 C          37.5786   13.6992   -6.6494 C.ar      1 MOL     0.1355
     27 C          37.9781   13.6799   -7.9666 C.ar      1 MOL     0.0392
     28 C          38.1330   12.4569   -8.6349 C.ar      1 MOL     0.0066
     29 O          33.6287    8.9215  -11.7526 O.2       1 MOL    -0.2658
     30 O          32.2134   14.9082   -5.0987 O.2       1 MOL    -0.2753
     31 O          37.6903   12.8852   -3.7155 O.2       1 MOL    -0.2699
     32 F          37.4129   14.8648   -5.9591 F         1 MOL    -0.2047
     33 H          35.1270    8.2938  -13.4969 H         1 MOL     0.0625
     34 H          37.3230    7.9505  -14.4845 H         1 MOL     0.0618
     35 H          39.2570    8.4202  -13.1326 H         1 MOL     0.0618
     36 H          39.0840    9.2029  -10.8731 H         1 MOL     0.0624
     37 H          38.9564    9.8519   -9.1994 H         1 MOL     0.0377
     38 H          38.0052    9.1777   -7.8864 H         1 MOL     0.0377
     39 H          37.3159   10.3967   -6.2073 H         1 MOL     0.0629
     40 H          35.6310   13.0022   -2.4673 H         1 MOL     0.0480
     41 H          35.3494   11.2547   -2.5384 H         1 MOL     0.0480
     42 H          33.4224   13.0152   -1.9976 H         1 MOL     0.0480
     43 H          33.1357   11.4829   -2.7765 H         1 MOL     0.0480
     44 H          33.2316   13.1220   -6.1233 H         1 MOL     0.0480
     45 H          32.5888   11.6571   -5.4020 H         1 MOL     0.0480
     46 H          35.1482   12.0494   -6.3390 H         1 MOL     0.0480
     47 H          34.5550   10.7160   -5.3330 H         1 MOL     0.0480
     48 H          33.3262   14.9136   -2.3850 H         1 MOL     0.0394
     49 H          30.7219   15.3121   -1.2930 H         1 MOL     0.0273
     50 H          30.0328   14.8554   -2.5598 H         1 MOL     0.0273
     51 H          31.9475   17.3141   -2.2381 H         1 MOL     0.0273
     52 H          31.4692   17.2028   -3.6734 H         1 MOL     0.0273
     53 H          38.1639   14.5665   -8.4622 H         1 MOL     0.0646
     54 H          38.4333   12.4707   -9.6224 H         1 MOL     0.0621
     55 H          33.7186    9.7774   -9.3828 H         1 MOL     0.1921
@<TRIPOS>BOND
     1    1   17 am
     2    1   18 1 
     3    1   21 1 
     4    2   19 1 
     5    2   20 1 
     6    2   22 am
     7    3    4 ar
     8    3   12 ar
     9    4    5 ar
    10    4   55 1 
    11    5    6 ar
    12    5   29 2 
    13    6    7 ar
    14    6   11 ar
    15    7    8 ar
    16    7   33 1 
    17    8    9 ar
    18    8   34 1 
    19    9   10 ar
    20    9   35 1 
    21   10   11 ar
    22   10   36 1 
    23   11   12 ar
    24   12   13 1 
    25   13   14 1 
    26   13   37 1 
    27   13   38 1 
    28   14   15 ar
    29   14   28 ar
    30   15   16 ar
    31   15   39 1 
    32   16   17 1 
    33   16   26 ar
    34   17   31 2 
    35   18   19 1 
    36   18   40 1 
    37   18   41 1 
    38   19   42 1 
    39   19   43 1 
    40   20   21 1 
    41   20   44 1 
    42   20   45 1 
    43   21   46 1 
    44   21   47 1 
    45   22   23 1 
    46   22   30 2 
    47   23   24 1 
    48   23   25 1 
    49   23   48 1 
    50   24   25 1 
    51   24   49 1 
    52   24   50 1 
    53   25   51 1 
    54   25   52 1 
    55   26   27 ar
    56   26   32 1 
    57   27   28 ar
    58   27   53 1 
    59   28   54 1 
@<TRIPOS>SUBSTRUCTURE
1 MOL         1
@<TRIPOS>MOLECULE
query molecule
   55    59     1     0     0
SMALL
NO_CHARGE

@<TRIPOS>ATOM
      1 N         -18.8152   14.7327   11.3985 N.am      1 MOL    -0.2945
      2 N         -17.8584   14.0331   13.7101 N.am      1 MOL    -0.2983
      3 N         -14.9252   18.2440   10.0412 N.ar      1 MOL    -0.1750
      4 N         -13.8876   18.1276   10.8340 N.ar      1 MOL    -0.2425
      5 C         -12.6667   18.5823   10.5185 C.ar      1 MOL     0.2725
      6 C         -12.4847   19.2045    9.3006 C.ar      1 MOL     0.0496
      7 C         -11.2305   19.6784    8.9137 C.ar      1 MOL     0.0138
      8 C         -11.0676   20.2776    7.6833 C.ar      1 MOL     0.0008
      9 C         -12.1858   20.3754    6.8825 C.ar      1 MOL     0.0007
     10 C         -13.4361   19.9093    7.2533 C.ar      1 MOL     0.0103
     11 C         -13.5870   19.3203    8.4740 C.ar      1 MOL     0.0106
     12 C         -14.8258   18.8493    8.8177 C.ar      1 MOL     0.0736
     13 C         -16.0664   18.9727    8.0635 C.3       1 MOL     0.0925
     14 C         -17.2244   18.5193    8.8825 C.ar      1 MOL    -0.0406
     15 C         -17.3012   17.1333    9.1078 C.ar      1 MOL     0.0196
     16 C         -18.3405   16.6170    9.8441 C.ar      1 MOL     0.0723
     17 C         -18.4508   15.1624   10.0956 C.2       1 MOL     0.2495
     18 C         -18.9365   13.3383   11.6781 C.3       1 MOL     0.1268
     19 C         -18.6963   13.0123   13.1366 C.3       1 MOL     0.1265
     20 C         -18.3957   15.3979   13.7357 C.3       1 MOL     0.1265
     21 C         -19.0584   15.7305   12.4237 C.3       1 MOL     0.1268
     22 C         -16.5874   13.7601   14.2240 C.2       1 MOL     0.2187
     23 C         -15.9108   12.4608   14.2574 C.3       1 MOL     0.0752
     24 C         -15.2345   12.0279   12.9763 C.3       1 MOL     0.0134
     25 C         -16.4172   11.3125   13.4607 C.3       1 MOL     0.0134
     26 C         -19.3363   17.3921   10.3895 C.ar      1 MOL     0.1355
     27 C         -19.2602   18.7486   10.1683 C.ar      1 MOL     0.0392
     28 C         -18.2017   19.2785    9.4167 C.ar      1 MOL     0.0066
     29 O         -11.6601   18.4812   11.2657 O.2       1 MOL    -0.2658
     30 O         -15.9254   14.7385   14.7237 O.2       1 MOL    -0.2753
     31 O         -18.2346   14.3117    9.2021 O.2       1 MOL    -0.2699
     32 F         -20.3486   16.8312   11.1131 F         1 MOL    -0.2047
     33 H         -10.4238   19.5808    9.5499 H         1 MOL     0.0625
     34 H         -10.1510   20.6359    7.3756 H         1 MOL     0.0618
     35 H         -12.0854   20.8194    5.9568 H         1 MOL     0.0618
     36 H         -14.2422   20.0063    6.6160 H         1 MOL     0.0624
     37 H         -16.0030   18.3719    7.1803 H         1 MOL     0.0377
     38 H         -16.2112   20.0005    7.8028 H         1 MOL     0.0377
     39 H         -16.5794   16.5056    8.7211 H         1 MOL     0.0629
     40 H         -18.2210   12.8068   11.0856 H         1 MOL     0.0480
     41 H         -19.9394   13.0475   11.4425 H         1 MOL     0.0480
     42 H         -18.2120   12.0619   13.2172 H         1 MOL     0.0480
     43 H         -19.6302   12.9736   13.6579 H         1 MOL     0.0480
     44 H         -17.5972   16.0881   13.9109 H         1 MOL     0.0480
     45 H         -19.1233   15.4691   14.5171 H         1 MOL     0.0480
     46 H         -18.6816   16.6709   12.0792 H         1 MOL     0.0480
     47 H         -20.1131   15.7624   12.5959 H         1 MOL     0.0480
     48 H         -15.6499   12.5857   15.2873 H         1 MOL     0.0394
     49 H         -14.2735   11.5583   13.0106 H         1 MOL     0.0273
     50 H         -14.9638   12.5130   12.0617 H         1 MOL     0.0273
     51 H         -16.3166   10.3171   13.8402 H         1 MOL     0.0273
     52 H         -17.3639   11.0601   13.0326 H         1 MOL     0.0273
     53 H         -19.9829   19.3757   10.5564 H         1 MOL     0.0646
     54 H         -18.1686   20.2991    9.2654 H         1 MOL     0.0621
     55 H         -14.0116   17.6846   11.7048 H         1 MOL     0.1921
@<TRIPOS>BOND
     1    1   17 am
     2    1   18 1 
     3    1   21 1 
     4    2   19 1 
     5    2   20 1 
     6    2   22 am
     7    3    4 ar
     8    3   12 ar
     9    4    5 ar
    10    4   55 1 
    11    5    6 ar
    12    5   29 2 
    13    6    7 ar
    14    6   11 ar
    15    7    8 ar
    16    7   33 1 
    17    8    9 ar
    18    8   34 1 
    19    9   10 ar
    20    9   35 1 
    21   10   11 ar
    22   10   36 1 
    23   11   12 ar
    24   12   13 1 
    25   13   14 1 
    26   13   37 1 
    27   13   38 1 
    28   14   15 ar
    29   14   28 ar
    30   15   16 ar
    31   15   39 1 
    32   16   17 1 
    33   16   26 ar
    34   17   31 2 
    35   18   19 1 
    36   18   40 1 
    37   18   41 1 
    38   19   42 1 
    39   19   43 1 
    40   20   21 1 
    41   20   44 1 
    42   20   45 1 
    43   21   46 1 
    44   21   47 1 
    45   22   23 1 
    46   22   30 2 
    47   23   24 1 
    48   23   25 1 
    49   23   48 1 
    50   24   25 1 
    51   24   49 1 
    52   24   50 1 
    53   25   51 1 
    54   25   52 1 
    55   26   27 ar
    56   26   32 1 
    57   27   28 ar
    58   27   53 1 
    59   28   54 1 
@<TRIPOS>SUBSTRUCTURE
1 MOL         1
@<TRIPOS>MOLECULE
query molecule
   55    59     1     0     0
SMALL
NO_CHARGE

@<TRIPOS>ATOM
      1 N         -18.7212   14.4368   19.1457 N.am      1 MOL    -0.2945
      2 N         -17.1078   12.5959   20.0154 N.am      1 MOL    -0.2983
      3 N         -15.0452   13.9443   15.4867 N.ar      1 MOL    -0.1750
      4 N         -14.9341   12.7367   14.9888 N.ar      1 MOL    -0.2425
      5 C         -15.2066   12.4409   13.7101 C.ar      1 MOL     0.2725
      6 C         -15.6257   13.4519   12.8699 C.ar      1 MOL     0.0496
      7 C         -15.9417   13.1952   11.5352 C.ar      1 MOL     0.0138
      8 C         -16.3788   14.2168   10.7198 C.ar      1 MOL     0.0008
      9 C         -16.4829   15.4690   11.2876 C.ar      1 MOL     0.0007
     10 C         -16.1731   15.7380   12.6103 C.ar      1 MOL     0.0103
     11 C         -15.7390   14.7206   13.4079 C.ar      1 MOL     0.0106
     12 C         -15.4539   15.0001   14.7175 C.ar      1 MOL     0.0736
     13 C         -15.4715   16.3002   15.3750 C.3       1 MOL     0.0925
     14 C         -16.8474   16.6359   15.8350 C.ar      1 MOL    -0.0406
     15 C         -17.4611   15.6764   16.6598 C.ar      1 MOL     0.0196
     16 C         -18.7357   15.8913   17.1267 C.ar      1 MOL     0.0723
     17 C         -19.4099   14.8988   17.9937 C.2       1 MOL     0.2495
     18 C         -19.3407   13.4834   20.0085 C.3       1 MOL     0.1268
     19 C         -18.3361   12.6413   20.7652 C.3       1 MOL     0.1265
     20 C         -16.4123   13.8694   19.8002 C.3       1 MOL     0.1265
     21 C         -17.3921   14.9499   19.4210 C.3       1 MOL     0.1268
     22 C         -16.5833   11.4048   19.5051 C.2       1 MOL     0.2187
     23 C         -17.1636   10.0645   19.6230 C.3       1 MOL     0.0752
     24 C         -16.4960    9.1331   20.6094 C.3       1 MOL     0.0134
     25 C         -16.4139    8.8626   19.1724 C.3       1 MOL     0.0134
     26 C         -19.4678   17.0166   16.8303 C.ar      1 MOL     0.1355
     27 C         -18.8660   17.9551   16.0228 C.ar      1 MOL     0.0392
     28 C         -17.5660   17.7385   15.5439 C.ar      1 MOL     0.0066
     29 O         -15.1049   11.2896   13.2140 O.2       1 MOL    -0.2658
     30 O         -15.4763   11.4707   18.8605 O.2       1 MOL    -0.2753
     31 O         -20.5564   14.4615   17.7421 O.2       1 MOL    -0.2699
     32 F         -20.7314   17.1833   17.3184 F         1 MOL    -0.2047
     33 H         -15.8474   12.2394   11.1577 H         1 MOL     0.0625
     34 H         -16.6178   14.0518    9.7304 H         1 MOL     0.0618
     35 H         -16.8095   16.2476   10.6949 H         1 MOL     0.0618
     36 H         -16.2688   16.6940   12.9874 H         1 MOL     0.0624
     37 H         -15.1383   17.0480   14.6860 H         1 MOL     0.0377
     38 H         -14.8234   16.2657   16.2260 H         1 MOL     0.0377
     39 H         -16.9561   14.8132   16.9135 H         1 MOL     0.0629
     40 H         -19.9554   12.8360   19.4182 H         1 MOL     0.0480
     41 H         -19.9163   14.0263   20.7296 H         1 MOL     0.0480
     42 H         -18.7189   11.6502   20.8891 H         1 MOL     0.0480
     43 H         -18.1573   13.0697   21.7296 H         1 MOL     0.0480
     44 H         -15.6969   13.7521   19.0134 H         1 MOL     0.0480
     45 H         -15.9205   14.1531   20.7072 H         1 MOL     0.0480
     46 H         -17.0309   15.4465   18.5446 H         1 MOL     0.0480
     47 H         -17.4721   15.6168   20.2529 H         1 MOL     0.0480
     48 H         -18.1470   10.4368   19.4265 H         1 MOL     0.0394
     49 H         -17.0909    8.5049   21.2393 H         1 MOL     0.0273
     50 H         -15.7850    9.2514   21.4003 H         1 MOL     0.0273
     51 H         -16.9438    8.0304   18.7581 H         1 MOL     0.0273
     52 H         -15.6083    8.6975   18.4890 H         1 MOL     0.0273
     53 H         -19.3724   18.8188   15.7702 H         1 MOL     0.0646
     54 H         -17.1382   18.4580   14.9399 H         1 MOL     0.0621
     55 H         -14.6351   12.0111   15.5837 H         1 MOL     0.1921
@<TRIPOS>BOND
     1    1   17 am
     2    1   18 1 
     3    1   21 1 
     4    2   19 1 
     5    2   20 1 
     6    2   22 am
     7    3    4 ar
     8    3   12 ar
     9    4    5 ar
    10    4   55 1 
    11    5    6 ar
    12    5   29 2 
    13    6    7 ar
    14    6   11 ar
    15    7    8 ar
    16    7   33 1 
    17    8    9 ar
    18    8   34 1 
    19    9   10 ar
    20    9   35 1 
    21   10   11 ar
    22   10   36 1 
    23   11   12 ar
    24   12   13 1 
    25   13   14 1 
    26   13   37 1 
    27   13   38 1 
    28   14   15 ar
    29   14   28 ar
    30   15   16 ar
    31   15   39 1 
    32   16   17 1 
    33   16   26 ar
    34   17   31 2 
    35   18   19 1 
    36   18   40 1 
    37   18   41 1 
    38   19   42 1 
    39   19   43 1 
    40   20   21 1 
    41   20   44 1 
    42   20   45 1 
    43   21   46 1 
    44   21   47 1 
    45   22   23 1 
    46   22   30 2 
    47   23   24 1 
    48   23   25 1 
    49   23   48 1 
    50   24   25 1 
    51   24   49 1 
    52   24   50 1 
    53   25   51 1 
    54   25   52 1 
    55   26   27 ar
    56   26   32 1 
    57   27   28 ar
    58   27   53 1 
    59   28   54 1 
@<TRIPOS>SUBSTRUCTURE
1 MOL         1
@<TRIPOS>MOLECULE
query molecule
   55    59     1     0     0
SMALL
NO_CHARGE

@<TRIPOS>ATOM
      1 N          43.3677  -12.3951   18.5353 N.am      1 MOL    -0.2945
      2 N          45.2785  -12.4892   20.2926 N.am      1 MOL    -0.2983
      3 N          47.4257   -9.7538   14.0829 N.ar      1 MOL    -0.1750
      4 N          48.3570   -9.0097   14.6284 N.ar      1 MOL    -0.2425
      5 C          49.1851   -9.4524   15.5851 C.ar      1 MOL     0.2725
      6 C          49.0572  -10.7545   16.0231 C.ar      1 MOL     0.0496
      7 C          49.8799  -11.2601   17.0304 C.ar      1 MOL     0.0138
      8 C          49.7199  -12.5575   17.4671 C.ar      1 MOL     0.0008
      9 C          48.7262  -13.3012   16.8666 C.ar      1 MOL     0.0007
     10 C          47.9024  -12.8124   15.8664 C.ar      1 MOL     0.0103
     11 C          48.0708  -11.5281   15.4397 C.ar      1 MOL     0.0106
     12 C          47.2365  -11.0550   14.4626 C.ar      1 MOL     0.0736
     13 C          46.2128  -11.7910   13.7323 C.3       1 MOL     0.0925
     14 C          44.8664  -11.5310   14.3127 C.ar      1 MOL    -0.0406
     15 C          44.5472  -12.2781   15.4605 C.ar      1 MOL     0.0196
     16 C          43.3227  -12.1157   16.0630 C.ar      1 MOL     0.0723
     17 C          42.9558  -12.8900   17.2702 C.2       1 MOL     0.2495
     18 C          43.0287  -13.1113   19.7224 C.3       1 MOL     0.1268
     19 C          44.0062  -12.8658   20.8516 C.3       1 MOL     0.1265
     20 C          45.3207  -11.2485   19.5111 C.3       1 MOL     0.1265
     21 C          44.1299  -11.1616   18.5915 C.3       1 MOL     0.1268
     22 C          46.4338  -13.2556   20.4721 C.2       1 MOL     0.2187
     23 C          46.5489  -14.5169   21.2089 C.3       1 MOL     0.0752
     24 C          47.7772  -15.3494   20.9181 C.3       1 MOL     0.0134
     25 C          46.4537  -15.8247   20.5087 C.3       1 MOL     0.0134
     26 C          42.3646  -11.2444   15.6014 C.ar      1 MOL     0.1355
     27 C          42.6782  -10.5137   14.4778 C.ar      1 MOL     0.0392
     28 C          43.9263  -10.6776   13.8600 C.ar      1 MOL     0.0066
     29 O          50.0849   -8.7546   16.1192 O.2       1 MOL    -0.2658
     30 O          47.5201  -12.8264   19.9421 O.2       1 MOL    -0.2753
     31 O          42.3004  -13.9554   17.2068 O.2       1 MOL    -0.2699
     32 F          41.1623  -11.1197   16.2352 F         1 MOL    -0.2047
     33 H          50.6096  -10.6622   17.4486 H         1 MOL     0.0625
     34 H          50.3158  -12.9535   18.2095 H         1 MOL     0.0618
     35 H          48.5887  -14.2745   17.1797 H         1 MOL     0.0618
     36 H          47.1720  -13.4106   15.4493 H         1 MOL     0.0624
     37 H          46.4243  -12.8385   13.7886 H         1 MOL     0.0377
     38 H          46.2159  -11.4669   12.7123 H         1 MOL     0.0377
     39 H          45.2303  -12.9466   15.8492 H         1 MOL     0.0629
     40 H          43.0182  -14.1581   19.4995 H         1 MOL     0.0480
     41 H          42.0682  -12.7659   20.0450 H         1 MOL     0.0480
     42 H          44.1175  -13.7582   21.4308 H         1 MOL     0.0480
     43 H          43.6410  -12.0828   21.4834 H         1 MOL     0.0480
     44 H          46.2173  -11.2295   18.9277 H         1 MOL     0.0480
     45 H          45.2992  -10.4154   20.1824 H         1 MOL     0.0480
     46 H          44.4757  -10.9301   17.6056 H         1 MOL     0.0480
     47 H          43.4826  -10.4022   18.9756 H         1 MOL     0.0480
     48 H          46.0587  -14.1008   22.0638 H         1 MOL     0.0394
     49 H          48.2965  -15.8348   21.7181 H         1 MOL     0.0273
     50 H          48.7082  -15.1767   20.4197 H         1 MOL     0.0273
     51 H          46.0137  -16.6632   21.0070 H         1 MOL     0.0273
     52 H          46.0304  -16.1462   19.5809 H         1 MOL     0.0273
     53 H          41.9939   -9.8446   14.0902 H         1 MOL     0.0646
     54 H          44.1359  -10.1177   13.0185 H         1 MOL     0.0621
     55 H          48.4533   -8.0795   14.3196 H         1 MOL     0.1921
@<TRIPOS>BOND
     1    1   17 am
     2    1   18 1 
     3    1   21 1 
     4    2   19 1 
     5    2   20 1 
     6    2   22 am
     7    3    4 ar
     8    3   12 ar
     9    4    5 ar
    10    4   55 1 
    11    5    6 ar
    12    5   29 2 
    13    6    7 ar
    14    6   11 ar
    15    7    8 ar
    16    7   33 1 
    17    8    9 ar
    18    8   34 1 
    19    9   10 ar
    20    9   35 1 
    21   10   11 ar
    22   10   36 1 
    23   11   12 ar
    24   12   13 1 
    25   13   14 1 
    26   13   37 1 
    27   13   38 1 
    28   14   15 ar
    29   14   28 ar
    30   15   16 ar
    31   15   39 1 
    32   16   17 1 
    33   16   26 ar
    34   17   31 2 
    35   18   19 1 
    36   18   40 1 
    37   18   41 1 
    38   19   42 1 
    39   19   43 1 
    40   20   21 1 
    41   20   44 1 
    42   20   45 1 
    43   21   46 1 
    44   21   47 1 
    45   22   23 1 
    46   22   30 2 
    47   23   24 1 
    48   23   25 1 
    49   23   48 1 
    50   24   25 1 
    51   24   49 1 
    52   24   50 1 
    53   25   51 1 
    54   25   52 1 
    55   26   27 ar
    56   26   32 1 
    57   27   28 ar
    58   27   53 1 
    59   28   54 1 
@<TRIPOS>SUBSTRUCTURE
1 MOL         1
@<TRIPOS>MOLECULE
query molecule
   55    59     1     0     0
SMALL
NO_CHARGE

@<TRIPOS>ATOM
      1 N           7.1721  -15.8053   -8.3918 N.am      1 MOL    -0.2945
      2 N           7.1811  -15.8184  -10.9895 N.am      1 MOL    -0.2983
      3 N          11.6535  -14.2783   -6.1649 N.ar      1 MOL    -0.1750
      4 N          12.4593  -14.8703   -7.0127 N.ar      1 MOL    -0.2425
      5 C          12.6935  -14.4087   -8.2492 C.ar      1 MOL     0.2725
      6 C          12.0584  -13.2539   -8.6577 C.ar      1 MOL     0.0496
      7 C          12.2510  -12.7410   -9.9410 C.ar      1 MOL     0.0138
      8 C          11.5894  -11.5977  -10.3346 C.ar      1 MOL     0.0008
      9 C          10.7504  -11.0114   -9.4108 C.ar      1 MOL     0.0007
     10 C          10.5496  -11.5096   -8.1344 C.ar      1 MOL     0.0103
     11 C          11.2109  -12.6399   -7.7540 C.ar      1 MOL     0.0106
     12 C          10.9876  -13.1289   -6.4948 C.ar      1 MOL     0.0736
     13 C          10.1752  -12.5364   -5.4404 C.3       1 MOL     0.0925
     14 C           8.7292  -12.6126   -5.7880 C.ar      1 MOL    -0.0406
     15 C           8.2991  -13.8395   -6.3241 C.ar      1 MOL     0.0196
     16 C           6.9834  -14.0036   -6.6857 C.ar      1 MOL     0.0723
     17 C           6.5009  -15.2817   -7.2559 C.2       1 MOL     0.2495
     18 C           6.7389  -17.0377   -8.9667 C.3       1 MOL     0.1268
     19 C           7.0732  -17.1445  -10.4391 C.3       1 MOL     0.1265
     20 C           8.2379  -14.9572  -10.4475 C.3       1 MOL     0.1265
     21 C           8.2929  -15.0685   -8.9456 C.3       1 MOL     0.1268
     22 C           6.3286  -15.3506  -11.9938 C.2       1 MOL     0.2187
     23 C           5.2244  -16.0801  -12.6228 C.3       1 MOL     0.0752
     24 C           5.0270  -17.5097  -12.1719 C.3       1 MOL     0.0134
     25 C           5.4836  -17.2255  -13.5342 C.3       1 MOL     0.0134
     26 C           6.0357  -13.0167   -6.5519 C.ar      1 MOL     0.1355
     27 C           6.4579  -11.8162   -6.0271 C.ar      1 MOL     0.0392
     28 C           7.7998  -11.6451   -5.6580 C.ar      1 MOL     0.0066
     29 O          13.4636  -14.9615   -9.0757 O.2       1 MOL    -0.2658
     30 O           6.5158  -14.1569  -12.4242 O.2       1 MOL    -0.2753
     31 O           5.5296  -15.9055   -6.7698 O.2       1 MOL    -0.2699
     32 F           4.7406  -13.2287   -6.9266 F         1 MOL    -0.2047
     33 H          12.8900  -13.2177  -10.5962 H         1 MOL     0.0625
     34 H          11.7159  -11.1995  -11.2773 H         1 MOL     0.0618
     35 H          10.2445  -10.1554   -9.6857 H         1 MOL     0.0618
     36 H           9.9094  -11.0329   -7.4800 H         1 MOL     0.0624
     37 H          10.4537  -11.5109   -5.3152 H         1 MOL     0.0377
     38 H          10.3393  -13.0783   -4.5322 H         1 MOL     0.0377
     39 H           8.9695  -14.6143   -6.4459 H         1 MOL     0.0629
     40 H           5.6779  -17.1161   -8.8495 H         1 MOL     0.0480
     41 H           7.2523  -17.8288   -8.4602 H         1 MOL     0.0480
     42 H           6.2993  -17.6822  -10.9452 H         1 MOL     0.0480
     43 H           7.9995  -17.6659  -10.5636 H         1 MOL     0.0480
     44 H           8.0381  -13.9414  -10.7174 H         1 MOL     0.0480
     45 H           9.1790  -15.2682  -10.8508 H         1 MOL     0.0480
     46 H           8.2907  -14.0826   -8.5296 H         1 MOL     0.0480
     47 H           9.1835  -15.6048   -8.6959 H         1 MOL     0.0480
     48 H           4.6394  -15.1885  -12.7070 H         1 MOL     0.0394
     49 H           4.0394  -17.8871  -12.0060 H         1 MOL     0.0273
     50 H           5.3897  -18.1042  -11.3595 H         1 MOL     0.0273
     51 H           4.8288  -17.4048  -14.3614 H         1 MOL     0.0273
     52 H           6.3207  -17.5384  -14.1212 H         1 MOL     0.0273
     53 H           5.7858  -11.0418   -5.9051 H         1 MOL     0.0646
     54 H           8.0902  -10.7348   -5.2673 H         1 MOL     0.0621
     55 H          12.9157  -15.6948   -6.7265 H         1 MOL     0.1921
@<TRIPOS>BOND
     1    1   17 am
     2    1   18 1 
     3    1   21 1 
     4    2   19 1 
     5    2   20 1 
     6    2   22 am
     7    3    4 ar
     8    3   12 ar
     9    4    5 ar
    10    4   55 1 
    11    5    6 ar
    12    5   29 2 
    13    6    7 ar
    14    6   11 ar
    15    7    8 ar
    16    7   33 1 
    17    8    9 ar
    18    8   34 1 
    19    9   10 ar
    20    9   35 1 
    21   10   11 ar
    22   10   36 1 
    23   11   12 ar
    24   12   13 1 
    25   13   14 1 
    26   13   37 1 
    27   13   38 1 
    28   14   15 ar
    29   14   28 ar
    30   15   16 ar
    31   15   39 1 
    32   16   17 1 
    33   16   26 ar
    34   17   31 2 
    35   18   19 1 
    36   18   40 1 
    37   18   41 1 
    38   19   42 1 
    39   19   43 1 
    40   20   21 1 
    41   20   44 1 
    42   20   45 1 
    43   21   46 1 
    44   21   47 1 
    45   22   23 1 
    46   22   30 2 
    47   23   24 1 
    48   23   25 1 
    49   23   48 1 
    50   24   25 1 
    51   24   49 1 
    52   24   50 1 
    53   25   51 1 
    54   25   52 1 
    55   26   27 ar
    56   26   32 1 
    57   27   28 ar
    58   27   53 1 
    59   28   54 1 
@<TRIPOS>SUBSTRUCTURE
1 MOL         1
@<TRIPOS>MOLECULE
query molecule
   55    59     1     0     0
SMALL
NO_CHARGE

@<TRIPOS>ATOM
      1 N          16.6535  -14.0593   13.3885 N.am      1 MOL    -0.2945
      2 N          19.1108  -14.7575   13.8603 N.am      1 MOL    -0.2983
      3 N          14.6358   -9.0751    8.4027 N.ar      1 MOL    -0.1750
      4 N          15.4881   -8.1133    8.1437 N.ar      1 MOL    -0.2425
      5 C          16.5353   -7.8276    8.9303 C.ar      1 MOL     0.2725
      6 C          16.7326   -8.5781   10.0711 C.ar      1 MOL     0.0496
      7 C          17.7950   -8.3102   10.9351 C.ar      1 MOL     0.0138
      8 C          17.9602   -9.0593   12.0802 C.ar      1 MOL     0.0008
      9 C          17.0381  -10.0578   12.3126 C.ar      1 MOL     0.0007
     10 C          15.9791  -10.3344   11.4642 C.ar      1 MOL     0.0103
     11 C          15.8261   -9.5889   10.3325 C.ar      1 MOL     0.0106
     12 C          14.7638   -9.8640    9.5137 C.ar      1 MOL     0.0736
     13 C          13.7892  -10.9385    9.6498 C.3       1 MOL     0.0925
     14 C          14.4748  -12.2539    9.7807 C.ar      1 MOL    -0.0406
     15 C          14.6452  -12.7197   11.0966 C.ar      1 MOL     0.0196
     16 C          15.2764  -13.9198   11.3205 C.ar      1 MOL     0.0723
     17 C          15.4739  -14.4353   12.6940 C.2       1 MOL     0.2495
     18 C          16.8768  -14.5324   14.7163 C.3       1 MOL     0.1268
     19 C          18.3465  -14.6046   15.0710 C.3       1 MOL     0.1265
     20 C          19.0350  -13.6657   12.8835 C.3       1 MOL     0.1265
     21 C          17.6121  -13.1947   12.7257 C.3       1 MOL     0.1268
     22 C          19.8952  -15.8861   13.6051 C.2       1 MOL     0.2187
     23 C          20.0611  -17.0577   14.4693 C.3       1 MOL     0.0752
     24 C          18.9083  -17.3715   15.3960 C.3       1 MOL     0.0134
     25 C          20.1865  -16.9109   15.9432 C.3       1 MOL     0.0134
     26 C          15.7643  -14.7152   10.3109 C.ar      1 MOL     0.1355
     27 C          15.5971  -14.2582    9.0232 C.ar      1 MOL     0.0392
     28 C          14.9543  -13.0337    8.7913 C.ar      1 MOL     0.0066
     29 O          17.3639   -6.9104    8.6981 O.2       1 MOL    -0.2658
     30 O          20.5470  -15.9196   12.5009 O.2       1 MOL    -0.2753
     31 O          14.6397  -15.1839   13.2529 O.2       1 MOL    -0.2699
     32 F          16.3849  -15.8994   10.5850 F         1 MOL    -0.2047
     33 H          18.4585   -7.5507   10.7164 H         1 MOL     0.0625
     34 H          18.7376   -8.8806   12.7335 H         1 MOL     0.0618
     35 H          17.1428  -10.6296   13.1648 H         1 MOL     0.0618
     36 H          15.3152  -11.0935   11.6842 H         1 MOL     0.0624
     37 H          13.1592  -10.9543    8.7850 H         1 MOL     0.0377
     38 H          13.2056  -10.7660   10.5301 H         1 MOL     0.0377
     39 H          14.2975  -12.1619   11.8919 H         1 MOL     0.0629
     40 H          16.4538  -15.5114   14.8067 H         1 MOL     0.0480
     41 H          16.4155  -13.8386   15.3886 H         1 MOL     0.0480
     42 H          18.5202  -15.4414   15.7143 H         1 MOL     0.0480
     43 H          18.6420  -13.7085   15.5763 H         1 MOL     0.0480
     44 H          19.3972  -14.0122   11.9384 H         1 MOL     0.0480
     45 H          19.6320  -12.8483   13.2305 H         1 MOL     0.0480
     46 H          17.3766  -13.1625   11.6823 H         1 MOL     0.0480
     47 H          17.5412  -12.2297   13.1805 H         1 MOL     0.0480
     48 H          20.6407  -17.5647   13.7268 H         1 MOL     0.0394
     49 H          18.5984  -18.3855   15.5404 H         1 MOL     0.0273
     50 H          17.8906  -17.0502   15.4740 H         1 MOL     0.0273
     51 H          20.8032  -17.5901   16.4941 H         1 MOL     0.0273
     52 H          20.4758  -16.1121   16.5924 H         1 MOL     0.0273
     53 H          15.9449  -14.8177    8.2282 H         1 MOL     0.0646
     54 H          14.8422  -12.7140    7.8162 H         1 MOL     0.0621
     55 H          15.3525   -7.5744    7.3306 H         1 MOL     0.1921
@<TRIPOS>BOND
     1    1   17 am
     2    1   18 1 
     3    1   21 1 
     4    2   19 1 
     5    2   20 1 
     6    2   22 am
     7    3    4 ar
     8    3   12 ar
     9    4    5 ar
    10    4   55 1 
    11    5    6 ar
    12    5   29 2 
    13    6    7 ar
    14    6   11 ar
    15    7    8 ar
    16    7   33 1 
    17    8    9 ar
    18    8   34 1 
    19    9   10 ar
    20    9   35 1 
    21   10   11 ar
    22   10   36 1 
    23   11   12 ar
    24   12   13 1 
    25   13   14 1 
    26   13   37 1 
    27   13   38 1 
    28   14   15 ar
    29   14   28 ar
    30   15   16 ar
    31   15   39 1 
    32   16   17 1 
    33   16   26 ar
    34   17   31 2 
    35   18   19 1 
    36   18   40 1 
    37   18   41 1 
    38   19   42 1 
    39   19   43 1 
    40   20   21 1 
    41   20   44 1 
    42   20   45 1 
    43   21   46 1 
    44   21   47 1 
    45   22   23 1 
    46   22   30 2 
    47   23   24 1 
    48   23   25 1 
    49   23   48 1 
    50   24   25 1 
    51   24   49 1 
    52   24   50 1 
    53   25   51 1 
    54   25   52 1 
    55   26   27 ar
    56   26   32 1 
    57   27   28 ar
    58   27   53 1 
    59   28   54 1 
@<TRIPOS>SUBSTRUCTURE
1 MOL         1
@<TRIPOS>MOLECULE
query molecule
   55    59     1     0     0
SMALL
NO_CHARGE

@<TRIPOS>ATOM
      1 N          35.3484   17.2823   19.3131 N.am      1 MOL    -0.2945
      2 N          33.4366   18.4335   17.9834 N.am      1 MOL    -0.2983
      3 N          32.2820   14.1003   25.0927 N.ar      1 MOL    -0.1750
      4 N          31.8781   13.0216   25.7187 N.ar      1 MOL    -0.2425
      5 C          30.9171   12.2146   25.2474 C.ar      1 MOL     0.2725
      6 C          30.3181   12.5281   24.0446 C.ar      1 MOL     0.0496
      7 C          29.2989   11.7335   23.5183 C.ar      1 MOL     0.0138
      8 C          28.7003   12.0778   22.3256 C.ar      1 MOL     0.0008
      9 C          29.1557   13.2216   21.7047 C.ar      1 MOL     0.0007
     10 C          30.1657   14.0196   22.2155 C.ar      1 MOL     0.0103
     11 C          30.7532   13.6686   23.3951 C.ar      1 MOL     0.0106
     12 C          31.7380   14.4779   23.8949 C.ar      1 MOL     0.0736
     13 C          32.3216   15.6590   23.2724 C.3       1 MOL     0.0925
     14 C          33.7401   15.4062   22.8967 C.ar      1 MOL    -0.0406
     15 C          34.1056   15.8145   21.6016 C.ar      1 MOL     0.0196
     16 C          35.3912   15.6142   21.1591 C.ar      1 MOL     0.0723
     17 C          35.8056   16.0298   19.8001 C.2       1 MOL     0.2495
     18 C          35.7308   17.7195   18.0093 C.3       1 MOL     0.1268
     19 C          34.7292   18.6747   17.3967 C.3       1 MOL     0.1265
     20 C          33.3079   18.6625   19.4266 C.3       1 MOL     0.1265
     21 C          34.4959   18.0954   20.1603 C.3       1 MOL     0.1268
     22 C          32.3403   17.9997   17.2323 C.2       1 MOL     0.2187
     23 C          32.3139   17.7149   15.7951 C.3       1 MOL     0.0752
     24 C          33.4695   16.9033   15.2548 C.3       1 MOL     0.0134
     25 C          33.3202   18.3106   14.8775 C.3       1 MOL     0.0134
     26 C          36.3689   15.0241   21.9245 C.ar      1 MOL     0.1355
     27 C          36.0100   14.6247   23.1920 C.ar      1 MOL     0.0392
     28 C          34.6989   14.8267   23.6463 C.ar      1 MOL     0.0066
     29 O          30.5171   11.1755   25.8323 O.2       1 MOL    -0.2658
     30 O          31.2290   17.8253   17.8486 O.2       1 MOL    -0.2753
     31 O          36.5390   15.3162   19.0779 O.2       1 MOL    -0.2699
     32 F          37.6320   14.8466   21.4389 F         1 MOL    -0.2047
     33 H          28.9933   10.8864   24.0223 H         1 MOL     0.0625
     34 H          27.9457   11.5063   21.9167 H         1 MOL     0.0618
     35 H          28.7201   13.4980   20.8114 H         1 MOL     0.0618
     36 H          30.4701   14.8673   21.7115 H         1 MOL     0.0624
     37 H          32.2801   16.4770   23.9610 H         1 MOL     0.0377
     38 H          31.7677   15.8919   22.3868 H         1 MOL     0.0377
     39 H          33.4104   16.2631   20.9851 H         1 MOL     0.0629
     40 H          35.8210   16.8631   17.3738 H         1 MOL     0.0480
     41 H          36.6604   18.2419   18.1034 H         1 MOL     0.0480
     42 H          34.6802   18.5150   16.3401 H         1 MOL     0.0480
     43 H          35.0301   19.6846   17.5836 H         1 MOL     0.0480
     44 H          32.4169   18.1881   19.7810 H         1 MOL     0.0480
     45 H          33.2622   19.7162   19.6074 H         1 MOL     0.0480
     46 H          34.1413   17.4893   20.9678 H         1 MOL     0.0480
     47 H          35.0819   18.9195   20.5077 H         1 MOL     0.0480
     48 H          31.2450   17.6718   15.7896 H         1 MOL     0.0394
     49 H          33.2916   16.1337   14.5328 H         1 MOL     0.0273
     50 H          34.2494   16.3138   15.6897 H         1 MOL     0.0273
     51 H          33.0413   18.5646   13.8761 H         1 MOL     0.0273
     52 H          33.9584   19.1672   14.9234 H         1 MOL     0.0273
     53 H          36.7069   14.1765   23.8082 H         1 MOL     0.0646
     54 H          34.4560   14.5176   24.6008 H         1 MOL     0.0621
     55 H          32.3022   12.7926   26.5774 H         1 MOL     0.1921
@<TRIPOS>BOND
     1    1   17 am
     2    1   18 1 
     3    1   21 1 
     4    2   19 1 
     5    2   20 1 
     6    2   22 am
     7    3    4 ar
     8    3   12 ar
     9    4    5 ar
    10    4   55 1 
    11    5    6 ar
    12    5   29 2 
    13    6    7 ar
    14    6   11 ar
    15    7    8 ar
    16    7   33 1 
    17    8    9 ar
    18    8   34 1 
    19    9   10 ar
    20    9   35 1 
    21   10   11 ar
    22   10   36 1 
    23   11   12 ar
    24   12   13 1 
    25   13   14 1 
    26   13   37 1 
    27   13   38 1 
    28   14   15 ar
    29   14   28 ar
    30   15   16 ar
    31   15   39 1 
    32   16   17 1 
    33   16   26 ar
    34   17   31 2 
    35   18   19 1 
    36   18   40 1 
    37   18   41 1 
    38   19   42 1 
    39   19   43 1 
    40   20   21 1 
    41   20   44 1 
    42   20   45 1 
    43   21   46 1 
    44   21   47 1 
    45   22   23 1 
    46   22   30 2 
    47   23   24 1 
    48   23   25 1 
    49   23   48 1 
    50   24   25 1 
    51   24   49 1 
    52   24   50 1 
    53   25   51 1 
    54   25   52 1 
    55   26   27 ar
    56   26   32 1 
    57   27   28 ar
    58   27   53 1 
    59   28   54 1 
@<TRIPOS>SUBSTRUCTURE
1 MOL         1
@<TRIPOS>MOLECULE
query molecule
   55    59     1     0     0
SMALL
NO_CHARGE

@<TRIPOS>ATOM
      1 N          24.3383  -18.5225   27.6712 N.am      1 MOL    -0.2945
      2 N          22.1365  -17.5423   28.6405 N.am      1 MOL    -0.2983
      3 N          25.5135  -17.2699   20.8035 N.ar      1 MOL    -0.1750
      4 N          24.6015  -16.7775   20.0008 N.ar      1 MOL    -0.2425
      5 C          23.3384  -17.2246   19.9609 C.ar      1 MOL     0.2725
      6 C          22.9722  -18.2544   20.8031 C.ar      1 MOL     0.0496
      7 C          21.6761  -18.7711   20.7882 C.ar      1 MOL     0.0138
      8 C          21.3385  -19.8143   21.6233 C.ar      1 MOL     0.0008
      9 C          22.3306  -20.3015   22.4476 C.ar      1 MOL     0.0007
     10 C          23.6208  -19.7988   22.4726 C.ar      1 MOL     0.0103
     11 C          23.9438  -18.7648   21.6441 C.ar      1 MOL     0.0106
     12 C          25.2282  -18.2913   21.6687 C.ar      1 MOL     0.0736
     13 C          26.3119  -18.7015   22.5521 C.3       1 MOL     0.0925
     14 C          26.3892  -17.8040   23.7378 C.ar      1 MOL    -0.0406
     15 C          26.0403  -18.3924   24.9665 C.ar      1 MOL     0.0196
     16 C          26.0706  -17.6414   26.1170 C.ar      1 MOL     0.0723
     17 C          25.7056  -18.2310   27.4249 C.2       1 MOL     0.2495
     18 C          23.9483  -19.0960   28.9186 C.3       1 MOL     0.1268
     19 C          22.5173  -18.7701   29.2890 C.3       1 MOL     0.1265
     20 C          22.1326  -17.5382   27.1736 C.3       1 MOL     0.1265
     21 C          23.3615  -18.2279   26.6393 C.3       1 MOL     0.1268
     22 C          21.7837  -16.3938   29.3551 C.2       1 MOL     0.2187
     23 C          21.7528  -16.2370   30.8117 C.3       1 MOL     0.0752
     24 C          21.7417  -14.8165   31.3294 C.3       1 MOL     0.0134
     25 C          22.9135  -15.6682   31.5459 C.3       1 MOL     0.0134
     26 C          26.4311  -16.3150   26.1426 C.ar      1 MOL     0.1355
     27 C          26.7724  -15.7401   24.9393 C.ar      1 MOL     0.0392
     28 C          26.7417  -16.5032   23.7633 C.ar      1 MOL     0.0066
     29 O          22.4497  -16.7645   19.1992 O.2       1 MOL    -0.2658
     30 O          21.4487  -15.3544   28.6823 O.2       1 MOL    -0.2753
     31 O          26.5588  -18.4769   28.3082 O.2       1 MOL    -0.2699
     32 F          26.4448  -15.6114   27.3120 F         1 MOL    -0.2047
     33 H          20.9690  -18.3714   20.1517 H         1 MOL     0.0625
     34 H          20.3874  -20.2125   21.6308 H         1 MOL     0.0618
     35 H          22.0993  -21.0833   23.0797 H         1 MOL     0.0618
     36 H          24.3278  -20.1999   23.1087 H         1 MOL     0.0624
     37 H          27.2377  -18.6588   22.0172 H         1 MOL     0.0377
     38 H          26.1241  -19.7000   22.8884 H         1 MOL     0.0377
     39 H          25.7620  -19.3853   25.0041 H         1 MOL     0.0629
     40 H          24.5947  -18.7212   29.6848 H         1 MOL     0.0480
     41 H          24.0235  -20.1596   28.8228 H         1 MOL     0.0480
     42 H          22.4377  -18.6565   30.3497 H         1 MOL     0.0480
     43 H          21.8715  -19.5631   28.9733 H         1 MOL     0.0480
     44 H          22.1170  -16.5273   26.8237 H         1 MOL     0.0480
     45 H          21.2659  -18.0620   26.8280 H         1 MOL     0.0480
     46 H          23.8190  -17.5936   25.9089 H         1 MOL     0.0480
     47 H          23.0491  -19.1599   26.2185 H         1 MOL     0.0480
     48 H          21.1706  -17.1268   30.9284 H         1 MOL     0.0394
     49 H          21.1125  -14.5521   32.1537 H         1 MOL     0.0273
     50 H          21.5748  -13.8533   30.8942 H         1 MOL     0.0273
     51 H          23.1411  -16.0168   32.5316 H         1 MOL     0.0273
     52 H          23.9567  -15.5702   31.3331 H         1 MOL     0.0273
     53 H          27.0514  -14.7465   24.9032 H         1 MOL     0.0646
     54 H          27.0019  -16.0476   22.8744 H         1 MOL     0.0621
     55 H          24.8570  -16.0421   19.3976 H         1 MOL     0.1921
@<TRIPOS>BOND
     1    1   17 am
     2    1   18 1 
     3    1   21 1 
     4    2   19 1 
     5    2   20 1 
     6    2   22 am
     7    3    4 ar
     8    3   12 ar
     9    4    5 ar
    10    4   55 1 
    11    5    6 ar
    12    5   29 2 
    13    6    7 ar
    14    6   11 ar
    15    7    8 ar
    16    7   33 1 
    17    8    9 ar
    18    8   34 1 
    19    9   10 ar
    20    9   35 1 
    21   10   11 ar
    22   10   36 1 
    23   11   12 ar
    24   12   13 1 
    25   13   14 1 
    26   13   37 1 
    27   13   38 1 
    28   14   15 ar
    29   14   28 ar
    30   15   16 ar
    31   15   39 1 
    32   16   17 1 
    33   16   26 ar
    34   17   31 2 
    35   18   19 1 
    36   18   40 1 
    37   18   41 1 
    38   19   42 1 
    39   19   43 1 
    40   20   21 1 
    41   20   44 1 
    42   20   45 1 
    43   21   46 1 
    44   21   47 1 
    45   22   23 1 
    46   22   30 2 
    47   23   24 1 
    48   23   25 1 
    49   23   48 1 
    50   24   25 1 
    51   24   49 1 
    52   24   50 1 
    53   25   51 1 
    54   25   52 1 
    55   26   27 ar
    56   26   32 1 
    57   27   28 ar
    58   27   53 1 
    59   28   54 1 
@<TRIPOS>SUBSTRUCTURE
1 MOL         1
@<TRIPOS>MOLECULE
query molecule
   55    59     1     0     0
SMALL
NO_CHARGE

@<TRIPOS>ATOM
      1 N          38.8577    1.1906   13.8728 N.am      1 MOL    -0.2945
      2 N          37.0567    2.3157   12.3765 N.am      1 MOL    -0.2983
      3 N          43.3350   -3.1064   10.4986 N.ar      1 MOL    -0.1750
      4 N          44.5742   -2.8057   10.1940 N.ar      1 MOL    -0.2425
      5 C          44.9071   -1.7823    9.3947 C.ar      1 MOL     0.2725
      6 C          43.9015   -1.0022    8.8619 C.ar      1 MOL     0.0496
      7 C          44.1914    0.0628    8.0081 C.ar      1 MOL     0.0138
      8 C          43.1695    0.8153    7.4705 C.ar      1 MOL     0.0008
      9 C          41.8829    0.4605    7.8165 C.ar      1 MOL     0.0007
     10 C          41.5807   -0.5938    8.6621 C.ar      1 MOL     0.0103
     11 C          42.5993   -1.3305    9.1908 C.ar      1 MOL     0.0106
     12 C          42.2825   -2.3802   10.0107 C.ar      1 MOL     0.0736
     13 C          40.9610   -2.7777   10.4784 C.3       1 MOL     0.0925
     14 C          40.7998   -2.4606   11.9243 C.ar      1 MOL    -0.0406
     15 C          40.5763   -1.1053   12.2258 C.ar      1 MOL     0.0196
     16 C          40.4254   -0.7120   13.5340 C.ar      1 MOL     0.0723
     17 C          40.1924    0.7075   13.8836 C.2       1 MOL     0.2495
     18 C          38.5929    2.5522   14.2090 C.3       1 MOL     0.1268
     19 C          37.3244    3.0753   13.5700 C.3       1 MOL     0.1265
     20 C          36.8034    0.8806   12.5442 C.3       1 MOL     0.1265
     21 C          37.7851    0.2802   13.5175 C.3       1 MOL     0.1268
     22 C          37.0350    2.8973   11.1055 C.2       1 MOL     0.2187
     23 C          37.2806    4.3037   10.7756 C.3       1 MOL     0.0752
     24 C          36.6192    4.8188    9.5173 C.3       1 MOL     0.0134
     25 C          38.0761    4.6822    9.5783 C.3       1 MOL     0.0134
     26 C          40.4800   -1.5845   14.5950 C.ar      1 MOL     0.1355
     27 C          40.6989   -2.9109   14.2987 C.ar      1 MOL     0.0392
     28 C          40.8543   -3.3154   12.9651 C.ar      1 MOL     0.0066
     29 O          46.0892   -1.4776    9.0922 O.2       1 MOL    -0.2658
     30 O          36.7750    2.1349   10.1073 O.2       1 MOL    -0.2753
     31 O          41.1282    1.4835   14.1850 O.2       1 MOL    -0.2699
     32 F          40.3246   -1.1443   15.8774 F         1 MOL    -0.2047
     33 H          45.1722    0.2879    7.7793 H         1 MOL     0.0625
     34 H          43.3588    1.6072    6.8377 H         1 MOL     0.0618
     35 H          41.1031    1.0101    7.4240 H         1 MOL     0.0618
     36 H          40.5994   -0.8191    8.8895 H         1 MOL     0.0624
     37 H          40.8379   -3.8307   10.3330 H         1 MOL     0.0377
     38 H          40.2216   -2.2383    9.9237 H         1 MOL     0.0377
     39 H          40.5261   -0.4080   11.4670 H         1 MOL     0.0629
     40 H          39.4155    3.1525   13.8795 H         1 MOL     0.0480
     41 H          38.4656    2.6041   15.2706 H         1 MOL     0.0480
     42 H          37.4478    4.1079   13.3193 H         1 MOL     0.0480
     43 H          36.5070    2.9773   14.2539 H         1 MOL     0.0480
     44 H          36.9035    0.3918   11.5979 H         1 MOL     0.0480
     45 H          35.8131    0.7459   12.9265 H         1 MOL     0.0480
     46 H          38.2140   -0.5944   13.0744 H         1 MOL     0.0480
     47 H          37.2491    0.0512   14.4138 H         1 MOL     0.0480
     48 H          37.3318    4.5719   11.8099 H         1 MOL     0.0394
     49 H          36.1726    5.7913    9.5071 H         1 MOL     0.0273
     50 H          35.8509    4.4601    8.8646 H         1 MOL     0.0273
     51 H          38.6905    5.5579    9.6039 H         1 MOL     0.0273
     52 H          38.8045    4.1814    8.9766 H         1 MOL     0.0273
     53 H          40.7483   -3.6078   15.0590 H         1 MOL     0.0646
     54 H          41.0177   -4.3160   12.7705 H         1 MOL     0.0621
     55 H          45.2961   -3.3588   10.5717 H         1 MOL     0.1921
@<TRIPOS>BOND
     1    1   17 am
     2    1   18 1 
     3    1   21 1 
     4    2   19 1 
     5    2   20 1 
     6    2   22 am
     7    3    4 ar
     8    3   12 ar
     9    4    5 ar
    10    4   55 1 
    11    5    6 ar
    12    5   29 2 
    13    6    7 ar
    14    6   11 ar
    15    7    8 ar
    16    7   33 1 
    17    8    9 ar
    18    8   34 1 
    19    9   10 ar
    20    9   35 1 
    21   10   11 ar
    22   10   36 1 
    23   11   12 ar
    24   12   13 1 
    25   13   14 1 
    26   13   37 1 
    27   13   38 1 
    28   14   15 ar
    29   14   28 ar
    30   15   16 ar
    31   15   39 1 
    32   16   17 1 
    33   16   26 ar
    34   17   31 2 
    35   18   19 1 
    36   18   40 1 
    37   18   41 1 
    38   19   42 1 
    39   19   43 1 
    40   20   21 1 
    41   20   44 1 
    42   20   45 1 
    43   21   46 1 
    44   21   47 1 
    45   22   23 1 
    46   22   30 2 
    47   23   24 1 
    48   23   25 1 
    49   23   48 1 
    50   24   25 1 
    51   24   49 1 
    52   24   50 1 
    53   25   51 1 
    54   25   52 1 
    55   26   27 ar
    56   26   32 1 
    57   27   28 ar
    58   27   53 1 
    59   28   54 1 
@<TRIPOS>SUBSTRUCTURE
1 MOL         1
@<TRIPOS>MOLECULE
query molecule
   55    59     1     0     0
SMALL
NO_CHARGE

@<TRIPOS>ATOM
      1 N          21.7547    1.9984   21.0949 N.am      1 MOL    -0.2945
      2 N          20.3631    2.1224   23.2849 N.am      1 MOL    -0.2983
      3 N          21.2987   -1.3867   13.9470 N.ar      1 MOL    -0.1750
      4 N          20.7074   -2.4843   13.5416 N.ar      1 MOL    -0.2425
      5 C          19.7778   -3.1275   14.2621 C.ar      1 MOL     0.2725
      6 C          19.4204   -2.6157   15.4925 C.ar      1 MOL     0.0496
      7 C          18.4730   -3.2564   16.2919 C.ar      1 MOL     0.0138
      8 C          18.1471   -2.7386   17.5269 C.ar      1 MOL     0.0008
      9 C          18.7965   -1.5848   17.9123 C.ar      1 MOL     0.0007
     10 C          19.7387   -0.9388   17.1296 C.ar      1 MOL     0.0103
     11 C          20.0521   -1.4581   15.9081 C.ar      1 MOL     0.0106
     12 C          20.9984   -0.8168   15.1545 C.ar      1 MOL     0.0736
     13 C          21.6780    0.4362   15.4560 C.3       1 MOL     0.0925
     14 C          20.9639    1.1728   16.5353 C.ar      1 MOL    -0.0406
     15 C          21.7554    1.5569   17.6324 C.ar      1 MOL     0.0196
     16 C          21.1842    2.2326   18.6840 C.ar      1 MOL     0.0723
     17 C          21.9901    2.6473   19.8545 C.2       1 MOL     0.2495
     18 C          22.5152    2.3676   22.2448 C.3       1 MOL     0.1268
     19 C          21.7798    2.1026   23.5409 C.3       1 MOL     0.1265
     20 C          19.8390    1.1062   22.3658 C.3       1 MOL     0.1265
     21 C          20.7376    0.9657   21.1642 C.3       1 MOL     0.1268
     22 C          19.5068    3.0580   23.8729 C.2       1 MOL     0.2187
     23 C          19.8780    4.1358   24.7936 C.3       1 MOL     0.0752
     24 C          20.9755    5.0644   24.3255 C.3       1 MOL     0.0134
     25 C          21.2113    4.1569   25.4506 C.3       1 MOL     0.0134
     26 C          19.8514    2.5663   18.7314 C.ar      1 MOL     0.1355
     27 C          19.0776    2.1898   17.6569 C.ar      1 MOL     0.0392
     28 C          19.6570    1.4993   16.5828 C.ar      1 MOL     0.0066
     29 O          19.1988   -4.1801   13.8899 O.2       1 MOL    -0.2658
     30 O          18.2585    2.9827   23.5880 O.2       1 MOL    -0.2753
     31 O          22.8626    3.5430   19.7813 O.2       1 MOL    -0.2699
     32 F          19.3312    3.2379   19.7995 F         1 MOL    -0.2047
     33 H          18.0150   -4.1188   15.9579 H         1 MOL     0.0625
     34 H          17.4499   -3.1938   18.1352 H         1 MOL     0.0618
     35 H          18.5681   -1.1813   18.8338 H         1 MOL     0.0618
     36 H          20.1972   -0.0770   17.4648 H         1 MOL     0.0624
     37 H          21.7061    1.0427   14.5749 H         1 MOL     0.0377
     38 H          22.6720    0.2188   15.7878 H         1 MOL     0.0377
     39 H          22.7622    1.3317   17.6480 H         1 MOL     0.0629
     40 H          22.7402    3.4123   22.1856 H         1 MOL     0.0480
     41 H          23.4042    1.7712   22.2495 H         1 MOL     0.0480
     42 H          22.0269    2.8594   24.2554 H         1 MOL     0.0480
     43 H          22.0651    1.1477   23.9309 H         1 MOL     0.0480
     44 H          18.8612    1.3948   22.0414 H         1 MOL     0.0480
     45 H          19.7964    0.1666   22.8760 H         1 MOL     0.0480
     46 H          20.1370    1.0199   20.2801 H         1 MOL     0.0480
     47 H          21.2405    0.0259   21.2477 H         1 MOL     0.0480
     48 H          18.8752    4.2152   25.1576 H         1 MOL     0.0394
     49 H          20.8939    6.1179   24.4954 H         1 MOL     0.0273
     50 H          21.4594    5.2536   23.3900 H         1 MOL     0.0273
     51 H          21.3097    4.5528   26.4399 H         1 MOL     0.0273
     52 H          21.9487    3.4138   25.6682 H         1 MOL     0.0273
     53 H          18.0703    2.4163   17.6423 H         1 MOL     0.0646
     54 H          19.0542    1.2283   15.7898 H         1 MOL     0.0621
     55 H          20.9582   -2.8541   12.6641 H         1 MOL     0.1921
@<TRIPOS>BOND
     1    1   17 am
     2    1   18 1 
     3    1   21 1 
     4    2   19 1 
     5    2   20 1 
     6    2   22 am
     7    3    4 ar
     8    3   12 ar
     9    4    5 ar
    10    4   55 1 
    11    5    6 ar
    12    5   29 2 
    13    6    7 ar
    14    6   11 ar
    15    7    8 ar
    16    7   33 1 
    17    8    9 ar
    18    8   34 1 
    19    9   10 ar
    20    9   35 1 
    21   10   11 ar
    22   10   36 1 
    23   11   12 ar
    24   12   13 1 
    25   13   14 1 
    26   13   37 1 
    27   13   38 1 
    28   14   15 ar
    29   14   28 ar
    30   15   16 ar
    31   15   39 1 
    32   16   17 1 
    33   16   26 ar
    34   17   31 2 
    35   18   19 1 
    36   18   40 1 
    37   18   41 1 
    38   19   42 1 
    39   19   43 1 
    40   20   21 1 
    41   20   44 1 
    42   20   45 1 
    43   21   46 1 
    44   21   47 1 
    45   22   23 1 
    46   22   30 2 
    47   23   24 1 
    48   23   25 1 
    49   23   48 1 
    50   24   25 1 
    51   24   49 1 
    52   24   50 1 
    53   25   51 1 
    54   25   52 1 
    55   26   27 ar
    56   26   32 1 
    57   27   28 ar
    58   27   53 1 
    59   28   54 1 
@<TRIPOS>SUBSTRUCTURE
1 MOL         1
@<TRIPOS>MOLECULE
query molecule
   55    59     1     0     0
SMALL
NO_CHARGE

@<TRIPOS>ATOM
      1 N          43.0714   16.0604    7.4461 N.am      1 MOL    -0.2945
      2 N          42.9883   18.5867    8.0453 N.am      1 MOL    -0.2983
      3 N          46.7752    9.6503    8.5845 N.ar      1 MOL    -0.1750
      4 N          46.4913    8.3720    8.6469 N.ar      1 MOL    -0.2425
      5 C          45.7812    7.7301    7.7085 C.ar      1 MOL     0.2725
      6 C          45.3225    8.4431    6.6200 C.ar      1 MOL     0.0496
      7 C          44.5619    7.8285    5.6245 C.ar      1 MOL     0.0138
      8 C          44.0961    8.5654    4.5569 C.ar      1 MOL     0.0008
      9 C          44.4170    9.9062    4.5351 C.ar      1 MOL     0.0007
     10 C          45.1703   10.5291    5.5161 C.ar      1 MOL     0.0103
     11 C          45.6286    9.7904    6.5669 C.ar      1 MOL     0.0106
     12 C          46.3570   10.4254    7.5369 C.ar      1 MOL     0.0736
     13 C          46.7955   11.8148    7.5553 C.3       1 MOL     0.0925
     14 C          45.9321   12.6244    8.4588 C.ar      1 MOL    -0.0406
     15 C          44.8506   13.2760    7.8397 C.ar      1 MOL     0.0196
     16 C          44.0026   14.0557    8.5891 C.ar      1 MOL     0.0723
     17 C          42.8575   14.7569    7.9659 C.2       1 MOL     0.2495
     18 C          41.9928   16.7662    6.8334 C.3       1 MOL     0.1268
     19 C          42.1585   18.2687    6.9124 C.3       1 MOL     0.1265
     20 C          44.3643   18.0788    8.0254 C.3       1 MOL     0.1265
     21 C          44.3938   16.6488    7.5506 C.3       1 MOL     0.1268
     22 C          42.5253   19.3422    9.1265 C.2       1 MOL     0.2187
     23 C          41.1828   19.9039    9.2986 C.3       1 MOL     0.0752
     24 C          40.7017   20.0571   10.7238 C.3       1 MOL     0.0134
     25 C          40.0700   19.0780    9.8364 C.3       1 MOL     0.0134
     26 C          44.1491   14.2429    9.9431 C.ar      1 MOL     0.1355
     27 C          45.2081   13.6047   10.5482 C.ar      1 MOL     0.0392
     28 C          46.0759   12.8093    9.7863 C.ar      1 MOL     0.0066
     29 O          45.5000    6.5049    7.7500 O.2       1 MOL    -0.2658
     30 O          43.3481   19.5799   10.0814 O.2       1 MOL    -0.2753
     31 O          41.7202   14.2385    7.8855 O.2       1 MOL    -0.2699
     32 F          43.2799   15.0283   10.6435 F         1 MOL    -0.2047
     33 H          44.3483    6.8209    5.6871 H         1 MOL     0.0625
     34 H          43.5328    8.1335    3.8090 H         1 MOL     0.0618
     35 H          44.0770   10.4762    3.7454 H         1 MOL     0.0618
     36 H          45.3826   11.5373    5.4533 H         1 MOL     0.0624
     37 H          46.7407   12.2146    6.5643 H         1 MOL     0.0377
     38 H          47.8024   11.8543    7.9155 H         1 MOL     0.0377
     39 H          44.6943   13.1692    6.8254 H         1 MOL     0.0629
     40 H          41.0823   16.4953    7.3266 H         1 MOL     0.0480
     41 H          41.9769   16.4965    5.7976 H         1 MOL     0.0480
     42 H          41.2004   18.7303    7.0273 H         1 MOL     0.0480
     43 H          42.6151   18.6307    6.0147 H         1 MOL     0.0480
     44 H          44.7734   18.1297    9.0127 H         1 MOL     0.0480
     45 H          44.9446   18.6768    7.3541 H         1 MOL     0.0480
     46 H          44.9696   16.0707    8.2429 H         1 MOL     0.0480
     47 H          44.8247   16.6444    6.5721 H         1 MOL     0.0480
     48 H          41.2922   20.5179    8.4295 H         1 MOL     0.0394
     49 H          40.1677   20.9370   11.0167 H         1 MOL     0.0273
     50 H          41.1651   20.0185   11.6875 H         1 MOL     0.0273
     51 H          39.0710   19.2428    9.4903 H         1 MOL     0.0273
     52 H          39.8818   18.0273    9.8981 H         1 MOL     0.0273
     53 H          45.3630   13.7119   11.5634 H         1 MOL     0.0646
     54 H          46.8624   12.3421   10.2646 H         1 MOL     0.0621
     55 H          46.8164    7.8578    9.4213 H         1 MOL     0.1921
@<TRIPOS>BOND
     1    1   17 am
     2    1   18 1 
     3    1   21 1 
     4    2   19 1 
     5    2   20 1 
     6    2   22 am
     7    3    4 ar
     8    3   12 ar
     9    4    5 ar
    10    4   55 1 
    11    5    6 ar
    12    5   29 2 
    13    6    7 ar
    14    6   11 ar
    15    7    8 ar
    16    7   33 1 
    17    8    9 ar
    18    8   34 1 
    19    9   10 ar
    20    9   35 1 
    21   10   11 ar
    22   10   36 1 
    23   11   12 ar
    24   12   13 1 
    25   13   14 1 
    26   13   37 1 
    27   13   38 1 
    28   14   15 ar
    29   14   28 ar
    30   15   16 ar
    31   15   39 1 
    32   16   17 1 
    33   16   26 ar
    34   17   31 2 
    35   18   19 1 
    36   18   40 1 
    37   18   41 1 
    38   19   42 1 
    39   19   43 1 
    40   20   21 1 
    41   20   44 1 
    42   20   45 1 
    43   21   46 1 
    44   21   47 1 
    45   22   23 1 
    46   22   30 2 
    47   23   24 1 
    48   23   25 1 
    49   23   48 1 
    50   24   25 1 
    51   24   49 1 
    52   24   50 1 
    53   25   51 1 
    54   25   52 1 
    55   26   27 ar
    56   26   32 1 
    57   27   28 ar
    58   27   53 1 
    59   28   54 1 
@<TRIPOS>SUBSTRUCTURE
1 MOL         1
@<TRIPOS>MOLECULE
query molecule
   55    59     1     0     0
SMALL
NO_CHARGE

@<TRIPOS>ATOM
      1 N          14.4550  -16.5230   -6.5037 N.am      1 MOL    -0.2945
      2 N          14.8719  -13.9628   -6.6448 N.am      1 MOL    -0.2983
      3 N          10.0990  -16.8267   -2.3220 N.ar      1 MOL    -0.1750
      4 N           9.6388  -15.7352   -1.7602 N.ar      1 MOL    -0.2425
      5 C          10.1776  -15.1916   -0.6597 C.ar      1 MOL     0.2725
      6 C          11.2707  -15.8053   -0.0835 C.ar      1 MOL     0.0496
      7 C          11.8579  -15.2928    1.0740 C.ar      1 MOL     0.0138
      8 C          12.9360  -15.9347    1.6443 C.ar      1 MOL     0.0008
      9 C          13.3835  -17.0800    1.0205 C.ar      1 MOL     0.0007
     10 C          12.8103  -17.6000   -0.1280 C.ar      1 MOL     0.0103
     11 C          11.7456  -16.9558   -0.6858 C.ar      1 MOL     0.0106
     12 C          11.1799  -17.4928   -1.8110 C.ar      1 MOL     0.0736
     13 C          11.6307  -18.6537   -2.5674 C.3       1 MOL     0.0925
     14 C          11.3985  -18.4519   -4.0243 C.ar      1 MOL    -0.0406
     15 C          12.5393  -18.1283   -4.7803 C.ar      1 MOL     0.0196
     16 C          12.4244  -17.9128   -6.1327 C.ar      1 MOL     0.0723
     17 C          13.6059  -17.5672   -6.9549 C.2       1 MOL     0.2495
     18 C          15.6065  -16.1644   -7.2669 C.3       1 MOL     0.1268
     19 C          16.0228  -14.7248   -7.0542 C.3       1 MOL     0.1265
     20 C          14.2411  -14.3406   -5.3754 C.3       1 MOL     0.1265
     21 C          14.1290  -15.8395   -5.2658 C.3       1 MOL     0.1268
     22 C          14.3603  -12.9079   -7.4061 C.2       1 MOL     0.2187
     23 C          14.8667  -12.4232   -8.6929 C.3       1 MOL     0.0752
     24 C          13.9224  -11.5599   -9.4987 C.3       1 MOL     0.0134
     25 C          14.2816  -12.8978   -9.9744 C.3       1 MOL     0.0134
     26 C          11.2318  -17.9970   -6.8113 C.ar      1 MOL     0.1355
     27 C          10.1158  -18.3138   -6.0703 C.ar      1 MOL     0.0392
     28 C          10.2292  -18.5333   -4.6900 C.ar      1 MOL     0.0066
     29 O           9.7514  -14.1452   -0.1073 O.2       1 MOL    -0.2658
     30 O          13.3375  -12.2847   -6.9470 O.2       1 MOL    -0.2753
     31 O          13.8735  -18.1632   -8.0236 O.2       1 MOL    -0.2699
     32 F          11.1695  -17.7732   -8.1562 F         1 MOL    -0.2047
     33 H          11.4850  -14.4317    1.5034 H         1 MOL     0.0625
     34 H          13.3869  -15.5749    2.4991 H         1 MOL     0.0618
     35 H          14.1886  -17.5766    1.4319 H         1 MOL     0.0618
     36 H          13.1831  -18.4620   -0.5562 H         1 MOL     0.0624
     37 H          11.0909  -19.5181   -2.2411 H         1 MOL     0.0377
     38 H          12.6795  -18.7877   -2.4018 H         1 MOL     0.0377
     39 H          13.4600  -18.0524   -4.3207 H         1 MOL     0.0629
     40 H          15.3879  -16.3084   -8.3047 H         1 MOL     0.0480
     41 H          16.4154  -16.7864   -6.9431 H         1 MOL     0.0480
     42 H          16.4131  -14.3252   -7.9665 H         1 MOL     0.0480
     43 H          16.7794  -14.6741   -6.2989 H         1 MOL     0.0480
     44 H          13.2627  -13.9107   -5.3260 H         1 MOL     0.0480
     45 H          14.8440  -13.9802   -4.5682 H         1 MOL     0.0480
     46 H          13.1242  -16.0881   -4.9944 H         1 MOL     0.0480
     47 H          14.8326  -16.1608   -4.5276 H         1 MOL     0.0480
     48 H          15.8658  -12.3646   -8.3153 H         1 MOL     0.0394
     49 H          14.2915  -10.6939  -10.0076 H         1 MOL     0.0273
     50 H          13.0046  -11.0487   -9.2960 H         1 MOL     0.0273
     51 H          14.9066  -13.0043  -10.8364 H         1 MOL     0.0273
     52 H          13.7224  -13.7613  -10.2657 H         1 MOL     0.0273
     53 H           9.1951  -18.3900   -6.5315 H         1 MOL     0.0646
     54 H           9.3767  -18.7691   -4.1577 H         1 MOL     0.0621
     55 H           8.8589  -15.2926   -2.1673 H         1 MOL     0.1921
@<TRIPOS>BOND
     1    1   17 am
     2    1   18 1 
     3    1   21 1 
     4    2   19 1 
     5    2   20 1 
     6    2   22 am
     7    3    4 ar
     8    3   12 ar
     9    4    5 ar
    10    4   55 1 
    11    5    6 ar
    12    5   29 2 
    13    6    7 ar
    14    6   11 ar
    15    7    8 ar
    16    7   33 1 
    17    8    9 ar
    18    8   34 1 
    19    9   10 ar
    20    9   35 1 
    21   10   11 ar
    22   10   36 1 
    23   11   12 ar
    24   12   13 1 
    25   13   14 1 
    26   13   37 1 
    27   13   38 1 
    28   14   15 ar
    29   14   28 ar
    30   15   16 ar
    31   15   39 1 
    32   16   17 1 
    33   16   26 ar
    34   17   31 2 
    35   18   19 1 
    36   18   40 1 
    37   18   41 1 
    38   19   42 1 
    39   19   43 1 
    40   20   21 1 
    41   20   44 1 
    42   20   45 1 
    43   21   46 1 
    44   21   47 1 
    45   22   23 1 
    46   22   30 2 
    47   23   24 1 
    48   23   25 1 
    49   23   48 1 
    50   24   25 1 
    51   24   49 1 
    52   24   50 1 
    53   25   51 1 
    54   25   52 1 
    55   26   27 ar
    56   26   32 1 
    57   27   28 ar
    58   27   53 1 
    59   28   54 1 
@<TRIPOS>SUBSTRUCTURE
1 MOL         1
@<TRIPOS>MOLECULE
query molecule
   55    59     1     0     0
SMALL
NO_CHARGE

@<TRIPOS>ATOM
      1 N          26.4005    4.0248   14.9124 N.am      1 MOL    -0.2945
      2 N          23.9089    3.3935   15.2892 N.am      1 MOL    -0.2983
      3 N          32.2625    5.4010   16.3493 N.ar      1 MOL    -0.1750
      4 N          33.0367    4.5519   15.7183 N.ar      1 MOL    -0.2425
      5 C          33.4490    4.7314   14.4555 C.ar      1 MOL     0.2725
      6 C          33.0423    5.8632   13.7793 C.ar      1 MOL     0.0496
      7 C          33.4259    6.0894   12.4568 C.ar      1 MOL     0.0138
      8 C          32.9901    7.2166   11.7941 C.ar      1 MOL     0.0008
      9 C          32.1755    8.0793   12.4966 C.ar      1 MOL     0.0007
     10 C          31.7868    7.8672   13.8088 C.ar      1 MOL     0.0103
     11 C          32.2256    6.7501   14.4563 C.ar      1 MOL     0.0106
     12 C          31.8178    6.5468   15.7473 C.ar      1 MOL     0.0736
     13 C          31.0188    7.4368   16.5796 C.3       1 MOL     0.0925
     14 C          29.7200    6.7991   16.9315 C.ar      1 MOL    -0.0406
     15 C          29.3268    5.7304   16.1063 C.ar      1 MOL     0.0196
     16 C          28.1375    5.0843   16.3451 C.ar      1 MOL     0.0723
     17 C          27.6945    3.9584   15.4923 C.2       1 MOL     0.2495
     18 C          25.9400    2.9606   14.0804 C.3       1 MOL     0.1268
     19 C          24.4311    2.8416   14.0662 C.3       1 MOL     0.1265
     20 C          24.1498    4.8202   15.5313 C.3       1 MOL     0.1265
     21 C          25.5700    5.1838   15.1818 C.3       1 MOL     0.1268
     22 C          23.2028    2.6244   16.2187 C.2       1 MOL     0.2187
     23 C          22.8956    1.1946   16.1275 C.3       1 MOL     0.0752
     24 C          24.0484    0.2478   16.3739 C.3       1 MOL     0.0134
     25 C          23.4608    0.3575   15.0368 C.3       1 MOL     0.0134
     26 C          27.2856    5.4263   17.3685 C.ar      1 MOL     0.1355
     27 C          27.6715    6.4725   18.1755 C.ar      1 MOL     0.0392
     28 C          28.8838    7.1346   17.9341 C.ar      1 MOL     0.0066
     29 O          34.1924    3.9295   13.8341 O.2       1 MOL    -0.2658
     30 O          22.7694    3.2146   17.2718 O.2       1 MOL    -0.2753
     31 O          28.4205    2.9620   15.2710 O.2       1 MOL    -0.2699
     32 F          26.1143    4.7536   17.5641 F         1 MOL    -0.2047
     33 H          34.0372    5.4124   11.9743 H         1 MOL     0.0625
     34 H          33.2605    7.4056   10.8172 H         1 MOL     0.0618
     35 H          31.8371    8.9284   12.0186 H         1 MOL     0.0618
     36 H          31.1744    8.5443   14.2903 H         1 MOL     0.0624
     37 H          30.8319    8.3451   16.0456 H         1 MOL     0.0377
     38 H          31.5568    7.6415   17.4818 H         1 MOL     0.0377
     39 H          29.9293    5.4325   15.3235 H         1 MOL     0.0629
     40 H          26.3531    2.0412   14.4403 H         1 MOL     0.0480
     41 H          26.2573    3.1720   13.0800 H         1 MOL     0.0480
     42 H          24.1527    1.8117   13.9884 H         1 MOL     0.0480
     43 H          24.0333    3.3751   13.2280 H         1 MOL     0.0480
     44 H          23.9758    5.0369   16.5644 H         1 MOL     0.0480
     45 H          23.4864    5.3926   14.9171 H         1 MOL     0.0480
     46 H          25.9958    5.7245   16.0012 H         1 MOL     0.0480
     47 H          25.5403    5.7712   14.2889 H         1 MOL     0.0480
     48 H          21.9049    1.3497   16.5001 H         1 MOL     0.0394
     49 H          23.8981   -0.6391   16.9536 H         1 MOL     0.0273
     50 H          25.0341    0.3443   16.7789 H         1 MOL     0.0273
     51 H          22.8889   -0.4553   14.6404 H         1 MOL     0.0273
     52 H          23.8533    0.5638   14.0639 H         1 MOL     0.0273
     53 H          27.0679    6.7693   18.9589 H         1 MOL     0.0646
     54 H          29.1493    7.9162   18.5540 H         1 MOL     0.0621
     55 H          33.3304    3.7424   16.1960 H         1 MOL     0.1921
@<TRIPOS>BOND
     1    1   17 am
     2    1   18 1 
     3    1   21 1 
     4    2   19 1 
     5    2   20 1 
     6    2   22 am
     7    3    4 ar
     8    3   12 ar
     9    4    5 ar
    10    4   55 1 
    11    5    6 ar
    12    5   29 2 
    13    6    7 ar
    14    6   11 ar
    15    7    8 ar
    16    7   33 1 
    17    8    9 ar
    18    8   34 1 
    19    9   10 ar
    20    9   35 1 
    21   10   11 ar
    22   10   36 1 
    23   11   12 ar
    24   12   13 1 
    25   13   14 1 
    26   13   37 1 
    27   13   38 1 
    28   14   15 ar
    29   14   28 ar
    30   15   16 ar
    31   15   39 1 
    32   16   17 1 
    33   16   26 ar
    34   17   31 2 
    35   18   19 1 
    36   18   40 1 
    37   18   41 1 
    38   19   42 1 
    39   19   43 1 
    40   20   21 1 
    41   20   44 1 
    42   20   45 1 
    43   21   46 1 
    44   21   47 1 
    45   22   23 1 
    46   22   30 2 
    47   23   24 1 
    48   23   25 1 
    49   23   48 1 
    50   24   25 1 
    51   24   49 1 
    52   24   50 1 
    53   25   51 1 
    54   25   52 1 
    55   26   27 ar
    56   26   32 1 
    57   27   28 ar
    58   27   53 1 
    59   28   54 1 
@<TRIPOS>SUBSTRUCTURE
1 MOL         1
@<TRIPOS>MOLECULE
query molecule
   55    59     1     0     0
SMALL
NO_CHARGE

@<TRIPOS>ATOM
      1 N          30.9570  -13.9192   12.8426 N.am      1 MOL    -0.2945
      2 N          32.5783  -13.4114   10.8776 N.am      1 MOL    -0.2983
      3 N          35.1868  -19.5268   15.1924 N.ar      1 MOL    -0.1750
      4 N          36.1186  -19.6807   16.1017 N.ar      1 MOL    -0.2425
      5 C          36.1653  -18.9657   17.2346 C.ar      1 MOL     0.2725
      6 C          35.1883  -18.0186   17.4623 C.ar      1 MOL     0.0496
      7 C          35.2009  -17.2330   18.6155 C.ar      1 MOL     0.0138
      8 C          34.2266  -16.2781   18.8118 C.ar      1 MOL     0.0008
      9 C          33.2693  -16.1500   17.8277 C.ar      1 MOL     0.0007
     10 C          33.2448  -16.9223   16.6785 C.ar      1 MOL     0.0103
     11 C          34.2119  -17.8662   16.4951 C.ar      1 MOL     0.0106
     12 C          34.1832  -18.6089   15.3453 C.ar      1 MOL     0.0736
     13 C          33.1747  -18.5842   14.2940 C.3       1 MOL     0.0925
     14 C          31.9922  -17.7863   14.7212 C.ar      1 MOL    -0.0406
     15 C          31.9836  -16.4441   14.3016 C.ar      1 MOL     0.0196
     16 C          30.9388  -15.6242   14.6551 C.ar      1 MOL     0.0723
     17 C          30.9026  -14.2062   14.2318 C.2       1 MOL     0.2495
     18 C          30.9195  -12.5643   12.3957 C.3       1 MOL     0.1268
     19 C          31.5976  -12.3724   11.0561 C.3       1 MOL     0.1265
     20 C          32.0841  -14.7917   10.8303 C.3       1 MOL     0.1265
     21 C          31.0497  -15.0204   11.9021 C.3       1 MOL     0.1268
     22 C          33.9443  -13.1411   10.7539 C.2       1 MOL     0.2187
     23 C          34.5898  -11.8263   10.7949 C.3       1 MOL     0.0752
     24 C          35.4878  -11.5610   11.9820 C.3       1 MOL     0.0134
     25 C          34.2286  -10.8276   11.8351 C.3       1 MOL     0.0134
     26 C          29.8724  -16.0459   15.4133 C.ar      1 MOL     0.1355
     27 C          29.8819  -17.3598   15.8236 C.ar      1 MOL     0.0392
     28 C          30.9468  -18.1989   15.4655 C.ar      1 MOL     0.0066
     29 O          37.0497  -19.0998   18.1187 O.2       1 MOL    -0.2658
     30 O          34.7346  -14.1374   10.5866 O.2       1 MOL    -0.2753
     31 O          30.8261  -13.2651   15.0548 O.2       1 MOL    -0.2699
     32 F          28.8586  -15.1921   15.7389 F         1 MOL    -0.2047
     33 H          35.9402  -17.3675   19.3228 H         1 MOL     0.0625
     34 H          34.2147  -15.6860   19.6559 H         1 MOL     0.0618
     35 H          32.5316  -15.4402   17.9544 H         1 MOL     0.0618
     36 H          32.5057  -16.7865   15.9709 H         1 MOL     0.0624
     37 H          32.8648  -19.5856   14.0794 H         1 MOL     0.0377
     38 H          33.5971  -18.1320   13.4208 H         1 MOL     0.0377
     39 H          32.7596  -16.0758   13.7301 H         1 MOL     0.0629
     40 H          31.4129  -11.9508   13.1207 H         1 MOL     0.0480
     41 H          29.8911  -12.2905   12.2799 H         1 MOL     0.0480
     42 H          32.0771  -11.4166   11.0297 H         1 MOL     0.0480
     43 H          30.8709  -12.4203   10.2718 H         1 MOL     0.0480
     44 H          32.9019  -15.4646   10.9820 H         1 MOL     0.0480
     45 H          31.6347  -14.9662    9.8749 H         1 MOL     0.0480
     46 H          31.3072  -15.9079   12.4418 H         1 MOL     0.0480
     47 H          30.1004  -15.1092   11.4183 H         1 MOL     0.0480
     48 H          34.6560  -11.7886    9.7279 H         1 MOL     0.0394
     49 H          36.4210  -11.0554   11.8448 H         1 MOL     0.0273
     50 H          35.9285  -12.1646   12.7478 H         1 MOL     0.0273
     51 H          34.2469   -9.7842   11.5987 H         1 MOL     0.0273
     52 H          33.3753  -10.6769   12.4615 H         1 MOL     0.0273
     53 H          29.1043  -17.7273   16.3950 H         1 MOL     0.0646
     54 H          30.9295  -19.1798   15.7865 H         1 MOL     0.0621
     55 H          36.8184  -20.3556   15.9447 H         1 MOL     0.1921
@<TRIPOS>BOND
     1    1   17 am
     2    1   18 1 
     3    1   21 1 
     4    2   19 1 
     5    2   20 1 
     6    2   22 am
     7    3    4 ar
     8    3   12 ar
     9    4    5 ar
    10    4   55 1 
    11    5    6 ar
    12    5   29 2 
    13    6    7 ar
    14    6   11 ar
    15    7    8 ar
    16    7   33 1 
    17    8    9 ar
    18    8   34 1 
    19    9   10 ar
    20    9   35 1 
    21   10   11 ar
    22   10   36 1 
    23   11   12 ar
    24   12   13 1 
    25   13   14 1 
    26   13   37 1 
    27   13   38 1 
    28   14   15 ar
    29   14   28 ar
    30   15   16 ar
    31   15   39 1 
    32   16   17 1 
    33   16   26 ar
    34   17   31 2 
    35   18   19 1 
    36   18   40 1 
    37   18   41 1 
    38   19   42 1 
    39   19   43 1 
    40   20   21 1 
    41   20   44 1 
    42   20   45 1 
    43   21   46 1 
    44   21   47 1 
    45   22   23 1 
    46   22   30 2 
    47   23   24 1 
    48   23   25 1 
    49   23   48 1 
    50   24   25 1 
    51   24   49 1 
    52   24   50 1 
    53   25   51 1 
    54   25   52 1 
    55   26   27 ar
    56   26   32 1 
    57   27   28 ar
    58   27   53 1 
    59   28   54 1 
@<TRIPOS>SUBSTRUCTURE
1 MOL         1
@<TRIPOS>MOLECULE
query molecule
   55    59     1     0     0
SMALL
NO_CHARGE

@<TRIPOS>ATOM
      1 N          33.6157  -18.6325   28.7065 N.am      1 MOL    -0.2945
      2 N          35.1329  -16.7831   29.7196 N.am      1 MOL    -0.2983
      3 N          27.2338  -18.0751   25.2897 N.ar      1 MOL    -0.1750
      4 N          26.2644  -17.3846   24.7401 N.ar      1 MOL    -0.2425
      5 C          25.8640  -17.5597   23.4728 C.ar      1 MOL     0.2725
      6 C          26.4989  -18.5117   22.7019 C.ar      1 MOL     0.0496
      7 C          26.1352  -18.7209   21.3711 C.ar      1 MOL     0.0138
      8 C          26.7978  -19.6626   20.6136 C.ar      1 MOL     0.0008
      9 C          27.8119  -20.3623   21.2327 C.ar      1 MOL     0.0007
     10 C          28.1835  -20.1648   22.5521 C.ar      1 MOL     0.0103
     11 C          27.5198  -19.2324   23.2936 C.ar      1 MOL     0.0106
     12 C          27.9113  -19.0374   24.5910 C.ar      1 MOL     0.0736
     13 C          28.9208  -19.7770   25.3375 C.3       1 MOL     0.0925
     14 C          30.1487  -18.9535   25.5150 C.ar      1 MOL    -0.0406
     15 C          31.1214  -19.4943   26.3747 C.ar      1 MOL     0.0196
     16 C          32.2856  -18.8030   26.6103 C.ar      1 MOL     0.0723
     17 C          33.3269  -19.3440   27.5126 C.2       1 MOL     0.2495
     18 C          34.6099  -19.1256   29.6039 C.3       1 MOL     0.1268
     19 C          35.2438  -18.0290   30.4327 C.3       1 MOL     0.1265
     20 C          33.7782  -16.2877   29.4528 C.3       1 MOL     0.1265
     21 C          32.8862  -17.4101   28.9883 C.3       1 MOL     0.1268
     22 C          36.2507  -16.0617   29.2903 C.2       1 MOL     0.2187
     23 C          37.6580  -16.4296   29.4667 C.3       1 MOL     0.0752
     24 C          38.6618  -15.3058   29.3418 C.3       1 MOL     0.0134
     25 C          38.6151  -16.3648   28.3311 C.3       1 MOL     0.0134
     26 C          32.5665  -17.5831   26.0420 C.ar      1 MOL     0.1355
     27 C          31.6136  -17.0547   25.2007 C.ar      1 MOL     0.0392
     28 C          30.4242  -17.7569   24.9590 C.ar      1 MOL     0.0066
     29 O          24.9358  -16.9085   22.9287 O.2       1 MOL    -0.2658
     30 O          36.0437  -14.9566   28.6728 O.2       1 MOL    -0.2753
     31 O          33.9516  -20.3987   27.2552 O.2       1 MOL    -0.2699
     32 F          33.7379  -16.9352   26.3083 F         1 MOL    -0.2047
     33 H          25.3687  -18.1704   20.9534 H         1 MOL     0.0625
     34 H          26.5468  -19.8354   19.6285 H         1 MOL     0.0618
     35 H          28.3216  -21.0710   20.6830 H         1 MOL     0.0618
     36 H          28.9510  -20.7150   22.9688 H         1 MOL     0.0624
     37 H          29.1699  -20.6701   24.8033 H         1 MOL     0.0377
     38 H          28.5274  -20.0201   26.3026 H         1 MOL     0.0377
     39 H          30.9614  -20.4074   26.8276 H         1 MOL     0.0629
     40 H          35.3752  -19.6106   29.0342 H         1 MOL     0.0480
     41 H          34.1289  -19.8037   30.2783 H         1 MOL     0.0480
     42 H          36.2754  -18.2567   30.6011 H         1 MOL     0.0480
     43 H          34.7444  -17.9531   31.3763 H         1 MOL     0.0480
     44 H          33.8209  -15.5356   28.6931 H         1 MOL     0.0480
     45 H          33.3750  -15.8783   30.3555 H         1 MOL     0.0480
     46 H          32.3838  -17.1003   28.0957 H         1 MOL     0.0480
     47 H          32.1990  -17.6224   29.7795 H         1 MOL     0.0480
     48 H          37.4049  -17.1900   30.1753 H         1 MOL     0.0394
     49 H          39.4882  -15.2485   30.0194 H         1 MOL     0.0273
     50 H          38.6039  -14.2375   29.3235 H         1 MOL     0.0273
     51 H          39.4139  -17.0741   28.2686 H         1 MOL     0.0273
     52 H          38.5132  -16.3767   27.2668 H         1 MOL     0.0273
     53 H          31.7753  -16.1411   24.7476 H         1 MOL     0.0646
     54 H          29.7261  -17.3381   24.3243 H         1 MOL     0.0621
     55 H          25.8073  -16.7039   25.2856 H         1 MOL     0.1921
@<TRIPOS>BOND
     1    1   17 am
     2    1   18 1 
     3    1   21 1 
     4    2   19 1 
     5    2   20 1 
     6    2   22 am
     7    3    4 ar
     8    3   12 ar
     9    4    5 ar
    10    4   55 1 
    11    5    6 ar
    12    5   29 2 
    13    6    7 ar
    14    6   11 ar
    15    7    8 ar
    16    7   33 1 
    17    8    9 ar
    18    8   34 1 
    19    9   10 ar
    20    9   35 1 
    21   10   11 ar
    22   10   36 1 
    23   11   12 ar
    24   12   13 1 
    25   13   14 1 
    26   13   37 1 
    27   13   38 1 
    28   14   15 ar
    29   14   28 ar
    30   15   16 ar
    31   15   39 1 
    32   16   17 1 
    33   16   26 ar
    34   17   31 2 
    35   18   19 1 
    36   18   40 1 
    37   18   41 1 
    38   19   42 1 
    39   19   43 1 
    40   20   21 1 
    41   20   44 1 
    42   20   45 1 
    43   21   46 1 
    44   21   47 1 
    45   22   23 1 
    46   22   30 2 
    47   23   24 1 
    48   23   25 1 
    49   23   48 1 
    50   24   25 1 
    51   24   49 1 
    52   24   50 1 
    53   25   51 1 
    54   25   52 1 
    55   26   27 ar
    56   26   32 1 
    57   27   28 ar
    58   27   53 1 
    59   28   54 1 
@<TRIPOS>SUBSTRUCTURE
1 MOL         1
@<TRIPOS>MOLECULE
query molecule
   55    59     1     0     0
SMALL
NO_CHARGE

@<TRIPOS>ATOM
      1 N          29.8443   17.0127   24.2562 N.am      1 MOL    -0.2945
      2 N          27.4938   18.1155   24.3401 N.am      1 MOL    -0.2983
      3 N          34.7108   17.1071   19.5875 N.ar      1 MOL    -0.1750
      4 N          34.9125   17.3383   18.3130 N.ar      1 MOL    -0.2425
      5 C          35.9640   18.0278   17.8484 C.ar      1 MOL     0.2725
      6 C          36.8840   18.5223   18.7499 C.ar      1 MOL     0.0496
      7 C          37.9858   19.2638   18.3217 C.ar      1 MOL     0.0138
      8 C          38.8805   19.7662   19.2419 C.ar      1 MOL     0.0008
      9 C          38.6262   19.5003   20.5708 C.ar      1 MOL     0.0007
     10 C          37.5368   18.7665   21.0099 C.ar      1 MOL     0.0103
     11 C          36.6590   18.2717   20.0910 C.ar      1 MOL     0.0106
     12 C          35.5780   17.5634   20.5430 C.ar      1 MOL     0.0736
     13 C          35.2741   17.1818   21.9159 C.3       1 MOL     0.0925
     14 C          34.1121   17.9579   22.4303 C.ar      1 MOL    -0.0406
     15 C          33.2382   17.2513   23.2757 C.ar      1 MOL     0.0196
     16 C          32.1305   17.8793   23.7926 C.ar      1 MOL     0.0723
     17 C          31.1901   17.1615   24.6824 C.2       1 MOL     0.2495
     18 C          28.9095   16.3224   25.0848 C.3       1 MOL     0.1268
     19 C          27.4823   16.7703   24.8533 C.3       1 MOL     0.1265
     20 C          28.1465   18.3272   23.0435 C.3       1 MOL     0.1265
     21 C          29.4482   17.5708   22.9766 C.3       1 MOL     0.1268
     22 C          26.9168   19.1867   25.0285 C.2       1 MOL     0.2187
     23 C          26.2458   19.1388   26.3302 C.3       1 MOL     0.0752
     24 C          27.0916   18.6900   27.5004 C.3       1 MOL     0.0134
     25 C          25.9980   17.8440   27.0172 C.3       1 MOL     0.0134
     26 C          31.8151   19.1911   23.5282 C.ar      1 MOL     0.1355
     27 C          32.6712   19.8818   22.7006 C.ar      1 MOL     0.0392
     28 C          33.8018   19.2437   22.1706 C.ar      1 MOL     0.0066
     29 O          36.1752   18.2586   16.6302 O.2       1 MOL    -0.2658
     30 O          26.9707   20.3445   24.4791 O.2       1 MOL    -0.2753
     31 O          31.5448   16.6878   25.7863 O.2       1 MOL    -0.2699
     32 F          30.7021   19.7698   24.0657 F         1 MOL    -0.2047
     33 H          38.1317   19.4357   17.3147 H         1 MOL     0.0625
     34 H          39.7022   20.3164   18.9497 H         1 MOL     0.0618
     35 H          39.2828   19.8684   21.2761 H         1 MOL     0.0618
     36 H          37.3910   18.5959   22.0173 H         1 MOL     0.0624
     37 H          36.1272   17.3750   22.5324 H         1 MOL     0.0377
     38 H          35.0290   16.1403   21.9386 H         1 MOL     0.0377
     39 H          33.4280   16.2638   23.5070 H         1 MOL     0.0629
     40 H          29.1629   16.5008   26.1092 H         1 MOL     0.0480
     41 H          28.9660   15.2821   24.8386 H         1 MOL     0.0480
     42 H          26.9426   16.7420   25.7765 H         1 MOL     0.0480
     43 H          27.0069   16.1176   24.1508 H         1 MOL     0.0480
     44 H          28.3397   19.3713   22.9122 H         1 MOL     0.0480
     45 H          27.5007   17.9709   22.2683 H         1 MOL     0.0480
     46 H          30.2152   18.2392   22.6449 H         1 MOL     0.0480
     47 H          29.3106   16.7545   22.2999 H         1 MOL     0.0480
     48 H          25.6223   19.9702   26.0767 H         1 MOL     0.0394
     49 H          27.0069   19.1875   28.4441 H         1 MOL     0.0273
     50 H          28.1394   18.5518   27.6683 H         1 MOL     0.0273
     51 H          25.1195   17.7197   27.6153 H         1 MOL     0.0273
     52 H          25.9282   16.8276   26.6927 H         1 MOL     0.0273
     53 H          32.4804   20.8701   22.4704 H         1 MOL     0.0646
     54 H          34.4271   19.7844   21.5524 H         1 MOL     0.0621
     55 H          34.2594   16.9874   17.6648 H         1 MOL     0.1921
@<TRIPOS>BOND
     1    1   17 am
     2    1   18 1 
     3    1   21 1 
     4    2   19 1 
     5    2   20 1 
     6    2   22 am
     7    3    4 ar
     8    3   12 ar
     9    4    5 ar
    10    4   55 1 
    11    5    6 ar
    12    5   29 2 
    13    6    7 ar
    14    6   11 ar
    15    7    8 ar
    16    7   33 1 
    17    8    9 ar
    18    8   34 1 
    19    9   10 ar
    20    9   35 1 
    21   10   11 ar
    22   10   36 1 
    23   11   12 ar
    24   12   13 1 
    25   13   14 1 
    26   13   37 1 
    27   13   38 1 
    28   14   15 ar
    29   14   28 ar
    30   15   16 ar
    31   15   39 1 
    32   16   17 1 
    33   16   26 ar
    34   17   31 2 
    35   18   19 1 
    36   18   40 1 
    37   18   41 1 
    38   19   42 1 
    39   19   43 1 
    40   20   21 1 
    41   20   44 1 
    42   20   45 1 
    43   21   46 1 
    44   21   47 1 
    45   22   23 1 
    46   22   30 2 
    47   23   24 1 
    48   23   25 1 
    49   23   48 1 
    50   24   25 1 
    51   24   49 1 
    52   24   50 1 
    53   25   51 1 
    54   25   52 1 
    55   26   27 ar
    56   26   32 1 
    57   27   28 ar
    58   27   53 1 
    59   28   54 1 
@<TRIPOS>SUBSTRUCTURE
1 MOL         1
@<TRIPOS>MOLECULE
query molecule
   55    59     1     0     0
SMALL
NO_CHARGE

@<TRIPOS>ATOM
      1 N         -14.9466   -9.7806   20.3310 N.am      1 MOL    -0.2945
      2 N         -12.5138  -10.0177   19.4513 N.am      1 MOL    -0.2983
      3 N         -13.8228   -4.5731   20.8321 N.ar      1 MOL    -0.1750
      4 N         -12.8462   -4.1120   21.5752 N.ar      1 MOL    -0.2425
      5 C         -12.6262   -2.8044   21.7717 C.ar      1 MOL     0.2725
      6 C         -13.4646   -1.8920   21.1648 C.ar      1 MOL     0.0496
      7 C         -13.2686   -0.5191   21.3196 C.ar      1 MOL     0.0138
      8 C         -14.1058    0.3741   20.6865 C.ar      1 MOL     0.0008
      9 C         -15.1168   -0.1565   19.9134 C.ar      1 MOL     0.0007
     10 C         -15.3227   -1.5163   19.7507 C.ar      1 MOL     0.0103
     11 C         -14.4902   -2.3917   20.3835 C.ar      1 MOL     0.0106
     12 C         -14.6969   -3.7323   20.1979 C.ar      1 MOL     0.0736
     13 C         -15.7759   -4.3731   19.4574 C.3       1 MOL     0.0925
     14 C         -16.3640   -5.4887   20.2492 C.ar      1 MOL    -0.0406
     15 C         -16.0414   -6.7830   19.8040 C.ar      1 MOL     0.0196
     16 C         -16.5451   -7.8782   20.4640 C.ar      1 MOL     0.0723
     17 C         -16.2267   -9.2532   20.0177 C.2       1 MOL     0.2495
     18 C         -14.6046  -11.1044   19.9217 C.3       1 MOL     0.1268
     19 C         -13.1135  -11.2937   19.7434 C.3       1 MOL     0.1265
     20 C         -12.6187   -8.9813   20.4842 C.3       1 MOL     0.1265
     21 C         -14.0083   -8.9537   21.0669 C.3       1 MOL     0.1268
     22 C         -11.8576   -9.7550   18.2452 C.2       1 MOL     0.2187
     23 C         -11.6832  -10.6752   17.1183 C.3       1 MOL     0.0752
     24 C         -12.3445  -12.0281   17.2536 C.3       1 MOL     0.0134
     25 C         -10.8839  -11.9202   17.2623 C.3       1 MOL     0.0134
     26 C         -17.3665   -7.7848   21.5625 C.ar      1 MOL     0.1355
     27 C         -17.6816   -6.5173   21.9974 C.ar      1 MOL     0.0392
     28 C         -17.1701   -5.3977   21.3257 C.ar      1 MOL     0.0066
     29 O         -11.6961   -2.3431   22.4815 O.2       1 MOL    -0.2658
     30 O         -11.3469   -8.5889   18.0880 O.2       1 MOL    -0.2753
     31 O         -17.0450   -9.9548   19.3798 O.2       1 MOL    -0.2699
     32 F         -17.8420   -8.9034   22.1833 F         1 MOL    -0.2047
     33 H         -12.4962   -0.1719   21.9093 H         1 MOL     0.0625
     34 H         -13.9813    1.3928   20.7861 H         1 MOL     0.0618
     35 H         -15.7540    0.4948   19.4298 H         1 MOL     0.0618
     36 H         -16.0947   -1.8629   19.1597 H         1 MOL     0.0624
     37 H         -15.3906   -4.7594   18.5370 H         1 MOL     0.0377
     38 H         -16.5397   -3.6487   19.2642 H         1 MOL     0.0377
     39 H         -15.4284   -6.9102   18.9839 H         1 MOL     0.0629
     40 H         -15.0902  -11.3112   18.9906 H         1 MOL     0.0480
     41 H         -14.9259  -11.7742   20.6926 H         1 MOL     0.0480
     42 H         -12.9313  -11.9704   18.9353 H         1 MOL     0.0480
     43 H         -12.6897  -11.6976   20.6394 H         1 MOL     0.0480
     44 H         -12.4006   -8.0279   20.0506 H         1 MOL     0.0480
     45 H         -11.9215   -9.1996   21.2660 H         1 MOL     0.0480
     46 H         -14.3634   -7.9442   21.0561 H         1 MOL     0.0480
     47 H         -13.9475   -9.3444   22.0602 H         1 MOL     0.0480
     48 H         -11.6697   -9.8670   16.4175 H         1 MOL     0.0394
     49 H         -12.8440  -12.4660   16.4145 H         1 MOL     0.0273
     50 H         -13.0773  -12.4505   17.9091 H         1 MOL     0.0273
     51 H         -10.3198  -12.2883   16.4309 H         1 MOL     0.0273
     52 H         -10.1159  -12.2413   17.9333 H         1 MOL     0.0273
     53 H         -18.2947   -6.3915   22.8187 H         1 MOL     0.0646
     54 H         -17.4223   -4.4586   21.6722 H         1 MOL     0.0621
     55 H         -12.2447   -4.7586   22.0112 H         1 MOL     0.1921
@<TRIPOS>BOND
     1    1   17 am
     2    1   18 1 
     3    1   21 1 
     4    2   19 1 
     5    2   20 1 
     6    2   22 am
     7    3    4 ar
     8    3   12 ar
     9    4    5 ar
    10    4   55 1 
    11    5    6 ar
    12    5   29 2 
    13    6    7 ar
    14    6   11 ar
    15    7    8 ar
    16    7   33 1 
    17    8    9 ar
    18    8   34 1 
    19    9   10 ar
    20    9   35 1 
    21   10   11 ar
    22   10   36 1 
    23   11   12 ar
    24   12   13 1 
    25   13   14 1 
    26   13   37 1 
    27   13   38 1 
    28   14   15 ar
    29   14   28 ar
    30   15   16 ar
    31   15   39 1 
    32   16   17 1 
    33   16   26 ar
    34   17   31 2 
    35   18   19 1 
    36   18   40 1 
    37   18   41 1 
    38   19   42 1 
    39   19   43 1 
    40   20   21 1 
    41   20   44 1 
    42   20   45 1 
    43   21   46 1 
    44   21   47 1 
    45   22   23 1 
    46   22   30 2 
    47   23   24 1 
    48   23   25 1 
    49   23   48 1 
    50   24   25 1 
    51   24   49 1 
    52   24   50 1 
    53   25   51 1 
    54   25   52 1 
    55   26   27 ar
    56   26   32 1 
    57   27   28 ar
    58   27   53 1 
    59   28   54 1 
@<TRIPOS>SUBSTRUCTURE
1 MOL         1
@<TRIPOS>MOLECULE
query molecule
   55    59     1     0     0
SMALL
NO_CHARGE

@<TRIPOS>ATOM
      1 N          -6.3779   15.2905   22.5846 N.am      1 MOL    -0.2945
      2 N          -4.0415   14.2517   22.1257 N.am      1 MOL    -0.2983
      3 N          -8.3111   14.3824   29.0943 N.ar      1 MOL    -0.1750
      4 N          -8.1447   15.2557   30.0578 N.ar      1 MOL    -0.2425
      5 C          -6.9416   15.5991   30.5389 C.ar      1 MOL     0.2725
      6 C          -5.8177   15.0085   29.9989 C.ar      1 MOL     0.0496
      7 C          -4.5427   15.3149   30.4760 C.ar      1 MOL     0.0138
      8 C          -3.4357   14.6965   29.9359 C.ar      1 MOL     0.0008
      9 C          -3.6594   13.7835   28.9272 C.ar      1 MOL     0.0007
     10 C          -4.9188   13.4696   28.4442 C.ar      1 MOL     0.0103
     11 C          -6.0074   14.0890   28.9838 C.ar      1 MOL     0.0106
     12 C          -7.2464   13.7542   28.5069 C.ar      1 MOL     0.0736
     13 C          -7.5635   12.8564   27.4040 C.3       1 MOL     0.0925
     14 C          -8.2658   13.5912   26.3159 C.ar      1 MOL    -0.0406
     15 C          -7.4444   14.3761   25.4870 C.ar      1 MOL     0.0196
     16 C          -8.0018   15.1000   24.4605 C.ar      1 MOL     0.0723
     17 C          -7.1642   15.9382   23.5731 C.2       1 MOL     0.2495
     18 C          -5.5612   16.0653   21.7072 C.3       1 MOL     0.1268
     19 C          -4.3675   15.2936   21.1870 C.3       1 MOL     0.1265
     20 C          -5.0588   13.2197   22.3539 C.3       1 MOL     0.1265
     21 C          -6.4242   13.8433   22.4888 C.3       1 MOL     0.1268
     22 C          -2.8186   14.2056   22.8013 C.2       1 MOL     0.2187
     23 C          -1.7149   15.1633   22.6923 C.3       1 MOL     0.0752
     24 C          -2.0057   16.5718   23.1589 C.3       1 MOL     0.0134
     25 C          -1.7791   16.3008   21.7375 C.3       1 MOL     0.0134
     26 C          -9.3487   15.1044   24.1853 C.ar      1 MOL     0.1355
     27 C         -10.1518   14.3359   24.9972 C.ar      1 MOL     0.0392
     28 C          -9.5865   13.5968   26.0462 C.ar      1 MOL     0.0066
     29 O          -6.7618   16.4351   31.4612 O.2       1 MOL    -0.2658
     30 O          -2.6219   13.2285   23.6086 O.2       1 MOL    -0.2753
     31 O          -7.1310   17.1865   23.6692 O.2       1 MOL    -0.2699
     32 F          -9.8543   15.8414   23.1538 F         1 MOL    -0.2047
     33 H          -4.4282   16.0058   31.2339 H         1 MOL     0.0625
     34 H          -2.4836   14.9068   30.2715 H         1 MOL     0.0618
     35 H          -2.8444   13.3083   28.5099 H         1 MOL     0.0618
     36 H          -5.0327   12.7775   27.6869 H         1 MOL     0.0624
     37 H          -8.1940   12.0689   27.7610 H         1 MOL     0.0377
     38 H          -6.6521   12.4532   27.0140 H         1 MOL     0.0377
     39 H          -6.4260   14.4086   25.6494 H         1 MOL     0.0629
     40 H          -5.2086   16.9254   22.2379 H         1 MOL     0.0480
     41 H          -6.1617   16.3393   20.8644 H         1 MOL     0.0480
     42 H          -3.5329   15.9536   21.0777 H         1 MOL     0.0480
     43 H          -4.6004   14.8645   20.2345 H         1 MOL     0.0480
     44 H          -4.8256   12.6871   23.2520 H         1 MOL     0.0480
     45 H          -5.0667   12.5504   21.5191 H         1 MOL     0.0480
     46 H          -6.8898   13.4587   23.3722 H         1 MOL     0.0480
     47 H          -6.9774   13.5981   21.6073 H         1 MOL     0.0480
     48 H          -0.9899   14.4001   22.8824 H         1 MOL     0.0394
     49 H          -1.2739   17.1101   23.7246 H         1 MOL     0.0273
     50 H          -2.7848   17.0354   23.7273 H         1 MOL     0.0273
     51 H          -0.8839   16.6504   21.2670 H         1 MOL     0.0273
     52 H          -2.3322   16.4951   20.8433 H         1 MOL     0.0273
     53 H         -11.1708   14.3037   24.8333 H         1 MOL     0.0646
     54 H         -10.2112   13.0290   26.6403 H         1 MOL     0.0621
     55 H          -8.9433   15.6808   30.4469 H         1 MOL     0.1921
@<TRIPOS>BOND
     1    1   17 am
     2    1   18 1 
     3    1   21 1 
     4    2   19 1 
     5    2   20 1 
     6    2   22 am
     7    3    4 ar
     8    3   12 ar
     9    4    5 ar
    10    4   55 1 
    11    5    6 ar
    12    5   29 2 
    13    6    7 ar
    14    6   11 ar
    15    7    8 ar
    16    7   33 1 
    17    8    9 ar
    18    8   34 1 
    19    9   10 ar
    20    9   35 1 
    21   10   11 ar
    22   10   36 1 
    23   11   12 ar
    24   12   13 1 
    25   13   14 1 
    26   13   37 1 
    27   13   38 1 
    28   14   15 ar
    29   14   28 ar
    30   15   16 ar
    31   15   39 1 
    32   16   17 1 
    33   16   26 ar
    34   17   31 2 
    35   18   19 1 
    36   18   40 1 
    37   18   41 1 
    38   19   42 1 
    39   19   43 1 
    40   20   21 1 
    41   20   44 1 
    42   20   45 1 
    43   21   46 1 
    44   21   47 1 
    45   22   23 1 
    46   22   30 2 
    47   23   24 1 
    48   23   25 1 
    49   23   48 1 
    50   24   25 1 
    51   24   49 1 
    52   24   50 1 
    53   25   51 1 
    54   25   52 1 
    55   26   27 ar
    56   26   32 1 
    57   27   28 ar
    58   27   53 1 
    59   28   54 1 
@<TRIPOS>SUBSTRUCTURE
1 MOL         1
@<TRIPOS>MOLECULE
query molecule
   55    59     1     0     0
SMALL
NO_CHARGE

@<TRIPOS>ATOM
      1 N          43.1836  -14.2798   39.7225 N.am      1 MOL    -0.2945
      2 N          41.3719  -13.8034   41.5224 N.am      1 MOL    -0.2983
      3 N          43.6258  -12.8717   34.7274 N.ar      1 MOL    -0.1750
      4 N          43.3384  -14.0062   34.1367 N.ar      1 MOL    -0.2425
      5 C          44.2694  -14.8325   33.6394 C.ar      1 MOL     0.2725
      6 C          45.5983  -14.4785   33.7502 C.ar      1 MOL     0.0496
      7 C          46.6065  -15.2922   33.2321 C.ar      1 MOL     0.0138
      8 C          47.9261  -14.9080   33.3354 C.ar      1 MOL     0.0008
      9 C          48.1802  -13.7062   33.9617 C.ar      1 MOL     0.0007
     10 C          47.1898  -12.8887   34.4801 C.ar      1 MOL     0.0103
     11 C          45.8874  -13.2793   34.3749 C.ar      1 MOL     0.0106
     12 C          44.9197  -12.4511   34.8769 C.ar      1 MOL     0.0736
     13 C          45.1057  -11.2053   35.6092 C.3       1 MOL     0.0925
     14 C          45.4411  -11.4802   37.0337 C.ar      1 MOL    -0.0406
     15 C          44.8965  -12.6621   37.5669 C.ar      1 MOL     0.0196
     16 C          45.1412  -12.9971   38.8771 C.ar      1 MOL     0.0723
     17 C          44.5793  -14.2324   39.4683 C.2       1 MOL     0.2495
     18 C          42.6043  -15.4556   40.2873 C.3       1 MOL     0.1268
     19 C          41.3367  -15.1674   41.0627 C.3       1 MOL     0.1265
     20 C          41.4054  -12.7561   40.4957 C.3       1 MOL     0.1265
     21 C          42.3720  -13.1212   39.3987 C.3       1 MOL     0.1268
     22 C          41.3759  -13.4684   42.8796 C.2       1 MOL     0.2187
     23 C          41.3597  -14.3936   44.0157 C.3       1 MOL     0.0752
     24 C          42.3875  -15.5021   43.9877 C.3       1 MOL     0.0134
     25 C          40.9645  -15.8158   43.8399 C.3       1 MOL     0.0134
     26 C          45.9066  -12.2284   39.7218 C.ar      1 MOL     0.1355
     27 C          46.4391  -11.0718   39.1988 C.ar      1 MOL     0.0392
     28 C          46.1905  -10.7265   37.8627 C.ar      1 MOL     0.0066
     29 O          44.0135  -15.9249   33.0709 O.2       1 MOL    -0.2658
     30 O          41.3968  -12.2226   43.1843 O.2       1 MOL    -0.2753
     31 O          45.2921  -15.2241   39.7463 O.2       1 MOL    -0.2699
     32 F          46.1199  -12.6041   41.0164 F         1 MOL    -0.2047
     33 H          46.3641  -16.1833   32.7714 H         1 MOL     0.0625
     34 H          48.6885  -15.4926   32.9608 H         1 MOL     0.0618
     35 H          49.1612  -13.3993   34.0485 H         1 MOL     0.0618
     36 H          47.4329  -11.9970   34.9397 H         1 MOL     0.0624
     37 H          44.2032  -10.6321   35.5643 H         1 MOL     0.0377
     38 H          45.9128  -10.6608   35.1650 H         1 MOL     0.0377
     39 H          44.3144  -13.2759   36.9762 H         1 MOL     0.0629
     40 H          43.3162  -15.9043   40.9486 H         1 MOL     0.0480
     41 H          42.3478  -16.1096   39.4795 H         1 MOL     0.0480
     42 H          41.2705  -15.8282   41.9013 H         1 MOL     0.0480
     43 H          40.4845  -15.3164   40.4325 H         1 MOL     0.0480
     44 H          41.7131  -11.8339   40.9425 H         1 MOL     0.0480
     45 H          40.4276  -12.6536   40.0734 H         1 MOL     0.0480
     46 H          43.0216  -12.2888   39.2246 H         1 MOL     0.0480
     47 H          41.7960  -13.3657   38.5317 H         1 MOL     0.0480
     48 H          41.0485  -13.6191   44.6847 H         1 MOL     0.0394
     49 H          42.9055  -15.7745   44.8837 H         1 MOL     0.0273
     50 H          43.2708  -15.7014   43.4176 H         1 MOL     0.0273
     51 H          40.4490  -16.3250   44.6273 H         1 MOL     0.0273
     52 H          40.3891  -16.3467   43.1117 H         1 MOL     0.0273
     53 H          47.0219  -10.4587   39.7910 H         1 MOL     0.0646
     54 H          46.6015   -9.8536   37.4956 H         1 MOL     0.0621
     55 H          42.3916  -14.2643   34.0550 H         1 MOL     0.1921
@<TRIPOS>BOND
     1    1   17 am
     2    1   18 1 
     3    1   21 1 
     4    2   19 1 
     5    2   20 1 
     6    2   22 am
     7    3    4 ar
     8    3   12 ar
     9    4    5 ar
    10    4   55 1 
    11    5    6 ar
    12    5   29 2 
    13    6    7 ar
    14    6   11 ar
    15    7    8 ar
    16    7   33 1 
    17    8    9 ar
    18    8   34 1 
    19    9   10 ar
    20    9   35 1 
    21   10   11 ar
    22   10   36 1 
    23   11   12 ar
    24   12   13 1 
    25   13   14 1 
    26   13   37 1 
    27   13   38 1 
    28   14   15 ar
    29   14   28 ar
    30   15   16 ar
    31   15   39 1 
    32   16   17 1 
    33   16   26 ar
    34   17   31 2 
    35   18   19 1 
    36   18   40 1 
    37   18   41 1 
    38   19   42 1 
    39   19   43 1 
    40   20   21 1 
    41   20   44 1 
    42   20   45 1 
    43   21   46 1 
    44   21   47 1 
    45   22   23 1 
    46   22   30 2 
    47   23   24 1 
    48   23   25 1 
    49   23   48 1 
    50   24   25 1 
    51   24   49 1 
    52   24   50 1 
    53   25   51 1 
    54   25   52 1 
    55   26   27 ar
    56   26   32 1 
    57   27   28 ar
    58   27   53 1 
    59   28   54 1 
@<TRIPOS>SUBSTRUCTURE
1 MOL         1
@<TRIPOS>MOLECULE
query molecule
   55    59     1     0     0
SMALL
NO_CHARGE

@<TRIPOS>ATOM
      1 N          40.4806    5.5405   -5.0339 N.am      1 MOL    -0.2945
      2 N          40.5293    8.0218   -4.2660 N.am      1 MOL    -0.2983
      3 N          36.0466    2.5467  -10.1537 N.ar      1 MOL    -0.1750
      4 N          34.9159    2.8973  -10.7169 N.ar      1 MOL    -0.2425
      5 C          33.7623    3.0080  -10.0431 C.ar      1 MOL     0.2725
      6 C          33.7563    2.7411   -8.6894 C.ar      1 MOL     0.0496
      7 C          32.5793    2.8216   -7.9443 C.ar      1 MOL     0.0138
      8 C          32.5928    2.5298   -6.5974 C.ar      1 MOL     0.0008
      9 C          33.8037    2.1630   -6.0492 C.ar      1 MOL     0.0007
     10 C          34.9791    2.0786   -6.7766 C.ar      1 MOL     0.0103
     11 C          34.9554    2.3720   -8.1082 C.ar      1 MOL     0.0106
     12 C          36.1225    2.2666   -8.8162 C.ar      1 MOL     0.0736
     13 C          37.4501    1.9541   -8.3034 C.3       1 MOL     0.0925
     14 C          38.3300    3.1539   -8.3623 C.ar      1 MOL    -0.0406
     15 C          39.1734    3.3414   -7.2528 C.ar      1 MOL     0.0196
     16 C          40.0154    4.4268   -7.2100 C.ar      1 MOL     0.0723
     17 C          40.9125    4.6535   -6.0545 C.2       1 MOL     0.2495
     18 C          41.3159    5.7807   -3.9018 C.3       1 MOL     0.1268
     19 C          41.0672    7.1331   -3.2691 C.3       1 MOL     0.1265
     20 C          39.2331    7.6598   -4.8499 C.3       1 MOL     0.1265
     21 C          39.1884    6.1872   -5.1673 C.3       1 MOL     0.1268
     22 C          41.1941    9.1813   -4.6754 C.2       1 MOL     0.2187
     23 C          42.4922    9.6672   -4.2002 C.3       1 MOL     0.0752
     24 C          43.1845    8.8134   -3.1620 C.3       1 MOL     0.0134
     25 C          42.6693   10.1360   -2.8007 C.3       1 MOL     0.0134
     26 C          40.0871    5.3657   -8.2117 C.ar      1 MOL     0.1355
     27 C          39.2610    5.1811   -9.2972 C.ar      1 MOL     0.0392
     28 C          38.4000    4.0754   -9.3436 C.ar      1 MOL     0.0066
     29 O          32.6685    3.3440  -10.5652 O.2       1 MOL    -0.2658
     30 O          40.6237    9.9119   -5.5621 O.2       1 MOL    -0.2753
     31 O          42.0272    4.0913   -5.9538 O.2       1 MOL    -0.2699
     32 F          40.9400    6.4274   -8.1219 F         1 MOL    -0.2047
     33 H          31.6974    3.1008   -8.4019 H         1 MOL     0.0625
     34 H          31.7361    2.5827   -6.0259 H         1 MOL     0.0618
     35 H          33.8356    1.9391   -5.0427 H         1 MOL     0.0618
     36 H          35.8605    1.7983   -6.3184 H         1 MOL     0.0624
     37 H          37.8807    1.1723   -8.8937 H         1 MOL     0.0377
     38 H          37.3618    1.6423   -7.2835 H         1 MOL     0.0377
     39 H          39.1599    2.6662   -6.4728 H         1 MOL     0.0629
     40 H          42.3384    5.7310   -4.2140 H         1 MOL     0.0480
     41 H          41.0894    5.0340   -3.1688 H         1 MOL     0.0480
     42 H          41.9874    7.5286   -2.8933 H         1 MOL     0.0480
     43 H          40.3740    7.0327   -2.4599 H         1 MOL     0.0480
     44 H          39.0837    8.2179   -5.7504 H         1 MOL     0.0480
     45 H          38.4606    7.8838   -4.1442 H         1 MOL     0.0480
     46 H          38.8492    6.0649   -6.1748 H         1 MOL     0.0480
     47 H          38.5261    5.7276   -4.4649 H         1 MOL     0.0480
     48 H          42.7197   10.0929   -5.1549 H         1 MOL     0.0394
     49 H          44.2401    8.6482   -3.2223 H         1 MOL     0.0273
     50 H          43.0513    7.8199   -2.7877 H         1 MOL     0.0273
     51 H          43.3526   10.9319   -2.5896 H         1 MOL     0.0273
     52 H          42.0054   10.4971   -2.0443 H         1 MOL     0.0273
     53 H          39.2759    5.8573  -10.0775 H         1 MOL     0.0646
     54 H          37.7907    3.9607  -10.1690 H         1 MOL     0.0621
     55 H          34.9141    3.0893  -11.6828 H         1 MOL     0.1921
@<TRIPOS>BOND
     1    1   17 am
     2    1   18 1 
     3    1   21 1 
     4    2   19 1 
     5    2   20 1 
     6    2   22 am
     7    3    4 ar
     8    3   12 ar
     9    4    5 ar
    10    4   55 1 
    11    5    6 ar
    12    5   29 2 
    13    6    7 ar
    14    6   11 ar
    15    7    8 ar
    16    7   33 1 
    17    8    9 ar
    18    8   34 1 
    19    9   10 ar
    20    9   35 1 
    21   10   11 ar
    22   10   36 1 
    23   11   12 ar
    24   12   13 1 
    25   13   14 1 
    26   13   37 1 
    27   13   38 1 
    28   14   15 ar
    29   14   28 ar
    30   15   16 ar
    31   15   39 1 
    32   16   17 1 
    33   16   26 ar
    34   17   31 2 
    35   18   19 1 
    36   18   40 1 
    37   18   41 1 
    38   19   42 1 
    39   19   43 1 
    40   20   21 1 
    41   20   44 1 
    42   20   45 1 
    43   21   46 1 
    44   21   47 1 
    45   22   23 1 
    46   22   30 2 
    47   23   24 1 
    48   23   25 1 
    49   23   48 1 
    50   24   25 1 
    51   24   49 1 
    52   24   50 1 
    53   25   51 1 
    54   25   52 1 
    55   26   27 ar
    56   26   32 1 
    57   27   28 ar
    58   27   53 1 
    59   28   54 1 
@<TRIPOS>SUBSTRUCTURE
1 MOL         1
@<TRIPOS>MOLECULE
query molecule
   55    59     1     0     0
SMALL
NO_CHARGE

@<TRIPOS>ATOM
      1 N          45.4529   10.4872    5.6544 N.am      1 MOL    -0.2945
      2 N          44.3873    9.1222    7.5908 N.am      1 MOL    -0.2983
      3 N          44.7633    6.1004    4.2151 N.ar      1 MOL    -0.1750
      4 N          44.2567    5.9104    5.4092 N.ar      1 MOL    -0.2425
      5 C          45.0065    5.7508    6.5088 C.ar      1 MOL     0.2725
      6 C          46.3803    5.7865    6.3862 C.ar      1 MOL     0.0496
      7 C          47.2077    5.6059    7.4952 C.ar      1 MOL     0.0138
      8 C          48.5777    5.6242    7.3455 C.ar      1 MOL     0.0008
      9 C          49.0648    5.8241    6.0711 C.ar      1 MOL     0.0007
     10 C          48.2556    6.0043    4.9618 C.ar      1 MOL     0.0103
     11 C          46.9013    5.9870    5.1213 C.ar      1 MOL     0.0106
     12 C          46.1158    6.1491    4.0116 C.ar      1 MOL     0.0736
     13 C          46.5469    6.4319    2.6488 C.3       1 MOL     0.0925
     14 C          46.4594    7.8908    2.3639 C.ar      1 MOL    -0.0406
     15 C          45.9399    8.6811    3.4048 C.ar      1 MOL     0.0196
     16 C          45.8104   10.0384    3.2330 C.ar      1 MOL     0.0723
     17 C          45.2639   10.8965    4.3084 C.2       1 MOL     0.2495
     18 C          44.9445   11.2908    6.7188 C.3       1 MOL     0.1268
     19 C          44.6482   10.4873    7.9668 C.3       1 MOL     0.1265
     20 C          45.4829    8.3881    6.9483 C.3       1 MOL     0.1265
     21 C          46.1653    9.2508    5.9181 C.3       1 MOL     0.1268
     22 C          43.1540    8.5039    7.8164 C.2       1 MOL     0.2187
     23 C          41.9663    9.1042    8.4297 C.3       1 MOL     0.0752
     24 C          41.6320    8.6405    9.8295 C.3       1 MOL     0.0134
     25 C          40.7545    8.2903    8.7103 C.3       1 MOL     0.0134
     26 C          46.1674   10.6898    2.0762 C.ar      1 MOL     0.1355
     27 C          46.6758    9.9153    1.0580 C.ar      1 MOL     0.0392
     28 C          46.8083    8.5299    1.2295 C.ar      1 MOL     0.0066
     29 O          44.5393    5.5688    7.6623 O.2       1 MOL    -0.2658
     30 O          43.0275    7.2799    7.4542 O.2       1 MOL    -0.2753
     31 O          44.6477   11.9597    4.0664 O.2       1 MOL    -0.2699
     32 F          46.0186   12.0409    1.9542 F         1 MOL    -0.2047
     33 H          46.7936    5.4591    8.4290 H         1 MOL     0.0625
     34 H          49.2095    5.4936    8.1499 H         1 MOL     0.0618
     35 H          50.0875    5.8400    5.9369 H         1 MOL     0.0618
     36 H          48.6705    6.1499    4.0280 H         1 MOL     0.0624
     37 H          45.9195    5.9011    1.9635 H         1 MOL     0.0377
     38 H          47.5646    6.1202    2.5369 H         1 MOL     0.0377
     39 H          45.6564    8.2429    4.2948 H         1 MOL     0.0629
     40 H          44.0406   11.7611    6.3912 H         1 MOL     0.0480
     41 H          45.6969   12.0104    6.9683 H         1 MOL     0.0480
     42 H          43.7915   10.8944    8.4613 H         1 MOL     0.0480
     43 H          45.4864   10.5271    8.6311 H         1 MOL     0.0480
     44 H          45.0902    7.5149    6.4709 H         1 MOL     0.0480
     45 H          46.1984    8.1110    7.6942 H         1 MOL     0.0480
     46 H          46.2382    8.6987    5.0043 H         1 MOL     0.0480
     47 H          47.1275    9.5116    6.3044 H         1 MOL     0.0480
     48 H          42.1309   10.0306    7.9206 H         1 MOL     0.0394
     49 H          41.3066    9.3475   10.5640 H         1 MOL     0.0273
     50 H          42.1484    8.0909   10.5885 H         1 MOL     0.0273
     51 H          39.7853    8.7377    8.6360 H         1 MOL     0.0273
     52 H          40.3665    7.3713    8.3256 H         1 MOL     0.0273
     53 H          46.9597   10.3551    0.1680 H         1 MOL     0.0646
     54 H          47.1920    7.9723    0.4501 H         1 MOL     0.0621
     55 H          43.2767    5.8844    5.5029 H         1 MOL     0.1921
@<TRIPOS>BOND
     1    1   17 am
     2    1   18 1 
     3    1   21 1 
     4    2   19 1 
     5    2   20 1 
     6    2   22 am
     7    3    4 ar
     8    3   12 ar
     9    4    5 ar
    10    4   55 1 
    11    5    6 ar
    12    5   29 2 
    13    6    7 ar
    14    6   11 ar
    15    7    8 ar
    16    7   33 1 
    17    8    9 ar
    18    8   34 1 
    19    9   10 ar
    20    9   35 1 
    21   10   11 ar
    22   10   36 1 
    23   11   12 ar
    24   12   13 1 
    25   13   14 1 
    26   13   37 1 
    27   13   38 1 
    28   14   15 ar
    29   14   28 ar
    30   15   16 ar
    31   15   39 1 
    32   16   17 1 
    33   16   26 ar
    34   17   31 2 
    35   18   19 1 
    36   18   40 1 
    37   18   41 1 
    38   19   42 1 
    39   19   43 1 
    40   20   21 1 
    41   20   44 1 
    42   20   45 1 
    43   21   46 1 
    44   21   47 1 
    45   22   23 1 
    46   22   30 2 
    47   23   24 1 
    48   23   25 1 
    49   23   48 1 
    50   24   25 1 
    51   24   49 1 
    52   24   50 1 
    53   25   51 1 
    54   25   52 1 
    55   26   27 ar
    56   26   32 1 
    57   27   28 ar
    58   27   53 1 
    59   28   54 1 
@<TRIPOS>SUBSTRUCTURE
1 MOL         1
@<TRIPOS>MOLECULE
query molecule
   55    59     1     0     0
SMALL
NO_CHARGE

@<TRIPOS>ATOM
      1 N           1.1778    5.6401   -7.3927 N.am      1 MOL    -0.2945
      2 N          -1.0939    4.9431   -8.4424 N.am      1 MOL    -0.2983
      3 N           4.7106    4.4558  -10.7658 N.ar      1 MOL    -0.1750
      4 N           4.2551    3.2266  -10.7542 N.ar      1 MOL    -0.2425
      5 C           4.5727    2.3338   -9.8060 C.ar      1 MOL     0.2725
      6 C           5.4210    2.7198   -8.7886 C.ar      1 MOL     0.0496
      7 C           5.8000    1.8246   -7.7876 C.ar      1 MOL     0.0138
      8 C           6.6654    2.2260   -6.7930 C.ar      1 MOL     0.0008
      9 C           7.1208    3.5264   -6.8476 C.ar      1 MOL     0.0007
     10 C           6.7534    4.4253   -7.8350 C.ar      1 MOL     0.0103
     11 C           5.8945    4.0187   -8.8132 C.ar      1 MOL     0.0106
     12 C           5.5554    4.9144   -9.7915 C.ar      1 MOL     0.0736
     13 C           5.9353    6.3180   -9.8845 C.3       1 MOL     0.0925
     14 C           4.8255    7.1931   -9.4154 C.ar      1 MOL    -0.0406
     15 C           3.9550    6.6152   -8.4743 C.ar      1 MOL     0.0196
     16 C           2.8936    7.3409   -7.9891 C.ar      1 MOL     0.0723
     17 C           1.9578    6.7593   -7.0005 C.2       1 MOL     0.2495
     18 C           0.2680    5.0488   -6.4656 C.3       1 MOL     0.1268
     19 C          -0.8877    4.3484   -7.1475 C.3       1 MOL     0.1265
     20 C           0.0058    4.8342   -9.4072 C.3       1 MOL     0.1265
     21 C           1.3262    5.1190   -8.7390 C.3       1 MOL     0.1268
     22 C          -2.2787    5.6002   -8.7867 C.2       1 MOL     0.2187
     23 C          -3.4536    5.8029   -7.9349 C.3       1 MOL     0.0752
     24 C          -3.6447    4.8060   -6.8142 C.3       1 MOL     0.0134
     25 C          -4.5805    4.8335   -7.9406 C.3       1 MOL     0.0134
     26 C           2.6227    8.6319   -8.3764 C.ar      1 MOL     0.1355
     27 C           3.4755    9.1966   -9.2978 C.ar      1 MOL     0.0392
     28 C           4.5589    8.4586   -9.7956 C.ar      1 MOL     0.0066
     29 O           4.1451    1.1514   -9.7771 O.2       1 MOL    -0.2658
     30 O          -2.3667    6.0859   -9.9706 O.2       1 MOL    -0.2753
     31 O           1.8371    7.2215   -5.8426 O.2       1 MOL    -0.2699
     32 F           1.5547    9.3110   -7.8656 F         1 MOL    -0.2047
     33 H           5.4313    0.8607   -7.7914 H         1 MOL     0.0625
     34 H           6.9595    1.5829   -6.0425 H         1 MOL     0.0618
     35 H           7.7706    3.8468   -6.1133 H         1 MOL     0.0618
     36 H           7.1235    5.3888   -7.8312 H         1 MOL     0.0624
     37 H           6.1637    6.5544  -10.9028 H         1 MOL     0.0377
     38 H           6.7911    6.4860   -9.2643 H         1 MOL     0.0377
     39 H           4.1125    5.6487   -8.1491 H         1 MOL     0.0629
     40 H          -0.1228    5.8176   -5.8318 H         1 MOL     0.0480
     41 H           0.8085    4.3125   -5.9072 H         1 MOL     0.0480
     42 H          -1.7727    4.4570   -6.5566 H         1 MOL     0.0480
     43 H          -0.6666    3.3070   -7.2571 H         1 MOL     0.0480
     44 H          -0.1472    5.5389  -10.1975 H         1 MOL     0.0480
     45 H           0.0256    3.8386   -9.7989 H         1 MOL     0.0480
     46 H           1.8578    5.8389   -9.3257 H         1 MOL     0.0480
     47 H           1.8561    4.1931   -8.6675 H         1 MOL     0.0480
     48 H          -3.3939    6.8649   -8.0482 H         1 MOL     0.0394
     49 H          -3.9601    5.1409   -5.8480 H         1 MOL     0.0273
     50 H          -3.0338    4.0574   -6.3545 H         1 MOL     0.0273
     51 H          -5.5812    5.1814   -7.7905 H         1 MOL     0.0273
     52 H          -4.9328    4.1017   -8.6361 H         1 MOL     0.0273
     53 H           3.3170   10.1641   -9.6219 H         1 MOL     0.0646
     54 H           5.1828    8.9056  -10.4858 H         1 MOL     0.0621
     55 H           3.6489    2.9455  -11.4776 H         1 MOL     0.1921
@<TRIPOS>BOND
     1    1   17 am
     2    1   18 1 
     3    1   21 1 
     4    2   19 1 
     5    2   20 1 
     6    2   22 am
     7    3    4 ar
     8    3   12 ar
     9    4    5 ar
    10    4   55 1 
    11    5    6 ar
    12    5   29 2 
    13    6    7 ar
    14    6   11 ar
    15    7    8 ar
    16    7   33 1 
    17    8    9 ar
    18    8   34 1 
    19    9   10 ar
    20    9   35 1 
    21   10   11 ar
    22   10   36 1 
    23   11   12 ar
    24   12   13 1 
    25   13   14 1 
    26   13   37 1 
    27   13   38 1 
    28   14   15 ar
    29   14   28 ar
    30   15   16 ar
    31   15   39 1 
    32   16   17 1 
    33   16   26 ar
    34   17   31 2 
    35   18   19 1 
    36   18   40 1 
    37   18   41 1 
    38   19   42 1 
    39   19   43 1 
    40   20   21 1 
    41   20   44 1 
    42   20   45 1 
    43   21   46 1 
    44   21   47 1 
    45   22   23 1 
    46   22   30 2 
    47   23   24 1 
    48   23   25 1 
    49   23   48 1 
    50   24   25 1 
    51   24   49 1 
    52   24   50 1 
    53   25   51 1 
    54   25   52 1 
    55   26   27 ar
    56   26   32 1 
    57   27   28 ar
    58   27   53 1 
    59   28   54 1 
@<TRIPOS>SUBSTRUCTURE
1 MOL         1
@<TRIPOS>MOLECULE
query molecule
   55    59     1     0     0
SMALL
NO_CHARGE

@<TRIPOS>ATOM
      1 N           1.3828  -16.2204    2.3174 N.am      1 MOL    -0.2945
      2 N          -0.4855  -17.1821    0.7900 N.am      1 MOL    -0.2983
      3 N           4.8781  -16.9482   -0.3242 N.ar      1 MOL    -0.1750
      4 N           4.4091  -18.1694   -0.4108 N.ar      1 MOL    -0.2425
      5 C           4.8989  -19.1969    0.2972 C.ar      1 MOL     0.2725
      6 C           5.9491  -18.9662    1.1618 C.ar      1 MOL     0.0496
      7 C           6.5098  -20.0038    1.9075 C.ar      1 MOL     0.0138
      8 C           7.5724  -19.7540    2.7490 C.ar      1 MOL     0.0008
      9 C           8.0337  -18.4559    2.8053 C.ar      1 MOL     0.0007
     10 C           7.4872  -17.4167    2.0709 C.ar      1 MOL     0.0103
     11 C           6.4344  -17.6740    1.2431 C.ar      1 MOL     0.0106
     12 C           5.9174  -16.6391    0.5110 C.ar      1 MOL     0.0736
     13 C           6.2991  -15.2338    0.5623 C.3       1 MOL     0.0925
     14 C           5.1360  -14.3890    0.9503 C.ar      1 MOL    -0.0406
     15 C           4.1264  -15.0452    1.6769 C.ar      1 MOL     0.0196
     16 C           3.0075  -14.3516    2.0714 C.ar      1 MOL     0.0723
     17 C           1.9261  -15.0151    2.8342 C.2       1 MOL     0.2495
     18 C           0.3422  -16.8917    3.0270 C.3       1 MOL     0.1268
     19 C          -0.5371  -17.7272    2.1216 C.3       1 MOL     0.1265
     20 C           0.8192  -17.1864    0.1195 C.3       1 MOL     0.1265
     21 C           1.9035  -16.7458    1.0690 C.3       1 MOL     0.1268
     22 C          -1.6137  -16.6659    0.1459 C.2       1 MOL     0.2187
     23 C          -2.9735  -16.5788    0.6848 C.3       1 MOL     0.0752
     24 C          -3.4217  -17.7323    1.5536 C.3       1 MOL     0.0134
     25 C          -4.0353  -17.5197    0.2408 C.3       1 MOL     0.0134
     26 C           2.8084  -13.0201    1.7933 C.ar      1 MOL     0.1355
     27 C           3.7972  -12.3788    1.0820 C.ar      1 MOL     0.0392
     28 C           4.9397  -13.0837    0.6770 C.ar      1 MOL     0.0066
     29 O           4.4618  -20.3742    0.2288 O.2       1 MOL    -0.2658
     30 O          -1.4636  -16.2141   -1.0452 O.2       1 MOL    -0.2753
     31 O           1.4835  -14.5485    3.9089 O.2       1 MOL    -0.2699
     32 F           1.6786  -12.3756    2.2068 F         1 MOL    -0.2047
     33 H           6.1281  -20.9594    1.8296 H         1 MOL     0.0625
     34 H           8.0030  -20.5041    3.3104 H         1 MOL     0.0618
     35 H           8.8293  -18.2476    3.4281 H         1 MOL     0.0618
     36 H           7.8703  -16.4614    2.1485 H         1 MOL     0.0624
     37 H           6.6501  -14.9287   -0.4014 H         1 MOL     0.0377
     38 H           7.0713  -15.1122    1.2933 H         1 MOL     0.0377
     39 H           4.2253  -16.0448    1.9128 H         1 MOL     0.0629
     40 H          -0.2666  -16.1594    3.5157 H         1 MOL     0.0480
     41 H           0.8051  -17.5538    3.7294 H         1 MOL     0.0480
     42 H          -1.5447  -17.7064    2.4802 H         1 MOL     0.0480
     43 H          -0.1903  -18.7397    2.1133 H         1 MOL     0.0480
     44 H           0.7894  -16.5171   -0.7146 H         1 MOL     0.0480
     45 H           1.0349  -18.1806   -0.2124 H         1 MOL     0.0480
     46 H           2.4839  -15.9823    0.5943 H         1 MOL     0.0480
     47 H           2.4928  -17.6063    1.3046 H         1 MOL     0.0480
     48 H          -2.9140  -15.5129    0.7528 H         1 MOL     0.0394
     49 H          -3.9843  -17.5444    2.4443 H         1 MOL     0.0273
     50 H          -2.9310  -18.5510    2.0372 H         1 MOL     0.0273
     51 H          -5.0495  -17.1843    0.1774 H         1 MOL     0.0273
     52 H          -4.1771  -18.1314   -0.6245 H         1 MOL     0.0273
     53 H           3.6972  -11.3783    0.8471 H         1 MOL     0.0646
     54 H           5.6659  -12.5791    0.1445 H         1 MOL     0.0621
     55 H           3.6593  -18.3399   -1.0261 H         1 MOL     0.1921
@<TRIPOS>BOND
     1    1   17 am
     2    1   18 1 
     3    1   21 1 
     4    2   19 1 
     5    2   20 1 
     6    2   22 am
     7    3    4 ar
     8    3   12 ar
     9    4    5 ar
    10    4   55 1 
    11    5    6 ar
    12    5   29 2 
    13    6    7 ar
    14    6   11 ar
    15    7    8 ar
    16    7   33 1 
    17    8    9 ar
    18    8   34 1 
    19    9   10 ar
    20    9   35 1 
    21   10   11 ar
    22   10   36 1 
    23   11   12 ar
    24   12   13 1 
    25   13   14 1 
    26   13   37 1 
    27   13   38 1 
    28   14   15 ar
    29   14   28 ar
    30   15   16 ar
    31   15   39 1 
    32   16   17 1 
    33   16   26 ar
    34   17   31 2 
    35   18   19 1 
    36   18   40 1 
    37   18   41 1 
    38   19   42 1 
    39   19   43 1 
    40   20   21 1 
    41   20   44 1 
    42   20   45 1 
    43   21   46 1 
    44   21   47 1 
    45   22   23 1 
    46   22   30 2 
    47   23   24 1 
    48   23   25 1 
    49   23   48 1 
    50   24   25 1 
    51   24   49 1 
    52   24   50 1 
    53   25   51 1 
    54   25   52 1 
    55   26   27 ar
    56   26   32 1 
    57   27   28 ar
    58   27   53 1 
    59   28   54 1 
@<TRIPOS>SUBSTRUCTURE
1 MOL         1
@<TRIPOS>MOLECULE
query molecule
   55    59     1     0     0
SMALL
NO_CHARGE

@<TRIPOS>ATOM
      1 N          40.9200   10.5799   17.0174 N.am      1 MOL    -0.2945
      2 N          41.3030    9.3009   19.2458 N.am      1 MOL    -0.2983
      3 N          37.6137    7.0705   14.7163 N.ar      1 MOL    -0.1750
      4 N          38.0129    5.9993   15.3581 N.ar      1 MOL    -0.2425
      5 C          39.1215    5.3188   15.0343 C.ar      1 MOL     0.2725
      6 C          39.8855    5.7609   13.9739 C.ar      1 MOL     0.0496
      7 C          41.0378    5.0785   13.5819 C.ar      1 MOL     0.0138
      8 C          41.7738    5.5262   12.5061 C.ar      1 MOL     0.0008
      9 C          41.3143    6.6544   11.8602 C.ar      1 MOL     0.0007
     10 C          40.1726    7.3413   12.2380 C.ar      1 MOL     0.0103
     11 C          39.4529    6.8914   13.3055 C.ar      1 MOL     0.0106
     12 C          38.3173    7.5717   13.6547 C.ar      1 MOL     0.0736
     13 C          37.8023    8.8038   13.0718 C.3       1 MOL     0.0925
     14 C          37.6887    9.8663   14.1088 C.ar      1 MOL    -0.0406
     15 C          38.8923   10.2280   14.7397 C.ar      1 MOL     0.0196
     16 C          38.8880   11.1929   15.7183 C.ar      1 MOL     0.0723
     17 C          40.1378   11.5929   16.4033 C.2       1 MOL     0.2495
     18 C          42.1340   10.9261   17.6831 C.3       1 MOL     0.1268
     19 C          42.5019    9.9441   18.7747 C.3       1 MOL     0.1265
     20 C          40.5579    8.4905   18.2762 C.3       1 MOL     0.1265
     21 C          40.4623    9.2043   16.9524 C.3       1 MOL     0.1268
     22 C          40.8496    9.4292   20.5619 C.2       1 MOL     0.2187
     23 C          41.4707   10.2090   21.6358 C.3       1 MOL     0.0752
     24 C          41.9442   11.5961   21.2646 C.3       1 MOL     0.0134
     25 C          42.9166   10.5521   21.5959 C.3       1 MOL     0.0134
     26 C          37.7496   11.8447   16.1297 C.ar      1 MOL     0.1355
     27 C          36.5720   11.4899   15.5115 C.ar      1 MOL     0.0392
     28 C          36.5727   10.5051   14.5133 C.ar      1 MOL     0.0066
     29 O          39.5212    4.2906   15.6384 O.2       1 MOL    -0.2658
     30 O          39.7759    8.8060   20.8842 O.2       1 MOL    -0.2753
     31 O          40.5193   12.7848   16.4549 O.2       1 MOL    -0.2699
     32 F          37.7973   12.7961   17.1071 F         1 MOL    -0.2047
     33 H          41.3399    4.2377   14.0985 H         1 MOL     0.0625
     34 H          42.6289    5.0392   12.1981 H         1 MOL     0.0618
     35 H          41.8498    7.0056   11.0515 H         1 MOL     0.0618
     36 H          39.8704    8.1814   11.7201 H         1 MOL     0.0624
     37 H          36.8362    8.6175   12.6511 H         1 MOL     0.0377
     38 H          38.4793    9.1357   12.3122 H         1 MOL     0.0377
     39 H          39.7763    9.7700   14.4688 H         1 MOL     0.0629
     40 H          42.0206   11.8969   18.1193 H         1 MOL     0.0480
     41 H          42.9184   10.9089   16.9547 H         1 MOL     0.0480
     42 H          42.9723   10.4643   19.5823 H         1 MOL     0.0480
     43 H          43.1799    9.2111   18.3894 H         1 MOL     0.0480
     44 H          39.5719    8.3109   18.6504 H         1 MOL     0.0480
     45 H          41.0725    7.5635   18.1314 H         1 MOL     0.0480
     46 H          39.4404    9.2005   16.6350 H         1 MOL     0.0480
     47 H          41.0959    8.6882   16.2630 H         1 MOL     0.0480
     48 H          40.8398    9.7586   22.3730 H         1 MOL     0.0394
     49 H          41.7863   12.4134   21.9372 H         1 MOL     0.0273
     50 H          41.7896   12.2517   20.4332 H         1 MOL     0.0273
     51 H          43.4729   10.6153   22.5078 H         1 MOL     0.0273
     52 H          43.7684   10.1406   21.0976 H         1 MOL     0.0273
     53 H          35.6881   11.9495   15.7831 H         1 MOL     0.0646
     54 H          35.6759   10.2575   14.0660 H         1 MOL     0.0621
     55 H          37.4718    5.6793   16.1161 H         1 MOL     0.1921
@<TRIPOS>BOND
     1    1   17 am
     2    1   18 1 
     3    1   21 1 
     4    2   19 1 
     5    2   20 1 
     6    2   22 am
     7    3    4 ar
     8    3   12 ar
     9    4    5 ar
    10    4   55 1 
    11    5    6 ar
    12    5   29 2 
    13    6    7 ar
    14    6   11 ar
    15    7    8 ar
    16    7   33 1 
    17    8    9 ar
    18    8   34 1 
    19    9   10 ar
    20    9   35 1 
    21   10   11 ar
    22   10   36 1 
    23   11   12 ar
    24   12   13 1 
    25   13   14 1 
    26   13   37 1 
    27   13   38 1 
    28   14   15 ar
    29   14   28 ar
    30   15   16 ar
    31   15   39 1 
    32   16   17 1 
    33   16   26 ar
    34   17   31 2 
    35   18   19 1 
    36   18   40 1 
    37   18   41 1 
    38   19   42 1 
    39   19   43 1 
    40   20   21 1 
    41   20   44 1 
    42   20   45 1 
    43   21   46 1 
    44   21   47 1 
    45   22   23 1 
    46   22   30 2 
    47   23   24 1 
    48   23   25 1 
    49   23   48 1 
    50   24   25 1 
    51   24   49 1 
    52   24   50 1 
    53   25   51 1 
    54   25   52 1 
    55   26   27 ar
    56   26   32 1 
    57   27   28 ar
    58   27   53 1 
    59   28   54 1 
@<TRIPOS>SUBSTRUCTURE
1 MOL         1
@<TRIPOS>MOLECULE
query molecule
   55    59     1     0     0
SMALL
NO_CHARGE

@<TRIPOS>ATOM
      1 N          39.2363    4.8854   -5.7845 N.am      1 MOL    -0.2945
      2 N          41.3323    4.9464   -4.2510 N.am      1 MOL    -0.2983
      3 N          33.6426    7.4384   -1.4220 N.ar      1 MOL    -0.1750
      4 N          32.4347    7.8636   -1.1411 N.ar      1 MOL    -0.2425
      5 C          31.9383    9.0218   -1.5984 C.ar      1 MOL     0.2725
      6 C          32.7318    9.8115   -2.4049 C.ar      1 MOL     0.0496
      7 C          32.2719   11.0357   -2.8916 C.ar      1 MOL     0.0138
      8 C          33.0898   11.8179   -3.6781 C.ar      1 MOL     0.0008
      9 C          34.3522   11.3316   -3.9447 C.ar      1 MOL     0.0007
     10 C          34.8218   10.1190   -3.4682 C.ar      1 MOL     0.0103
     11 C          34.0035    9.3514   -2.6929 C.ar      1 MOL     0.0106
     12 C          34.4895    8.1638   -2.2155 C.ar      1 MOL     0.0736
     13 C          35.7784    7.5484   -2.5040 C.3       1 MOL     0.0925
     14 C          35.7077    6.7481   -3.7577 C.ar      1 MOL    -0.0406
     15 C          36.9247    6.5893   -4.4443 C.ar      1 MOL     0.0196
     16 C          36.9592    5.8750   -5.6179 C.ar      1 MOL     0.0723
     17 C          38.2239    5.6932   -6.3654 C.2       1 MOL     0.2495
     18 C          40.4675    4.6828   -6.4773 C.3       1 MOL     0.1268
     19 C          41.6202    4.3814   -5.5437 C.3       1 MOL     0.1265
     20 C          40.1576    4.4250   -3.5438 C.3       1 MOL     0.1265
     21 C          38.9926    4.2794   -4.4887 C.3       1 MOL     0.1268
     22 C          42.1210    5.9475   -3.6766 C.2       1 MOL     0.2187
     23 C          43.3088    6.5768   -4.2598 C.3       1 MOL     0.0752
     24 C          43.0548    7.6633   -5.2802 C.3       1 MOL     0.0134
     25 C          43.6482    6.3901   -5.6950 C.3       1 MOL     0.0134
     26 C          35.8483    5.2894   -6.1774 C.ar      1 MOL     0.1355
     27 C          34.6575    5.4456   -5.5045 C.ar      1 MOL     0.0392
     28 C          34.6186    6.1747   -4.3073 C.ar      1 MOL     0.0066
     29 O          30.7825    9.4457   -1.3412 O.2       1 MOL    -0.2658
     30 O          41.7855    6.3755   -2.5149 O.2       1 MOL    -0.2753
     31 O          38.4224    6.2252   -7.4818 O.2       1 MOL    -0.2699
     32 F          35.9342    4.5900   -7.3462 F         1 MOL    -0.2047
     33 H          31.3178   11.3557   -2.6630 H         1 MOL     0.0625
     34 H          32.7722   12.7258   -4.0497 H         1 MOL     0.0618
     35 H          34.9810   11.9021   -4.5305 H         1 MOL     0.0618
     36 H          35.7766    9.8001   -3.6963 H         1 MOL     0.0624
     37 H          36.0524    6.9076   -1.6921 H         1 MOL     0.0377
     38 H          36.5091    8.3202   -2.6297 H         1 MOL     0.0377
     39 H          37.7893    7.0083   -4.0682 H         1 MOL     0.0629
     40 H          40.6981    5.5686   -7.0320 H         1 MOL     0.0480
     41 H          40.3414    3.8356   -7.1195 H         1 MOL     0.0480
     42 H          42.5192    4.8116   -5.9323 H         1 MOL     0.0480
     43 H          41.7490    3.3225   -5.4567 H         1 MOL     0.0480
     44 H          39.8904    5.1002   -2.7581 H         1 MOL     0.0480
     45 H          40.3954    3.4633   -3.1393 H         1 MOL     0.0480
     46 H          38.1361    4.7475   -4.0499 H         1 MOL     0.0480
     47 H          38.8375    3.2336   -4.6482 H         1 MOL     0.0480
     48 H          43.8593    6.4578   -3.3504 H         1 MOL     0.0394
     49 H          43.6486    8.5536   -5.2731 H         1 MOL     0.0273
     50 H          42.2019    8.2355   -5.5804 H         1 MOL     0.0273
     51 H          44.6739    6.3567   -5.9983 H         1 MOL     0.0273
     52 H          43.4001    5.6561   -6.4318 H         1 MOL     0.0273
     53 H          33.7931    5.0253   -5.8817 H         1 MOL     0.0646
     54 H          33.7128    6.2769   -3.8230 H         1 MOL     0.0621
     55 H          31.8637    7.3040   -0.5662 H         1 MOL     0.1921
@<TRIPOS>BOND
     1    1   17 am
     2    1   18 1 
     3    1   21 1 
     4    2   19 1 
     5    2   20 1 
     6    2   22 am
     7    3    4 ar
     8    3   12 ar
     9    4    5 ar
    10    4   55 1 
    11    5    6 ar
    12    5   29 2 
    13    6    7 ar
    14    6   11 ar
    15    7    8 ar
    16    7   33 1 
    17    8    9 ar
    18    8   34 1 
    19    9   10 ar
    20    9   35 1 
    21   10   11 ar
    22   10   36 1 
    23   11   12 ar
    24   12   13 1 
    25   13   14 1 
    26   13   37 1 
    27   13   38 1 
    28   14   15 ar
    29   14   28 ar
    30   15   16 ar
    31   15   39 1 
    32   16   17 1 
    33   16   26 ar
    34   17   31 2 
    35   18   19 1 
    36   18   40 1 
    37   18   41 1 
    38   19   42 1 
    39   19   43 1 
    40   20   21 1 
    41   20   44 1 
    42   20   45 1 
    43   21   46 1 
    44   21   47 1 
    45   22   23 1 
    46   22   30 2 
    47   23   24 1 
    48   23   25 1 
    49   23   48 1 
    50   24   25 1 
    51   24   49 1 
    52   24   50 1 
    53   25   51 1 
    54   25   52 1 
    55   26   27 ar
    56   26   32 1 
    57   27   28 ar
    58   27   53 1 
    59   28   54 1 
@<TRIPOS>SUBSTRUCTURE
1 MOL         1
@<TRIPOS>MOLECULE
query molecule
   55    59     1     0     0
SMALL
NO_CHARGE

@<TRIPOS>ATOM
      1 N          43.4855    5.9039   37.3425 N.am      1 MOL    -0.2945
      2 N          43.8898    4.3177   39.3596 N.am      1 MOL    -0.2983
      3 N          38.8527   10.6926   37.7719 N.ar      1 MOL    -0.1750
      4 N          37.7866   10.2968   38.4240 N.ar      1 MOL    -0.2425
      5 C          37.0296    9.2609   38.0355 C.ar      1 MOL     0.2725
      6 C          37.3833    8.5722   36.8934 C.ar      1 MOL     0.0496
      7 C          36.6191    7.4991   36.4333 C.ar      1 MOL     0.0138
      8 C          36.9794    6.8393   35.2782 C.ar      1 MOL     0.0008
      9 C          38.1059    7.2924   34.6247 C.ar      1 MOL     0.0007
     10 C          38.8732    8.3560   35.0695 C.ar      1 MOL     0.0103
     11 C          38.5095    9.0004   36.2151 C.ar      1 MOL     0.0106
     12 C          39.2688   10.0609   36.6313 C.ar      1 MOL     0.0736
     13 C          40.5047   10.5577   36.0406 C.3       1 MOL     0.0925
     14 C          41.6821   10.1059   36.8323 C.ar      1 MOL    -0.0406
     15 C          42.2476    8.8821   36.4319 C.ar      1 MOL     0.0196
     16 C          43.3320    8.3766   37.1081 C.ar      1 MOL     0.0723
     17 C          43.9473    7.0895   36.7130 C.2       1 MOL     0.2495
     18 C          44.0512    4.6435   36.9844 C.3       1 MOL     0.1268
     19 C          43.9594    3.6243   38.0997 C.3       1 MOL     0.1265
     20 C          42.7284    5.1870   39.5773 C.3       1 MOL     0.1265
     21 C          42.4397    6.0031   38.3436 C.3       1 MOL     0.1268
     22 C          44.8726    4.1851   40.3449 C.2       1 MOL     0.2187
     23 C          46.0897    3.3724   40.2718 C.3       1 MOL     0.0752
     24 C          47.3981    4.1167   40.4147 C.3       1 MOL     0.0134
     25 C          47.0348    3.5090   39.1326 C.3       1 MOL     0.0134
     26 C          43.9147    9.0100   38.1801 C.ar      1 MOL     0.1355
     27 C          43.3603   10.2078   38.5712 C.ar      1 MOL     0.0392
     28 C          42.2532   10.7260   37.8841 C.ar      1 MOL     0.0066
     29 O          36.0048    8.8657   38.6480 O.2       1 MOL    -0.2658
     30 O          44.7108    4.8372   41.4375 O.2       1 MOL    -0.2753
     31 O          44.8520    7.0187   35.8497 O.2       1 MOL    -0.2699
     32 F          44.9909    8.4662   38.8195 F         1 MOL    -0.2047
     33 H          35.7835    7.1984   36.9589 H         1 MOL     0.0625
     34 H          36.4310    6.0435   34.9188 H         1 MOL     0.0618
     35 H          38.3923    6.8132   33.7572 H         1 MOL     0.0618
     36 H          39.7082    8.6569   34.5427 H         1 MOL     0.0624
     37 H          40.4816   11.6274   36.0230 H         1 MOL     0.0377
     38 H          40.5911   10.1727   35.0458 H         1 MOL     0.0377
     39 H          41.8493    8.3650   35.6328 H         1 MOL     0.0629
     40 H          45.0823    4.7888   36.7368 H         1 MOL     0.0480
     41 H          43.4943    4.2639   36.1526 H         1 MOL     0.0480
     42 H          44.8238    2.9944   38.0829 H         1 MOL     0.0480
     43 H          43.0852    3.0210   37.9684 H         1 MOL     0.0480
     44 H          42.9296    5.8463   40.3955 H         1 MOL     0.0480
     45 H          41.8758    4.5780   39.7948 H         1 MOL     0.0480
     46 H          42.3382    7.0295   38.6289 H         1 MOL     0.0480
     47 H          41.5418    5.6196   37.9080 H         1 MOL     0.0480
     48 H          45.5997    2.5378   40.7275 H         1 MOL     0.0394
     49 H          48.1905    3.6985   41.0000 H         1 MOL     0.0273
     50 H          47.6798    5.0977   40.7357 H         1 MOL     0.0273
     51 H          47.5704    2.6518   38.7811 H         1 MOL     0.0273
     52 H          46.9499    3.8740   38.1312 H         1 MOL     0.0273
     53 H          43.7603   10.7245   39.3707 H         1 MOL     0.0646
     54 H          41.8566   11.6258   38.1980 H         1 MOL     0.0621
     55 H          37.5295   10.7844   39.2401 H         1 MOL     0.1921
@<TRIPOS>BOND
     1    1   17 am
     2    1   18 1 
     3    1   21 1 
     4    2   19 1 
     5    2   20 1 
     6    2   22 am
     7    3    4 ar
     8    3   12 ar
     9    4    5 ar
    10    4   55 1 
    11    5    6 ar
    12    5   29 2 
    13    6    7 ar
    14    6   11 ar
    15    7    8 ar
    16    7   33 1 
    17    8    9 ar
    18    8   34 1 
    19    9   10 ar
    20    9   35 1 
    21   10   11 ar
    22   10   36 1 
    23   11   12 ar
    24   12   13 1 
    25   13   14 1 
    26   13   37 1 
    27   13   38 1 
    28   14   15 ar
    29   14   28 ar
    30   15   16 ar
    31   15   39 1 
    32   16   17 1 
    33   16   26 ar
    34   17   31 2 
    35   18   19 1 
    36   18   40 1 
    37   18   41 1 
    38   19   42 1 
    39   19   43 1 
    40   20   21 1 
    41   20   44 1 
    42   20   45 1 
    43   21   46 1 
    44   21   47 1 
    45   22   23 1 
    46   22   30 2 
    47   23   24 1 
    48   23   25 1 
    49   23   48 1 
    50   24   25 1 
    51   24   49 1 
    52   24   50 1 
    53   25   51 1 
    54   25   52 1 
    55   26   27 ar
    56   26   32 1 
    57   27   28 ar
    58   27   53 1 
    59   28   54 1 
@<TRIPOS>SUBSTRUCTURE
1 MOL         1
@<TRIPOS>MOLECULE
query molecule
   55    59     1     0     0
SMALL
NO_CHARGE

@<TRIPOS>ATOM
      1 N          44.7949    3.1702    3.1786 N.am      1 MOL    -0.2945
      2 N          44.3861    4.4965    0.9826 N.am      1 MOL    -0.2983
      3 N          47.1493    3.4327    8.1918 N.ar      1 MOL    -0.1750
      4 N          47.8309    2.4372    8.7045 N.ar      1 MOL    -0.2425
      5 C          47.6255    1.9662    9.9426 C.ar      1 MOL     0.2725
      6 C          46.6503    2.5531   10.7225 C.ar      1 MOL     0.0496
      7 C          46.4089    2.1150   12.0252 C.ar      1 MOL     0.0138
      8 C          45.4442    2.7304   12.7935 C.ar      1 MOL     0.0008
      9 C          44.7549    3.7743   12.2136 C.ar      1 MOL     0.0007
     10 C          44.9842    4.2196   10.9225 C.ar      1 MOL     0.0103
     11 C          45.9392    3.6022   10.1698 C.ar      1 MOL     0.0106
     12 C          46.1654    4.0662    8.9017 C.ar      1 MOL     0.0736
     13 C          45.4396    5.1124    8.1934 C.3       1 MOL     0.0925
     14 C          44.3278    4.5287    7.3930 C.ar      1 MOL    -0.0406
     15 C          44.7179    3.8071    6.2507 C.ar      1 MOL     0.0196
     16 C          43.7629    3.2391    5.4420 C.ar      1 MOL     0.0723
     17 C          44.1417    2.4767    4.2309 C.2       1 MOL     0.2495
     18 C          45.1798    2.4680    1.9972 C.3       1 MOL     0.1268
     19 C          45.2571    3.3676    0.7823 C.3       1 MOL     0.1265
     20 C          44.7000    5.3880    2.1045 C.3       1 MOL     0.1265
     21 C          45.0582    4.5891    3.3311 C.3       1 MOL     0.1268
     22 C          43.2853    4.7508    0.1594 C.2       1 MOL     0.2187
     23 C          42.8365    3.9515   -0.9837 C.3       1 MOL     0.0752
     24 C          43.8549    3.7210   -2.0773 C.3       1 MOL     0.0134
     25 C          42.6817    4.5605   -2.3309 C.3       1 MOL     0.0134
     26 C          42.4135    3.3343    5.6869 C.ar      1 MOL     0.1355
     27 C          42.0328    4.0408    6.8053 C.ar      1 MOL     0.0392
     28 C          43.0046    4.6225    7.6321 C.ar      1 MOL     0.0066
     29 O          48.2678    1.0119   10.4512 O.2       1 MOL    -0.2658
     30 O          42.5788    5.7901    0.4158 O.2       1 MOL    -0.2753
     31 O          43.9050    1.2526    4.1110 O.2       1 MOL    -0.2699
     32 F          41.5036    2.7526    4.8524 F         1 MOL    -0.2047
     33 H          46.9528    1.3289   12.4139 H         1 MOL     0.0625
     34 H          45.2475    2.4242   13.7583 H         1 MOL     0.0618
     35 H          44.0294    4.2496   12.7720 H         1 MOL     0.0618
     36 H          44.4406    5.0067   10.5348 H         1 MOL     0.0624
     37 H          46.1122    5.6268    7.5391 H         1 MOL     0.0377
     38 H          45.0273    5.7923    8.9098 H         1 MOL     0.0377
     39 H          45.7184    3.7047    6.0202 H         1 MOL     0.0629
     40 H          44.4620    1.6971    1.8078 H         1 MOL     0.0480
     41 H          46.1576    2.0656    2.1645 H         1 MOL     0.0480
     42 H          44.9491    2.8251   -0.0866 H         1 MOL     0.0480
     43 H          46.2634    3.7052    0.6447 H         1 MOL     0.0480
     44 H          43.8478    5.9982    2.3192 H         1 MOL     0.0480
     45 H          45.5350    6.0011    1.8366 H         1 MOL     0.0480
     46 H          44.4842    4.9548    4.1569 H         1 MOL     0.0480
     47 H          46.1087    4.7043    3.4936 H         1 MOL     0.0480
     48 H          42.1948    3.3627   -0.3625 H         1 MOL     0.0394
     49 H          43.9351    2.7593   -2.5399 H         1 MOL     0.0273
     50 H          44.9133    3.8509   -2.1658 H         1 MOL     0.0273
     51 H          41.9113    4.2113   -2.9863 H         1 MOL     0.0273
     52 H          42.5415    5.5586   -2.6878 H         1 MOL     0.0273
     53 H          41.0313    4.1421    7.0352 H         1 MOL     0.0646
     54 H          42.6921    5.1473    8.4643 H         1 MOL     0.0621
     55 H          48.5281    2.0142    8.1524 H         1 MOL     0.1921
@<TRIPOS>BOND
     1    1   17 am
     2    1   18 1 
     3    1   21 1 
     4    2   19 1 
     5    2   20 1 
     6    2   22 am
     7    3    4 ar
     8    3   12 ar
     9    4    5 ar
    10    4   55 1 
    11    5    6 ar
    12    5   29 2 
    13    6    7 ar
    14    6   11 ar
    15    7    8 ar
    16    7   33 1 
    17    8    9 ar
    18    8   34 1 
    19    9   10 ar
    20    9   35 1 
    21   10   11 ar
    22   10   36 1 
    23   11   12 ar
    24   12   13 1 
    25   13   14 1 
    26   13   37 1 
    27   13   38 1 
    28   14   15 ar
    29   14   28 ar
    30   15   16 ar
    31   15   39 1 
    32   16   17 1 
    33   16   26 ar
    34   17   31 2 
    35   18   19 1 
    36   18   40 1 
    37   18   41 1 
    38   19   42 1 
    39   19   43 1 
    40   20   21 1 
    41   20   44 1 
    42   20   45 1 
    43   21   46 1 
    44   21   47 1 
    45   22   23 1 
    46   22   30 2 
    47   23   24 1 
    48   23   25 1 
    49   23   48 1 
    50   24   25 1 
    51   24   49 1 
    52   24   50 1 
    53   25   51 1 
    54   25   52 1 
    55   26   27 ar
    56   26   32 1 
    57   27   28 ar
    58   27   53 1 
    59   28   54 1 
@<TRIPOS>SUBSTRUCTURE
1 MOL         1
@<TRIPOS>MOLECULE
query molecule
   55    59     1     0     0
SMALL
NO_CHARGE

@<TRIPOS>ATOM
      1 N          -0.8423   10.7496   -4.4200 N.am      1 MOL    -0.2945
      2 N          -2.2186   10.0312   -2.3372 N.am      1 MOL    -0.2983
      3 N          -3.6867    7.4527  -10.3776 N.ar      1 MOL    -0.1750
      4 N          -3.5094    6.8287  -11.5168 N.ar      1 MOL    -0.2425
      5 C          -2.3965    6.1431  -11.8140 C.ar      1 MOL     0.2725
      6 C          -1.3824    6.0870  -10.8801 C.ar      1 MOL     0.0496
      7 C          -0.1950    5.4041  -11.1459 C.ar      1 MOL     0.0138
      8 C           0.8131    5.3793  -10.2063 C.ar      1 MOL     0.0008
      9 C           0.5831    6.0517   -9.0247 C.ar      1 MOL     0.0007
     10 C          -0.5899    6.7336   -8.7477 C.ar      1 MOL     0.0103
     11 C          -1.5822    6.7498   -9.6831 C.ar      1 MOL     0.0106
     12 C          -2.7284    7.4433   -9.4005 C.ar      1 MOL     0.0736
     13 C          -3.0768    8.1191   -8.1575 C.3       1 MOL     0.0925
     14 C          -2.5227    9.5011   -8.1397 C.ar      1 MOL    -0.0406
     15 C          -1.9570    9.9110   -6.9192 C.ar      1 MOL     0.0196
     16 C          -1.4285   11.1742   -6.8009 C.ar      1 MOL     0.0723
     17 C          -0.8293   11.6362   -5.5286 C.2       1 MOL     0.2495
     18 C          -0.2697   11.1576   -3.1780 C.3       1 MOL     0.1268
     19 C          -0.8850   10.4487   -1.9906 C.3       1 MOL     0.1265
     20 C          -2.3493    9.0653   -3.4335 C.3       1 MOL     0.1265
     21 C          -1.4424    9.4379   -4.5781 C.3       1 MOL     0.1268
     22 C          -3.3518   10.5114   -1.6744 C.2       1 MOL     0.2187
     23 C          -3.3859   11.4825   -0.5776 C.3       1 MOL     0.0752
     24 C          -2.9953   10.9613    0.7869 C.3       1 MOL     0.0134
     25 C          -4.3789   11.3619    0.5219 C.3       1 MOL     0.0134
     26 C          -1.4174   12.0864   -7.8293 C.ar      1 MOL     0.1355
     27 C          -1.9714   11.6841   -9.0235 C.ar      1 MOL     0.0392
     28 C          -2.5124   10.3963   -9.1474 C.ar      1 MOL     0.0066
     29 O          -2.2086    5.5374  -12.9000 O.2       1 MOL    -0.2658
     30 O          -4.4943   10.0675   -2.0524 O.2       1 MOL    -0.2753
     31 O          -0.3177   12.7728   -5.4050 O.2       1 MOL    -0.2699
     32 F          -0.8808   13.3301   -7.6616 F         1 MOL    -0.2047
     33 H          -0.0714    4.9163  -12.0468 H         1 MOL     0.0625
     34 H           1.6991    4.8811  -10.3796 H         1 MOL     0.0618
     35 H           1.3254    6.0467   -8.3083 H         1 MOL     0.0618
     36 H          -0.7124    7.2223   -7.8468 H         1 MOL     0.0624
     37 H          -2.6757    7.5682   -7.3325 H         1 MOL     0.0377
     38 H          -4.1429    8.1752   -8.0822 H         1 MOL     0.0377
     39 H          -1.9391    9.2654   -6.1146 H         1 MOL     0.0629
     40 H          -0.4175   12.2114   -3.0625 H         1 MOL     0.0480
     41 H           0.7701   10.9044   -3.2028 H         1 MOL     0.0480
     42 H          -0.9224   11.1148   -1.1543 H         1 MOL     0.0480
     43 H          -0.2931    9.5955   -1.7312 H         1 MOL     0.0480
     44 H          -3.3626    9.0564   -3.7768 H         1 MOL     0.0480
     45 H          -2.0721    8.0957   -3.0759 H         1 MOL     0.0480
     46 H          -2.0139    9.4320   -5.4828 H         1 MOL     0.0480
     47 H          -0.6478    8.7230   -4.6037 H         1 MOL     0.0480
     48 H          -3.1026   12.2806   -1.2312 H         1 MOL     0.0394
     49 H          -2.3800   11.5549    1.4306 H         1 MOL     0.0273
     50 H          -2.5193   10.0747    1.1509 H         1 MOL     0.0273
     51 H          -4.7728   12.2445    0.9811 H         1 MOL     0.0273
     52 H          -5.3277   10.8792    0.6218 H         1 MOL     0.0273
     53 H          -1.9881   12.3310   -9.8281 H         1 MOL     0.0646
     54 H          -2.9220   10.1200  -10.0537 H         1 MOL     0.0621
     55 H          -4.2299    6.8650  -12.1871 H         1 MOL     0.1921
@<TRIPOS>BOND
     1    1   17 am
     2    1   18 1 
     3    1   21 1 
     4    2   19 1 
     5    2   20 1 
     6    2   22 am
     7    3    4 ar
     8    3   12 ar
     9    4    5 ar
    10    4   55 1 
    11    5    6 ar
    12    5   29 2 
    13    6    7 ar
    14    6   11 ar
    15    7    8 ar
    16    7   33 1 
    17    8    9 ar
    18    8   34 1 
    19    9   10 ar
    20    9   35 1 
    21   10   11 ar
    22   10   36 1 
    23   11   12 ar
    24   12   13 1 
    25   13   14 1 
    26   13   37 1 
    27   13   38 1 
    28   14   15 ar
    29   14   28 ar
    30   15   16 ar
    31   15   39 1 
    32   16   17 1 
    33   16   26 ar
    34   17   31 2 
    35   18   19 1 
    36   18   40 1 
    37   18   41 1 
    38   19   42 1 
    39   19   43 1 
    40   20   21 1 
    41   20   44 1 
    42   20   45 1 
    43   21   46 1 
    44   21   47 1 
    45   22   23 1 
    46   22   30 2 
    47   23   24 1 
    48   23   25 1 
    49   23   48 1 
    50   24   25 1 
    51   24   49 1 
    52   24   50 1 
    53   25   51 1 
    54   25   52 1 
    55   26   27 ar
    56   26   32 1 
    57   27   28 ar
    58   27   53 1 
    59   28   54 1 
@<TRIPOS>SUBSTRUCTURE
1 MOL         1
@<TRIPOS>MOLECULE
query molecule
   55    59     1     0     0
SMALL
NO_CHARGE

@<TRIPOS>ATOM
      1 N          -4.5222    5.9958    2.3027 N.am      1 MOL    -0.2945
      2 N          -3.4428    4.6246    4.2270 N.am      1 MOL    -0.2983
      3 N          -2.5046    3.9282   -3.2331 N.ar      1 MOL    -0.1750
      4 N          -3.1637    2.8686   -3.6350 N.ar      1 MOL    -0.2425
      5 C          -2.9331    1.6360   -3.1612 C.ar      1 MOL     0.2725
      6 C          -1.9551    1.4656   -2.2031 C.ar      1 MOL     0.0496
      7 C          -1.6607    0.2016   -1.6906 C.ar      1 MOL     0.0138
      8 C          -0.6648    0.0522   -0.7496 C.ar      1 MOL     0.0008
      9 C           0.0030    1.1936   -0.3594 C.ar      1 MOL     0.0007
     10 C          -0.2783    2.4540   -0.8597 C.ar      1 MOL     0.0103
     11 C          -1.2673    2.5912   -1.7885 C.ar      1 MOL     0.0106
     12 C          -1.5207    3.8415   -2.2857 C.ar      1 MOL     0.0736
     13 C          -0.9120    5.1016   -1.8799 C.3       1 MOL     0.0925
     14 C          -1.9563    6.0755   -1.4576 C.ar      1 MOL    -0.0406
     15 C          -2.8799    5.6001   -0.5097 C.ar      1 MOL     0.0196
     16 C          -3.8877    6.4222   -0.0655 C.ar      1 MOL     0.0723
     17 C          -4.8773    5.9498    0.9291 C.2       1 MOL     0.2495
     18 C          -5.4516    5.5535    3.2914 C.3       1 MOL     0.1268
     19 C          -4.7735    5.0666    4.5539 C.3       1 MOL     0.1265
     20 C          -2.5192    5.6321    3.6945 C.3       1 MOL     0.1265
     21 C          -3.2110    6.4962    2.6717 C.3       1 MOL     0.1268
     22 C          -3.0278    3.3009    4.3996 C.2       1 MOL     0.2187
     23 C          -3.8314    2.1839    4.9034 C.3       1 MOL     0.0752
     24 C          -3.0703    1.0673    5.5816 C.3       1 MOL     0.0134
     25 C          -3.7297    0.8313    4.2952 C.3       1 MOL     0.0134
     26 C          -4.0534    7.7155   -0.5012 C.ar      1 MOL     0.1355
     27 C          -3.1487    8.1797   -1.4291 C.ar      1 MOL     0.0392
     28 C          -2.1198    7.3433   -1.8852 C.ar      1 MOL     0.0066
     29 O          -3.5553    0.6082   -3.5331 O.2       1 MOL    -0.2658
     30 O          -1.8174    3.0120    4.0886 O.2       1 MOL    -0.2753
     31 O          -6.0044    5.5168    0.5962 O.2       1 MOL    -0.2699
     32 F          -5.0717    8.4924   -0.0298 F         1 MOL    -0.2047
     33 H          -2.1898   -0.6226   -2.0159 H         1 MOL     0.0625
     34 H          -0.4296   -0.8714   -0.3559 H         1 MOL     0.0618
     35 H           0.7531    1.1037    0.3431 H         1 MOL     0.0618
     36 H           0.2521    3.2777   -0.5347 H         1 MOL     0.0624
     37 H          -0.3630    5.5088   -2.7031 H         1 MOL     0.0377
     38 H          -0.2580    4.9186   -1.0528 H         1 MOL     0.0377
     39 H          -2.8014    4.6367   -0.1489 H         1 MOL     0.0629
     40 H          -6.0311    4.7519    2.8824 H         1 MOL     0.0480
     41 H          -6.0650    6.3902    3.5556 H         1 MOL     0.0480
     42 H          -5.3305    4.2539    4.9704 H         1 MOL     0.0480
     43 H          -4.7268    5.8610    5.2697 H         1 MOL     0.0480
     44 H          -1.6879    5.1404    3.2343 H         1 MOL     0.0480
     45 H          -2.1823    6.2526    4.4985 H         1 MOL     0.0480
     46 H          -2.6029    6.5381    1.7922 H         1 MOL     0.0480
     47 H          -3.3482    7.4626    3.1081 H         1 MOL     0.0480
     48 H          -4.6525    2.8321    5.1270 H         1 MOL     0.0394
     49 H          -3.4585    0.6190    6.4724 H         1 MOL     0.0273
     50 H          -2.0751    0.9481    5.9563 H         1 MOL     0.0273
     51 H          -4.5947    0.2030    4.2500 H         1 MOL     0.0273
     52 H          -3.4039    0.4616    3.3464 H         1 MOL     0.0273
     53 H          -3.2281    9.1444   -1.7889 H         1 MOL     0.0646
     54 H          -1.4551    7.7162   -2.5814 H         1 MOL     0.0621
     55 H          -3.8632    2.9841   -4.3185 H         1 MOL     0.1921
@<TRIPOS>BOND
     1    1   17 am
     2    1   18 1 
     3    1   21 1 
     4    2   19 1 
     5    2   20 1 
     6    2   22 am
     7    3    4 ar
     8    3   12 ar
     9    4    5 ar
    10    4   55 1 
    11    5    6 ar
    12    5   29 2 
    13    6    7 ar
    14    6   11 ar
    15    7    8 ar
    16    7   33 1 
    17    8    9 ar
    18    8   34 1 
    19    9   10 ar
    20    9   35 1 
    21   10   11 ar
    22   10   36 1 
    23   11   12 ar
    24   12   13 1 
    25   13   14 1 
    26   13   37 1 
    27   13   38 1 
    28   14   15 ar
    29   14   28 ar
    30   15   16 ar
    31   15   39 1 
    32   16   17 1 
    33   16   26 ar
    34   17   31 2 
    35   18   19 1 
    36   18   40 1 
    37   18   41 1 
    38   19   42 1 
    39   19   43 1 
    40   20   21 1 
    41   20   44 1 
    42   20   45 1 
    43   21   46 1 
    44   21   47 1 
    45   22   23 1 
    46   22   30 2 
    47   23   24 1 
    48   23   25 1 
    49   23   48 1 
    50   24   25 1 
    51   24   49 1 
    52   24   50 1 
    53   25   51 1 
    54   25   52 1 
    55   26   27 ar
    56   26   32 1 
    57   27   28 ar
    58   27   53 1 
    59   28   54 1 
@<TRIPOS>SUBSTRUCTURE
1 MOL         1
@<TRIPOS>MOLECULE
query molecule
   55    59     1     0     0
SMALL
NO_CHARGE

@<TRIPOS>ATOM
      1 N          -3.5618   -8.5168   -4.3951 N.am      1 MOL    -0.2945
      2 N          -1.4783   -7.1265   -3.7063 N.am      1 MOL    -0.2983
      3 N         -10.7735   -6.6364   -2.3710 N.ar      1 MOL    -0.1750
      4 N         -12.0183   -6.8732   -2.0350 N.ar      1 MOL    -0.2425
      5 C         -12.3951   -7.1948   -0.7894 C.ar      1 MOL     0.2725
      6 C         -11.4308   -7.2834    0.1935 C.ar      1 MOL     0.0496
      7 C         -11.7656   -7.6341    1.5019 C.ar      1 MOL     0.0138
      8 C         -10.7828   -7.7374    2.4626 C.ar      1 MOL     0.0008
      9 C          -9.4881   -7.4822    2.0627 C.ar      1 MOL     0.0007
     10 C          -9.1415   -7.1337    0.7680 C.ar      1 MOL     0.0103
     11 C         -10.1220   -7.0317   -0.1745 C.ar      1 MOL     0.0106
     12 C          -9.7601   -6.7034   -1.4535 C.ar      1 MOL     0.0736
     13 C          -8.4326   -6.3533   -1.9414 C.3       1 MOL     0.0925
     14 C          -7.6499   -7.5804   -2.2560 C.ar      1 MOL    -0.0406
     15 C          -6.7026   -7.4468   -3.2868 C.ar      1 MOL     0.0196
     16 C          -5.9382   -8.5273   -3.6568 C.ar      1 MOL     0.0723
     17 C          -4.9353   -8.4193   -4.7402 C.2       1 MOL     0.2495
     18 C          -2.5657   -8.4223   -5.4129 C.3       1 MOL     0.1268
     19 C          -1.2400   -7.9152   -4.8871 C.3       1 MOL     0.1265
     20 C          -2.0762   -7.8140   -2.5566 C.3       1 MOL     0.1265
     21 C          -3.2005   -8.7125   -3.0034 C.3       1 MOL     0.1268
     22 C          -1.1638   -5.7662   -3.6360 C.2       1 MOL     0.2187
     23 C          -0.5799   -4.9407   -4.6965 C.3       1 MOL     0.0752
     24 C           0.7709   -5.3791   -5.2155 C.3       1 MOL     0.0134
     25 C           0.6452   -4.1347   -4.4533 C.3       1 MOL     0.0134
     26 C          -6.0441   -9.7640   -3.0656 C.ar      1 MOL     0.1355
     27 C          -6.9717   -9.8936   -2.0568 C.ar      1 MOL     0.0392
     28 C          -7.7540   -8.7934   -1.6775 C.ar      1 MOL     0.0066
     29 O         -13.5835   -7.4242   -0.4476 O.2       1 MOL    -0.2658
     30 O          -1.4052   -5.1565   -2.5336 O.2       1 MOL    -0.2753
     31 O          -5.2610   -8.2468   -5.9373 O.2       1 MOL    -0.2699
     32 F          -5.2620  -10.8069   -3.4697 F         1 MOL    -0.2047
     33 H         -12.7505   -7.8158    1.7511 H         1 MOL     0.0625
     34 H         -11.0056   -7.9945    3.4361 H         1 MOL     0.0618
     35 H          -8.7370   -7.5553    2.7660 H         1 MOL     0.0618
     36 H          -8.1562   -6.9532    0.5193 H         1 MOL     0.0624
     37 H          -7.9183   -5.7904   -1.1906 H         1 MOL     0.0377
     38 H          -8.5350   -5.7725   -2.8345 H         1 MOL     0.0377
     39 H          -6.5820   -6.5401   -3.7642 H         1 MOL     0.0629
     40 H          -2.9132   -7.7514   -6.1709 H         1 MOL     0.0480
     41 H          -2.4047   -9.4073   -5.8000 H         1 MOL     0.0480
     42 H          -0.7646   -7.3128   -5.6323 H         1 MOL     0.0480
     43 H          -0.6041   -8.7425   -4.6489 H         1 MOL     0.0480
     44 H          -2.4586   -7.0872   -1.8708 H         1 MOL     0.0480
     45 H          -1.3260   -8.4110   -2.0815 H         1 MOL     0.0480
     46 H          -4.0596   -8.5120   -2.3975 H         1 MOL     0.0480
     47 H          -2.8654   -9.7224   -2.8983 H         1 MOL     0.0480
     48 H          -1.5456   -4.7124   -5.0962 H         1 MOL     0.0394
     49 H           0.9777   -5.3455   -6.2649 H         1 MOL     0.0273
     50 H           1.3645   -6.2650   -5.1277 H         1 MOL     0.0273
     51 H           0.7693   -3.1944   -4.9487 H         1 MOL     0.0273
     52 H           1.1207   -3.7438   -3.5791 H         1 MOL     0.0273
     53 H          -7.0910  -10.8014   -1.5795 H         1 MOL     0.0646
     54 H          -8.4424   -8.9178   -0.9184 H         1 MOL     0.0621
     55 H         -12.7110   -6.8111   -2.7323 H         1 MOL     0.1921
@<TRIPOS>BOND
     1    1   17 am
     2    1   18 1 
     3    1   21 1 
     4    2   19 1 
     5    2   20 1 
     6    2   22 am
     7    3    4 ar
     8    3   12 ar
     9    4    5 ar
    10    4   55 1 
    11    5    6 ar
    12    5   29 2 
    13    6    7 ar
    14    6   11 ar
    15    7    8 ar
    16    7   33 1 
    17    8    9 ar
    18    8   34 1 
    19    9   10 ar
    20    9   35 1 
    21   10   11 ar
    22   10   36 1 
    23   11   12 ar
    24   12   13 1 
    25   13   14 1 
    26   13   37 1 
    27   13   38 1 
    28   14   15 ar
    29   14   28 ar
    30   15   16 ar
    31   15   39 1 
    32   16   17 1 
    33   16   26 ar
    34   17   31 2 
    35   18   19 1 
    36   18   40 1 
    37   18   41 1 
    38   19   42 1 
    39   19   43 1 
    40   20   21 1 
    41   20   44 1 
    42   20   45 1 
    43   21   46 1 
    44   21   47 1 
    45   22   23 1 
    46   22   30 2 
    47   23   24 1 
    48   23   25 1 
    49   23   48 1 
    50   24   25 1 
    51   24   49 1 
    52   24   50 1 
    53   25   51 1 
    54   25   52 1 
    55   26   27 ar
    56   26   32 1 
    57   27   28 ar
    58   27   53 1 
    59   28   54 1 
@<TRIPOS>SUBSTRUCTURE
1 MOL         1
