MODEL 1
REMARK VINA RESULT:      -7.2      0.000      0.000
REMARK  4 active torsions:
REMARK  status: ('A' for Active; 'I' for Inactive)
REMARK    1  A    between atoms: C_2  and  C_4 
REMARK    2  A    between atoms: C_4  and  C_5 
REMARK    3  A    between atoms: C_8  and  C_11 
REMARK    4  A    between atoms: C_11  and  C_13 
ROOT
HETATM    1  C   UNL     1     -40.468 -55.810   5.999  1.00  0.00    -0.058 A 
HETATM    2  C   UNL     1     -40.503 -56.547   7.160  1.00  0.00     0.007 A 
HETATM    3  C   UNL     1     -41.078 -56.037   8.289  1.00  0.00     0.008 A 
HETATM    4  C   UNL     1     -41.631 -54.780   8.285  1.00  0.00    -0.044 A 
HETATM    5  C   UNL     1     -41.601 -54.035   7.132  1.00  0.00     0.008 A 
HETATM    6  C   UNL     1     -41.020 -54.552   5.993  1.00  0.00     0.007 A 
ENDROOT
BRANCH   4   7
HETATM    7  C   UNL     1     -42.257 -54.206   9.488  1.00  0.00     0.115 C 
HETATM    8  C   UNL     1     -42.950 -52.896   9.114  1.00  0.00     0.026 C 
BRANCH   7   9
HETATM    9  C   UNL     1     -43.259 -55.197   9.979  1.00  0.00     0.181 C 
HETATM   10  O   UNL     1     -43.050 -55.856  11.008  1.00  0.00    -0.647 OA
HETATM   11  O   UNL     1     -44.415 -55.365   9.272  1.00  0.00    -0.647 OA
ENDBRANCH   7   9
ENDBRANCH   4   7
BRANCH   1  12
HETATM   12  C   UNL     1     -39.833 -56.408   4.799  1.00  0.00     0.042 C 
BRANCH  12  13
HETATM   13  C   UNL     1     -39.280 -57.773   5.099  1.00  0.00    -0.019 C 
HETATM   14  C   UNL     1     -39.897 -58.771   4.165  1.00  0.00     0.010 C 
HETATM   15  C   UNL     1     -37.790 -57.776   4.973  1.00  0.00     0.010 C 
ENDBRANCH  12  13
ENDBRANCH   1  12
TORSDOF 4
ENDMDL
