MODEL 1
REMARK VINA RESULT:      -8.8      0.000      0.000
REMARK  4 active torsions:
REMARK  status: ('A' for Active; 'I' for Inactive)
REMARK       I    between atoms: N_1  and  C_17 
REMARK       I    between atoms: N_2  and  C_22 
REMARK    1  A    between atoms: C_12  and  C_13 
REMARK    2  A    between atoms: C_13  and  C_14 
REMARK    3  A    between atoms: C_16  and  C_17 
REMARK    4  A    between atoms: C_22  and  C_23 
ROOT
HETATM    1  C   UNL     1     -20.059 -43.304   1.078  1.00  0.00    -0.051 A 
HETATM    2  C   UNL     1     -18.762 -43.830   1.216  1.00  0.00     0.027 A 
HETATM    3  C   UNL     1     -18.001 -44.072   0.097  1.00  0.00     0.071 A 
HETATM    4  C   UNL     1     -18.441 -43.826  -1.182  1.00  0.00     0.132 A 
HETATM    5  C   UNL     1     -19.710 -43.311  -1.315  1.00  0.00     0.044 A 
HETATM    6  C   UNL     1     -20.489 -43.062  -0.176  1.00  0.00     0.010 A 
HETATM    7  F   UNL     1     -17.646 -44.083  -2.261  1.00  0.00    -0.205 F 
ENDROOT
BRANCH   1   8
HETATM    8  C   UNL     1     -20.794 -43.069   2.352  1.00  0.00     0.100 C 
BRANCH   8   9
HETATM    9  C   UNL     1     -21.241 -41.684   2.438  1.00  0.00     0.070 A 
HETATM   10  N   UNL     1     -22.568 -41.465   2.185  1.00  0.00    -0.175 NA
HETATM   11  N   UNL     1     -23.073 -40.255   2.176  1.00  0.00    -0.243 N 
HETATM   12  H   UNL     1     -24.034 -40.151   1.988  1.00  0.00     0.192 HD
HETATM   13  C   UNL     1     -22.346 -39.154   2.411  1.00  0.00     0.272 A 
HETATM   14  C   UNL     1     -20.999 -39.291   2.675  1.00  0.00     0.046 A 
HETATM   15  O   UNL     1     -22.812 -37.986   2.406  1.00  0.00    -0.266 OA
HETATM   16  C   UNL     1     -20.200 -38.180   2.945  1.00  0.00     0.018 A 
HETATM   17  C   UNL     1     -20.479 -40.573   2.681  1.00  0.00     0.006 A 
HETATM   18  C   UNL     1     -18.861 -38.343   3.228  1.00  0.00     0.001 A 
HETATM   19  C   UNL     1     -18.375 -39.633   3.228  1.00  0.00     0.001 A 
HETATM   20  C   UNL     1     -19.156 -40.746   2.962  1.00  0.00     0.014 A 
ENDBRANCH   8   9
ENDBRANCH   1   8
BRANCH   3  21
HETATM   21  C   UNL     1     -16.631 -44.622   0.209  1.00  0.00     0.257 C 
HETATM   22  N   UNL     1     -15.564 -43.719   0.457  1.00  0.00    -0.345 N 
HETATM   23  C   UNL     1     -14.230 -44.212   0.576  1.00  0.00     0.146 C 
HETATM   24  C   UNL     1     -15.858 -42.304   0.585  1.00  0.00     0.146 C 
HETATM   25  C   UNL     1     -13.190 -43.177   0.205  1.00  0.00     0.145 C 
HETATM   26  N   UNL     1     -13.781 -42.227  -0.701  1.00  0.00    -0.349 N 
HETATM   27  C   UNL     1     -14.905 -41.433  -0.193  1.00  0.00     0.145 C 
HETATM   28  C   UNL     1     -13.321 -42.052  -2.010  1.00  0.00     0.224 C 
HETATM   29  O   UNL     1     -13.909 -41.170  -2.733  1.00  0.00    -0.273 OA
HETATM   30  O   UNL     1     -16.391 -45.845   0.093  1.00  0.00    -0.267 OA
BRANCH  28  31
HETATM   31  C   UNL     1     -12.226 -42.773  -2.663  1.00  0.00     0.078 A 
HETATM   32  C   UNL     1     -12.570 -43.478  -3.956  1.00  0.00     0.015 A 
HETATM   33  C   UNL     1     -12.237 -44.256  -2.761  1.00  0.00     0.015 A 
ENDBRANCH  28  31
ENDBRANCH   3  21
TORSDOF 4
ENDMDL
