MODEL 1
REMARK VINA RESULT:      -6.3      0.000      0.000
REMARK  3 active torsions:
REMARK  status: ('A' for Active; 'I' for Inactive)
REMARK    1  A    between atoms: C_2  and  O_11 
REMARK    2  A    between atoms: C_3  and  O_11 
REMARK    3  A    between atoms: C_8  and  C_9 
ROOT
HETATM    1  C   UNL     1     -33.145 -45.401   5.608  1.00  0.00     0.096 A 
HETATM    2  C   UNL     1     -32.722 -44.905   6.822  1.00  0.00     0.038 A 
HETATM    3  C   UNL     1     -33.149 -43.699   7.343  1.00  0.00     0.003 A 
HETATM    4  C   UNL     1     -34.043 -42.957   6.611  1.00  0.00     0.001 A 
HETATM    5  C   UNL     1     -34.499 -43.406   5.390  1.00  0.00     0.021 A 
HETATM    6  C   UNL     1     -34.043 -44.629   4.897  1.00  0.00     0.074 A 
ENDROOT
BRANCH   1   7
HETATM    7  O   UNL     1     -32.748 -46.588   5.054  1.00  0.00    -0.278 OA
BRANCH   7   8
HETATM    8  C   UNL     1     -33.228 -47.826   5.375  1.00  0.00     0.260 C 
HETATM    9  C   UNL     1     -33.908 -48.705   4.390  1.00  0.00     0.126 C 
HETATM   10  O   UNL     1     -33.047 -48.166   6.583  1.00  0.00    -0.265 OA
ENDBRANCH   7   8
ENDBRANCH   1   7
BRANCH   6  11
HETATM   11  C   UNL     1     -34.550 -45.068   3.602  1.00  0.00     0.212 C 
HETATM   12  O   UNL     1     -34.015 -44.679   2.532  1.00  0.00    -0.644 OA
HETATM   13  O   UNL     1     -35.636 -45.922   3.500  1.00  0.00    -0.644 OA
ENDBRANCH   6  11
TORSDOF 3
ENDMDL
