MODEL 1
REMARK VINA RESULT:      -7.6      0.000      0.000
REMARK  4 active torsions:
REMARK  status: ('A' for Active; 'I' for Inactive)
REMARK       I    between atoms: N_1  and  C_17 
REMARK       I    between atoms: N_2  and  C_22 
REMARK    1  A    between atoms: C_12  and  C_13 
REMARK    2  A    between atoms: C_13  and  C_14 
REMARK    3  A    between atoms: C_16  and  C_17 
REMARK    4  A    between atoms: C_22  and  C_23 
ROOT
HETATM    1  C   UNL     1      18.060  12.836  15.389  1.00  0.00    -0.051 A 
HETATM    2  C   UNL     1      17.212  12.246  16.342  1.00  0.00     0.027 A 
HETATM    3  C   UNL     1      16.041  12.873  16.697  1.00  0.00     0.071 A 
HETATM    4  C   UNL     1      15.638  14.074  16.164  1.00  0.00     0.132 A 
HETATM    5  C   UNL     1      16.469  14.651  15.231  1.00  0.00     0.044 A 
HETATM    6  C   UNL     1      17.664  14.014  14.866  1.00  0.00     0.010 A 
HETATM    7  F   UNL     1      14.465  14.657  16.549  1.00  0.00    -0.205 F 
ENDROOT
BRANCH   1   8
HETATM    8  C   UNL     1      19.296  12.070  15.068  1.00  0.00     0.100 C 
BRANCH   8   9
HETATM    9  C   UNL     1      19.718  12.328  13.698  1.00  0.00     0.070 A 
HETATM   10  N   UNL     1      18.892  11.849  12.716  1.00  0.00    -0.175 NA
HETATM   11  N   UNL     1      19.196  11.971  11.447  1.00  0.00    -0.243 N 
HETATM   12  H   UNL     1      18.569  11.609  10.779  1.00  0.00     0.192 HD
HETATM   13  C   UNL     1      20.318  12.562  11.013  1.00  0.00     0.272 A 
HETATM   14  C   UNL     1      21.202  13.071  11.942  1.00  0.00     0.046 A 
HETATM   15  O   UNL     1      20.627  12.687   9.800  1.00  0.00    -0.266 OA
HETATM   16  C   UNL     1      22.375  13.714  11.544  1.00  0.00     0.018 A 
HETATM   17  C   UNL     1      20.869  12.937  13.277  1.00  0.00     0.006 A 
HETATM   18  C   UNL     1      23.233  14.234  12.489  1.00  0.00     0.001 A 
HETATM   19  C   UNL     1      22.870  14.085  13.811  1.00  0.00     0.001 A 
HETATM   20  C   UNL     1      21.710  13.450  14.220  1.00  0.00     0.014 A 
ENDBRANCH   8   9
ENDBRANCH   1   8
BRANCH   3  21
HETATM   21  C   UNL     1      15.125  12.275  17.695  1.00  0.00     0.257 C 
HETATM   22  N   UNL     1      15.455  12.404  19.070  1.00  0.00    -0.345 N 
HETATM   23  C   UNL     1      14.594  11.844  20.061  1.00  0.00     0.146 C 
HETATM   24  C   UNL     1      16.670  13.107  19.437  1.00  0.00     0.146 C 
HETATM   25  C   UNL     1      15.325  11.494  21.339  1.00  0.00     0.145 C 
HETATM   26  N   UNL     1      16.712  11.254  21.031  1.00  0.00    -0.349 N 
HETATM   27  C   UNL     1      17.475  12.381  20.483  1.00  0.00     0.145 C 
HETATM   28  C   UNL     1      17.323  10.014  21.236  1.00  0.00     0.224 C 
HETATM   29  O   UNL     1      18.566   9.908  20.940  1.00  0.00    -0.273 OA
HETATM   30  O   UNL     1      14.082  11.667  17.364  1.00  0.00    -0.267 OA
BRANCH  28  31
HETATM   31  C   UNL     1      16.695   8.798  21.759  1.00  0.00     0.078 A 
HETATM   32  C   UNL     1      16.560   8.710  23.262  1.00  0.00     0.015 A 
HETATM   33  C   UNL     1      17.475   7.813  22.553  1.00  0.00     0.015 A 
ENDBRANCH  28  31
ENDBRANCH   3  21
TORSDOF 4
ENDMDL
