@<TRIPOS>MOLECULE
query molecule
   20    20     1     0     0
SMALL
NO_CHARGE

@<TRIPOS>ATOM
      1 C          -3.9355  -22.0043    0.7678 C.3       1 MOL     0.1362
      2 C          -4.5650  -22.8353   -0.2896 C.2       1 MOL     0.3092
      3 C          -6.8558  -22.5685    0.5000 C.ar      1 MOL     0.1404
      4 C          -7.1691  -23.2100    1.6795 C.ar      1 MOL     0.0468
      5 C          -8.1244  -22.7515    2.5649 C.ar      1 MOL     0.0037
      6 C          -8.7963  -21.5947    2.2525 C.ar      1 MOL     0.0009
      7 C          -8.5228  -20.9140    1.0862 C.ar      1 MOL     0.0131
      8 C          -7.5499  -21.4084    0.2162 C.ar      1 MOL     0.0397
      9 C          -7.2912  -20.6579   -1.0067 C.2       1 MOL     0.0752
     10 O          -3.8868  -23.4632   -1.1583 O.2       1 MOL    -0.2507
     11 O          -5.9181  -22.9863   -0.4052 O.3       1 MOL    -0.4254
     12 O          -6.1814  -20.0992   -1.2004 O.co2     1 MOL    -0.5445
     13 O          -8.2523  -20.5301   -1.9954 O.co2     1 MOL    -0.5445
     14 H          -2.8714  -22.0373    0.6601 H         1 MOL     0.0342
     15 H          -4.2084  -22.3849    1.7297 H         1 MOL     0.0342
     16 H          -4.2733  -20.9936    0.6750 H         1 MOL     0.0342
     17 H          -6.6631  -24.0782    1.9130 H         1 MOL     0.0654
     18 H          -8.3273  -23.2637    3.4382 H         1 MOL     0.0619
     19 H          -9.5148  -21.2312    2.8982 H         1 MOL     0.0618
     20 H          -9.0317  -20.0453    0.8583 H         1 MOL     0.0625
@<TRIPOS>BOND
     1    1    2 1 
     2    1   14 1 
     3    1   15 1 
     4    1   16 1 
     5    2   10 2 
     6    2   11 1 
     7    3    4 ar
     8    3    8 ar
     9    3   11 1 
    10    4    5 ar
    11    4   17 1 
    12    5    6 ar
    13    5   18 1 
    14    6    7 ar
    15    6   19 1 
    16    7    8 ar
    17    7   20 1 
    18    8    9 1 
    19    9   12 ar
    20    9   13 ar
@<TRIPOS>SUBSTRUCTURE
1 MOL         1
@<TRIPOS>MOLECULE
query molecule
   20    20     1     0     0
SMALL
NO_CHARGE

@<TRIPOS>ATOM
      1 C         -21.1618  -28.6956   17.6298 C.3       1 MOL     0.1362
      2 C         -20.3386  -27.5401   17.1917 C.2       1 MOL     0.3092
      3 C         -18.2648  -28.7944   16.9304 C.ar      1 MOL     0.1404
      4 C         -17.8685  -29.4018   18.1030 C.ar      1 MOL     0.0468
      5 C         -17.1022  -30.5498   18.1445 C.ar      1 MOL     0.0037
      6 C         -16.7160  -31.1153   16.9536 C.ar      1 MOL     0.0009
      7 C         -17.0841  -30.5490   15.7526 C.ar      1 MOL     0.0131
      8 C         -17.8595  -29.3886   15.7511 C.ar      1 MOL     0.0397
      9 C         -18.2270  -28.8219   14.4590 C.2       1 MOL     0.0752
     10 O         -20.8027  -26.3623   17.1129 O.2       1 MOL    -0.2507
     11 O         -19.0229  -27.6584   16.8425 O.3       1 MOL    -0.4254
     12 O         -17.3550  -28.3370   13.6935 O.co2     1 MOL    -0.5445
     13 O         -19.5427  -28.7939   14.0279 O.co2     1 MOL    -0.5445
     14 H         -22.1543  -28.3622   17.8506 H         1 MOL     0.0342
     15 H         -20.7284  -29.1299   18.5062 H         1 MOL     0.0342
     16 H         -21.1951  -29.4259   16.8489 H         1 MOL     0.0342
     17 H         -18.1600  -28.9763   18.9966 H         1 MOL     0.0654
     18 H         -16.8279  -30.9720   19.0460 H         1 MOL     0.0619
     19 H         -16.1432  -31.9738   16.9579 H         1 MOL     0.0618
     20 H         -16.7902  -30.9798   14.8616 H         1 MOL     0.0625
@<TRIPOS>BOND
     1    1    2 1 
     2    1   14 1 
     3    1   15 1 
     4    1   16 1 
     5    2   10 2 
     6    2   11 1 
     7    3    4 ar
     8    3    8 ar
     9    3   11 1 
    10    4    5 ar
    11    4   17 1 
    12    5    6 ar
    13    5   18 1 
    14    6    7 ar
    15    6   19 1 
    16    7    8 ar
    17    7   20 1 
    18    8    9 1 
    19    9   12 ar
    20    9   13 ar
@<TRIPOS>SUBSTRUCTURE
1 MOL         1
@<TRIPOS>MOLECULE
query molecule
   20    20     1     0     0
SMALL
NO_CHARGE

@<TRIPOS>ATOM
      1 C         -27.2018  -20.0184  -13.3752 C.3       1 MOL     0.1362
      2 C         -27.7255  -19.5177  -12.0791 C.2       1 MOL     0.3092
      3 C         -27.4367  -21.3836  -10.5373 C.ar      1 MOL     0.1404
      4 C         -27.8136  -22.7097  -10.5560 C.ar      1 MOL     0.0468
      5 C         -27.0621  -23.7227   -9.9940 C.ar      1 MOL     0.0037
      6 C         -25.8764  -23.3896   -9.3854 C.ar      1 MOL     0.0009
      7 C         -25.4525  -22.0795   -9.3379 C.ar      1 MOL     0.0131
      8 C         -26.2393  -21.0831   -9.9175 C.ar      1 MOL     0.0397
      9 C         -25.7543  -19.7101   -9.8452 C.2       1 MOL     0.0752
     10 O         -27.8160  -18.2812  -11.8116 O.2       1 MOL    -0.2507
     11 O         -28.1489  -20.3489  -11.0807 O.3       1 MOL    -0.4254
     12 O         -25.7706  -19.0744   -8.7602 O.co2     1 MOL    -0.5445
     13 O         -25.2618  -19.0558  -10.9618 O.co2     1 MOL    -0.5445
     14 H         -26.9346  -19.1886  -13.9956 H         1 MOL     0.0342
     15 H         -27.9555  -20.6002  -13.8631 H         1 MOL     0.0342
     16 H         -26.3394  -20.6265  -13.2000 H         1 MOL     0.0342
     17 H         -28.7040  -22.9583  -11.0141 H         1 MOL     0.0654
     18 H         -27.3823  -24.7036  -10.0311 H         1 MOL     0.0619
     19 H         -25.2964  -24.1287   -8.9582 H         1 MOL     0.0618
     20 H         -24.5602  -21.8368   -8.8789 H         1 MOL     0.0625
@<TRIPOS>BOND
     1    1    2 1 
     2    1   14 1 
     3    1   15 1 
     4    1   16 1 
     5    2   10 2 
     6    2   11 1 
     7    3    4 ar
     8    3    8 ar
     9    3   11 1 
    10    4    5 ar
    11    4   17 1 
    12    5    6 ar
    13    5   18 1 
    14    6    7 ar
    15    6   19 1 
    16    7    8 ar
    17    7   20 1 
    18    8    9 1 
    19    9   12 ar
    20    9   13 ar
@<TRIPOS>SUBSTRUCTURE
1 MOL         1
@<TRIPOS>MOLECULE
query molecule
   20    20     1     0     0
SMALL
NO_CHARGE

@<TRIPOS>ATOM
      1 C         -11.8068  -78.4578   -0.5998 C.3       1 MOL     0.1362
      2 C         -11.2917  -79.5801   -1.4244 C.2       1 MOL     0.3092
      3 C          -9.1289  -79.7405   -0.3115 C.ar      1 MOL     0.1404
      4 C          -9.0428  -80.1303    1.0082 C.ar      1 MOL     0.0468
      5 C          -8.0676  -79.6763    1.8740 C.ar      1 MOL     0.0037
      6 C          -7.1345  -78.7903    1.3929 C.ar      1 MOL     0.0009
      7 C          -7.1745  -78.3674    0.0821 C.ar      1 MOL     0.0131
      8 C          -8.1754  -78.8489   -0.7631 C.ar      1 MOL     0.0397
      9 C          -8.1817  -78.3763   -2.1423 C.2       1 MOL     0.0752
     10 O         -11.9468  -80.0724   -2.3925 O.2       1 MOL    -0.2507
     11 O         -10.0765  -80.1643   -1.2035 O.3       1 MOL    -0.4254
     12 O          -7.1591  -78.4811   -2.8668 O.co2     1 MOL    -0.5445
     13 O          -9.3062  -77.7954   -2.7041 O.co2     1 MOL    -0.5445
     14 H         -12.7721  -78.1665   -0.9582 H         1 MOL     0.0342
     15 H         -11.1355  -77.6276   -0.6687 H         1 MOL     0.0342
     16 H         -11.8834  -78.7709    0.4202 H         1 MOL     0.0342
     17 H          -9.7439  -80.7964    1.3678 H         1 MOL     0.0654
     18 H          -8.0400  -79.9949    2.8557 H         1 MOL     0.0619
     19 H          -6.3952  -78.4364    2.0201 H         1 MOL     0.0618
     20 H          -6.4698  -77.7015   -0.2723 H         1 MOL     0.0625
@<TRIPOS>BOND
     1    1    2 1 
     2    1   14 1 
     3    1   15 1 
     4    1   16 1 
     5    2   10 2 
     6    2   11 1 
     7    3    4 ar
     8    3    8 ar
     9    3   11 1 
    10    4    5 ar
    11    4   17 1 
    12    5    6 ar
    13    5   18 1 
    14    6    7 ar
    15    6   19 1 
    16    7    8 ar
    17    7   20 1 
    18    8    9 1 
    19    9   12 ar
    20    9   13 ar
@<TRIPOS>SUBSTRUCTURE
1 MOL         1
@<TRIPOS>MOLECULE
query molecule
   20    20     1     0     0
SMALL
NO_CHARGE

@<TRIPOS>ATOM
      1 C         -23.5982  -64.3852   34.1040 C.3       1 MOL     0.1362
      2 C         -23.8726  -63.0820   33.4474 C.2       1 MOL     0.3092
      3 C         -22.4183  -62.6032   31.5505 C.ar      1 MOL     0.1404
      4 C         -21.5512  -61.6013   31.9317 C.ar      1 MOL     0.0468
      5 C         -20.3295  -61.3810   31.3270 C.ar      1 MOL     0.0037
      6 C         -19.9601  -62.2052   30.2918 C.ar      1 MOL     0.0009
      7 C         -20.7891  -63.2218   29.8704 C.ar      1 MOL     0.0131
      8 C         -22.0164  -63.4136   30.5066 C.ar      1 MOL     0.0397
      9 C         -22.8633  -64.5005   30.0298 C.2       1 MOL     0.0752
     10 O         -24.3451  -62.0870   34.0762 O.2       1 MOL    -0.2507
     11 O         -23.6364  -62.8573   32.1205 O.3       1 MOL    -0.4254
     12 O         -22.8038  -65.6434   30.5510 O.co2     1 MOL    -0.5445
     13 O         -23.7590  -64.3182   28.9896 O.co2     1 MOL    -0.5445
     14 H         -23.8594  -64.3239   35.1399 H         1 MOL     0.0342
     15 H         -22.5582  -64.6188   34.0118 H         1 MOL     0.0342
     16 H         -24.1788  -65.1506   33.6335 H         1 MOL     0.0342
     17 H         -21.8297  -60.9837   32.7098 H         1 MOL     0.0654
     18 H         -19.7103  -60.6184   31.6450 H         1 MOL     0.0619
     19 H         -19.0516  -62.0612   29.8237 H         1 MOL     0.0618
     20 H         -20.5046  -63.8372   29.0919 H         1 MOL     0.0625
@<TRIPOS>BOND
     1    1    2 1 
     2    1   14 1 
     3    1   15 1 
     4    1   16 1 
     5    2   10 2 
     6    2   11 1 
     7    3    4 ar
     8    3    8 ar
     9    3   11 1 
    10    4    5 ar
    11    4   17 1 
    12    5    6 ar
    13    5   18 1 
    14    6    7 ar
    15    6   19 1 
    16    7    8 ar
    17    7   20 1 
    18    8    9 1 
    19    9   12 ar
    20    9   13 ar
@<TRIPOS>SUBSTRUCTURE
1 MOL         1
@<TRIPOS>MOLECULE
query molecule
   20    20     1     0     0
SMALL
NO_CHARGE

@<TRIPOS>ATOM
      1 C         -13.7577  -25.8093   -5.3085 C.3       1 MOL     0.1362
      2 C         -12.3800  -25.8356   -5.8616 C.2       1 MOL     0.3092
      3 C         -10.7937  -25.1562   -7.5834 C.ar      1 MOL     0.1404
      4 C         -10.1380  -26.1161   -8.3247 C.ar      1 MOL     0.0468
      5 C          -8.8630  -25.9498   -8.8280 C.ar      1 MOL     0.0037
      6 C          -8.2157  -24.7644   -8.5764 C.ar      1 MOL     0.0009
      7 C          -8.8249  -23.7715   -7.8405 C.ar      1 MOL     0.0131
      8 C         -10.1148  -23.9763   -7.3486 C.ar      1 MOL     0.0397
      9 C         -10.7229  -22.9005   -6.5750 C.2       1 MOL     0.0752
     10 O         -11.4100  -26.3797   -5.2519 O.2       1 MOL    -0.2507
     11 O         -12.0549  -25.2781   -7.0660 O.3       1 MOL    -0.4254
     12 O         -10.3729  -22.6800   -5.3874 O.co2     1 MOL    -0.5445
     13 O         -11.7047  -22.0861   -7.1137 O.co2     1 MOL    -0.5445
     14 H         -13.7702  -26.3052   -4.3604 H         1 MOL     0.0342
     15 H         -14.4216  -26.3102   -5.9815 H         1 MOL     0.0342
     16 H         -14.0731  -24.7946   -5.1856 H         1 MOL     0.0342
     17 H         -10.6257  -27.0055   -8.5134 H         1 MOL     0.0654
     18 H          -8.4090  -26.6956   -9.3792 H         1 MOL     0.0619
     19 H          -7.2621  -24.6156   -8.9419 H         1 MOL     0.0618
     20 H          -8.3323  -22.8833   -7.6556 H         1 MOL     0.0625
@<TRIPOS>BOND
     1    1    2 1 
     2    1   14 1 
     3    1   15 1 
     4    1   16 1 
     5    2   10 2 
     6    2   11 1 
     7    3    4 ar
     8    3    8 ar
     9    3   11 1 
    10    4    5 ar
    11    4   17 1 
    12    5    6 ar
    13    5   18 1 
    14    6    7 ar
    15    6   19 1 
    16    7    8 ar
    17    7   20 1 
    18    8    9 1 
    19    9   12 ar
    20    9   13 ar
@<TRIPOS>SUBSTRUCTURE
1 MOL         1
@<TRIPOS>MOLECULE
query molecule
   20    20     1     0     0
SMALL
NO_CHARGE

@<TRIPOS>ATOM
      1 C         -24.0356  -27.6836   -1.4923 C.3       1 MOL     0.1362
      2 C         -24.6918  -28.2692   -2.6886 C.2       1 MOL     0.3092
      3 C         -23.1610  -27.3787   -4.3637 C.ar      1 MOL     0.1404
      4 C         -23.2150  -26.0069   -4.2362 C.ar      1 MOL     0.0468
      5 C         -22.2230  -25.1604   -4.6903 C.ar      1 MOL     0.0037
      6 C         -21.1248  -25.7165   -5.3002 C.ar      1 MOL     0.0009
      7 C         -21.0202  -27.0818   -5.4540 C.ar      1 MOL     0.0131
      8 C         -22.0433  -27.9051   -4.9816 C.ar      1 MOL     0.0397
      9 C         -21.8932  -29.3438   -5.1644 C.2       1 MOL     0.0752
     10 O         -25.8315  -28.8237   -2.6392 O.2       1 MOL    -0.2507
     11 O         -24.1192  -28.2539   -3.9292 O.3       1 MOL    -0.4254
     12 O         -22.1772  -30.1466   -4.2391 O.co2     1 MOL    -0.5445
     13 O         -21.4329  -29.8787   -6.3558 O.co2     1 MOL    -0.5445
     14 H         -24.6694  -27.8125   -0.6398 H         1 MOL     0.0342
     15 H         -23.8644  -26.6401   -1.6547 H         1 MOL     0.0342
     16 H         -23.1015  -28.1760   -1.3213 H         1 MOL     0.0342
     17 H         -24.0401  -25.5908   -3.7773 H         1 MOL     0.0654
     18 H         -22.3041  -24.1377   -4.5737 H         1 MOL     0.0619
     19 H         -20.3695  -25.1052   -5.6480 H         1 MOL     0.0618
     20 H         -20.1918  -27.4924   -5.9132 H         1 MOL     0.0625
@<TRIPOS>BOND
     1    1    2 1 
     2    1   14 1 
     3    1   15 1 
     4    1   16 1 
     5    2   10 2 
     6    2   11 1 
     7    3    4 ar
     8    3    8 ar
     9    3   11 1 
    10    4    5 ar
    11    4   17 1 
    12    5    6 ar
    13    5   18 1 
    14    6    7 ar
    15    6   19 1 
    16    7    8 ar
    17    7   20 1 
    18    8    9 1 
    19    9   12 ar
    20    9   13 ar
@<TRIPOS>SUBSTRUCTURE
1 MOL         1
@<TRIPOS>MOLECULE
query molecule
   20    20     1     0     0
SMALL
NO_CHARGE

@<TRIPOS>ATOM
      1 C          -2.0978  -54.4944  -23.1601 C.3       1 MOL     0.1362
      2 C          -2.7225  -53.6601  -22.1025 C.2       1 MOL     0.3092
      3 C          -3.1295  -51.4694  -21.1138 C.ar      1 MOL     0.1404
      4 C          -4.4415  -51.0518  -21.0418 C.ar      1 MOL     0.0468
      5 C          -4.9205  -50.2131  -20.0549 C.ar      1 MOL     0.0037
      6 C          -4.0419  -49.7734  -19.0947 C.ar      1 MOL     0.0009
      7 C          -2.7196  -50.1597  -19.1196 C.ar      1 MOL     0.0131
      8 C          -2.2727  -51.0089  -20.1330 C.ar      1 MOL     0.0397
      9 C          -0.8663  -51.3934  -20.1227 C.2       1 MOL     0.0752
     10 O          -3.4012  -54.1570  -21.1531 O.2       1 MOL    -0.2507
     11 O          -2.6125  -52.2985  -22.0721 O.3       1 MOL    -0.4254
     12 O          -0.5246  -52.5922  -19.9565 O.co2     1 MOL    -0.5445
     13 O           0.1416  -50.4591  -20.2923 O.co2     1 MOL    -0.5445
     14 H          -2.3176  -55.5254  -22.9763 H         1 MOL     0.0342
     15 H          -1.0380  -54.3485  -23.1495 H         1 MOL     0.0342
     16 H          -2.4876  -54.2102  -24.1148 H         1 MOL     0.0342
     17 H          -5.1003  -51.3835  -21.7633 H         1 MOL     0.0654
     18 H          -5.9119  -49.9253  -20.0387 H         1 MOL     0.0619
     19 H          -4.3754  -49.1460  -18.3462 H         1 MOL     0.0618
     20 H          -2.0652  -49.8253  -18.3945 H         1 MOL     0.0625
@<TRIPOS>BOND
     1    1    2 1 
     2    1   14 1 
     3    1   15 1 
     4    1   16 1 
     5    2   10 2 
     6    2   11 1 
     7    3    4 ar
     8    3    8 ar
     9    3   11 1 
    10    4    5 ar
    11    4   17 1 
    12    5    6 ar
    13    5   18 1 
    14    6    7 ar
    15    6   19 1 
    16    7    8 ar
    17    7   20 1 
    18    8    9 1 
    19    9   12 ar
    20    9   13 ar
@<TRIPOS>SUBSTRUCTURE
1 MOL         1
@<TRIPOS>MOLECULE
query molecule
   20    20     1     0     0
SMALL
NO_CHARGE

@<TRIPOS>ATOM
      1 C         -13.0683  -44.3211  -12.9632 C.3       1 MOL     0.1362
      2 C         -12.0512  -43.5808  -13.7521 C.2       1 MOL     0.3092
      3 C         -10.6323  -43.9513  -15.6993 C.ar      1 MOL     0.1404
      4 C          -9.9137  -42.8492  -16.1114 C.ar      1 MOL     0.0468
      5 C          -9.5320  -42.6355  -17.4211 C.ar      1 MOL     0.0037
      6 C          -9.8874  -43.5720  -18.3614 C.ar      1 MOL     0.0009
      7 C         -10.6060  -44.6918  -18.0038 C.ar      1 MOL     0.0131
      8 C         -10.9734  -44.8733  -16.6696 C.ar      1 MOL     0.0397
      9 C         -11.7331  -46.0715  -16.3339 C.2       1 MOL     0.0752
     10 O         -12.0610  -42.3173  -13.8635 O.2       1 MOL    -0.2507
     11 O         -11.0309  -44.2031  -14.4144 O.3       1 MOL    -0.4254
     12 O         -12.5624  -46.0681  -15.3885 O.co2     1 MOL    -0.5445
     13 O         -11.5707  -47.2533  -17.0372 O.co2     1 MOL    -0.5445
     14 H         -13.7624  -43.6273  -12.5370 H         1 MOL     0.0342
     15 H         -12.5842  -44.8672  -12.1809 H         1 MOL     0.0342
     16 H         -13.5897  -45.0014  -13.6032 H         1 MOL     0.0342
     17 H          -9.6469  -42.1472  -15.4039 H         1 MOL     0.0654
     18 H          -8.9934  -41.7954  -17.6862 H         1 MOL     0.0619
     19 H          -9.6138  -43.4353  -19.3471 H         1 MOL     0.0618
     20 H         -10.8694  -45.3913  -18.7159 H         1 MOL     0.0625
@<TRIPOS>BOND
     1    1    2 1 
     2    1   14 1 
     3    1   15 1 
     4    1   16 1 
     5    2   10 2 
     6    2   11 1 
     7    3    4 ar
     8    3    8 ar
     9    3   11 1 
    10    4    5 ar
    11    4   17 1 
    12    5    6 ar
    13    5   18 1 
    14    6    7 ar
    15    6   19 1 
    16    7    8 ar
    17    7   20 1 
    18    8    9 1 
    19    9   12 ar
    20    9   13 ar
@<TRIPOS>SUBSTRUCTURE
1 MOL         1
@<TRIPOS>MOLECULE
query molecule
   20    20     1     0     0
SMALL
NO_CHARGE

@<TRIPOS>ATOM
      1 C         -47.6076  -64.9698   14.2904 C.3       1 MOL     0.1362
      2 C         -48.5823  -65.1028   13.1782 C.2       1 MOL     0.3092
      3 C         -47.2633  -63.9156   11.5069 C.ar      1 MOL     0.1404
      4 C         -47.1406  -62.5716   11.7891 C.ar      1 MOL     0.0468
      5 C         -46.0728  -61.8009   11.3736 C.ar      1 MOL     0.0037
      6 C         -45.0813  -62.4073   10.6411 C.ar      1 MOL     0.0009
      7 C         -45.1543  -63.7477   10.3305 C.ar      1 MOL     0.0131
      8 C         -46.2492  -64.4941   10.7687 C.ar      1 MOL     0.0397
      9 C         -46.2875  -65.9088   10.4184 C.2       1 MOL     0.0752
     10 O         -49.7440  -65.5846   13.3427 O.2       1 MOL    -0.2507
     11 O         -48.3020  -64.7165   11.8979 O.3       1 MOL    -0.4254
     12 O         -46.8503  -66.2993    9.3638 O.co2     1 MOL    -0.5445
     13 O         -45.7111  -66.8720   11.2295 O.co2     1 MOL    -0.5445
     14 H         -48.0476  -65.3349   15.1949 H         1 MOL     0.0342
     15 H         -47.3444  -63.9400   14.4124 H         1 MOL     0.0342
     16 H         -46.7298  -65.5381   14.0649 H         1 MOL     0.0342
     17 H         -47.8857  -62.1178   12.3400 H         1 MOL     0.0654
     18 H         -46.0208  -60.7966   11.6078 H         1 MOL     0.0619
     19 H         -44.2726  -61.8528   10.3190 H         1 MOL     0.0618
     20 H         -44.4053  -64.1965    9.7798 H         1 MOL     0.0625
@<TRIPOS>BOND
     1    1    2 1 
     2    1   14 1 
     3    1   15 1 
     4    1   16 1 
     5    2   10 2 
     6    2   11 1 
     7    3    4 ar
     8    3    8 ar
     9    3   11 1 
    10    4    5 ar
    11    4   17 1 
    12    5    6 ar
    13    5   18 1 
    14    6    7 ar
    15    6   19 1 
    16    7    8 ar
    17    7   20 1 
    18    8    9 1 
    19    9   12 ar
    20    9   13 ar
@<TRIPOS>SUBSTRUCTURE
1 MOL         1
@<TRIPOS>MOLECULE
query molecule
   20    20     1     0     0
SMALL
NO_CHARGE

@<TRIPOS>ATOM
      1 C          -8.8813  -72.5984   34.0382 C.3       1 MOL     0.1362
      2 C          -9.4543  -73.0270   32.7372 C.2       1 MOL     0.3092
      3 C          -9.1858  -70.8746   31.6249 C.ar      1 MOL     0.1404
      4 C          -9.9939  -69.8261   32.0102 C.ar      1 MOL     0.0468
      5 C          -9.5991  -68.5037   31.9636 C.ar      1 MOL     0.0037
      6 C          -8.3338  -68.2201   31.5099 C.ar      1 MOL     0.0009
      7 C          -7.4852  -69.2300   31.1119 C.ar      1 MOL     0.0131
      8 C          -7.9200  -70.5548   31.1737 C.ar      1 MOL     0.0397
      9 C          -6.9910  -71.5927   30.7433 C.2       1 MOL     0.0752
     10 O          -9.9093  -74.1950   32.5436 O.2       1 MOL    -0.2507
     11 O          -9.5351  -72.1976   31.6545 O.3       1 MOL    -0.4254
     12 O          -6.2395  -72.1714   31.5690 O.co2     1 MOL    -0.5445
     13 O          -6.8991  -71.9779   29.4163 O.co2     1 MOL    -0.5445
     14 H          -8.9248  -73.4120   34.7318 H         1 MOL     0.0342
     15 H          -9.4444  -71.7731   34.4210 H         1 MOL     0.0342
     16 H          -7.8632  -72.3014   33.8986 H         1 MOL     0.0342
     17 H         -10.9436  -70.0407   32.3514 H         1 MOL     0.0654
     18 H         -10.2372  -67.7489   32.2626 H         1 MOL     0.0619
     19 H          -8.0149  -67.2395   31.4658 H         1 MOL     0.0618
     20 H          -6.5357  -69.0092   30.7722 H         1 MOL     0.0625
@<TRIPOS>BOND
     1    1    2 1 
     2    1   14 1 
     3    1   15 1 
     4    1   16 1 
     5    2   10 2 
     6    2   11 1 
     7    3    4 ar
     8    3    8 ar
     9    3   11 1 
    10    4    5 ar
    11    4   17 1 
    12    5    6 ar
    13    5   18 1 
    14    6    7 ar
    15    6   19 1 
    16    7    8 ar
    17    7   20 1 
    18    8    9 1 
    19    9   12 ar
    20    9   13 ar
@<TRIPOS>SUBSTRUCTURE
1 MOL         1
@<TRIPOS>MOLECULE
query molecule
   20    20     1     0     0
SMALL
NO_CHARGE

@<TRIPOS>ATOM
      1 C         -68.8552  -27.2313    8.3359 C.3       1 MOL     0.1362
      2 C         -70.1770  -26.7079    8.7645 C.2       1 MOL     0.3092
      3 C         -71.9213  -25.0120    8.6108 C.ar      1 MOL     0.1404
      4 C         -73.1342  -25.4956    8.1681 C.ar      1 MOL     0.0468
      5 C         -74.3485  -24.9357    8.5127 C.ar      1 MOL     0.0037
      6 C         -74.3457  -23.8397    9.3410 C.ar      1 MOL     0.0009
      7 C         -73.1618  -23.3154    9.8119 C.ar      1 MOL     0.0131
      8 C         -71.9541  -23.9091    9.4418 C.ar      1 MOL     0.0397
      9 C         -70.7246  -23.3233    9.9621 C.2       1 MOL     0.0752
     10 O         -70.9143  -27.3165    9.5980 O.2       1 MOL    -0.2507
     11 O         -70.6963  -25.5344    8.2952 O.3       1 MOL    -0.4254
     12 O         -70.7466  -22.2533   10.6225 O.co2     1 MOL    -0.5445
     13 O         -69.4920  -23.9174    9.7489 O.co2     1 MOL    -0.5445
     14 H         -68.6608  -28.1581    8.8340 H         1 MOL     0.0342
     15 H         -68.0931  -26.5242    8.5884 H         1 MOL     0.0342
     16 H         -68.8600  -27.3880    7.2778 H         1 MOL     0.0342
     17 H         -73.1346  -26.3192    7.5468 H         1 MOL     0.0654
     18 H         -75.2342  -25.3307    8.1583 H         1 MOL     0.0619
     19 H         -75.2404  -23.4032    9.6134 H         1 MOL     0.0618
     20 H         -73.1676  -22.4917   10.4341 H         1 MOL     0.0625
@<TRIPOS>BOND
     1    1    2 1 
     2    1   14 1 
     3    1   15 1 
     4    1   16 1 
     5    2   10 2 
     6    2   11 1 
     7    3    4 ar
     8    3    8 ar
     9    3   11 1 
    10    4    5 ar
    11    4   17 1 
    12    5    6 ar
    13    5   18 1 
    14    6    7 ar
    15    6   19 1 
    16    7    8 ar
    17    7   20 1 
    18    8    9 1 
    19    9   12 ar
    20    9   13 ar
@<TRIPOS>SUBSTRUCTURE
1 MOL         1
@<TRIPOS>MOLECULE
query molecule
   20    20     1     0     0
SMALL
NO_CHARGE

@<TRIPOS>ATOM
      1 C         -29.5985  -40.2937   22.8606 C.3       1 MOL     0.1362
      2 C         -28.4019  -41.0108   23.3693 C.2       1 MOL     0.3092
      3 C         -26.2994  -40.1982   22.4412 C.ar      1 MOL     0.1404
      4 C         -26.0074  -39.1707   23.3129 C.ar      1 MOL     0.0468
      5 C         -25.0295  -38.2252   23.0750 C.ar      1 MOL     0.0037
      6 C         -24.3103  -38.3154   21.9080 C.ar      1 MOL     0.0009
      7 C         -24.5616  -39.3223   21.0016 C.ar      1 MOL     0.0131
      8 C         -25.5579  -40.2598   21.2774 C.ar      1 MOL     0.0397
      9 C         -25.7916  -41.3087   20.2920 C.2       1 MOL     0.0752
     10 O         -28.3617  -41.5395   24.5215 O.2       1 MOL    -0.2507
     11 O         -27.2580  -41.1554   22.6361 O.3       1 MOL    -0.4254
     12 O         -24.9350  -42.2062   20.0869 O.co2     1 MOL    -0.5445
     13 O         -26.9579  -41.3560   19.5469 O.co2     1 MOL    -0.5445
     14 H         -30.3665  -40.3097   23.6055 H         1 MOL     0.0342
     15 H         -29.9522  -40.7755   21.9734 H         1 MOL     0.0342
     16 H         -29.3383  -39.2805   22.6369 H         1 MOL     0.0342
     17 H         -26.5479  -39.1048   24.1893 H         1 MOL     0.0654
     18 H         -24.8434  -37.4718   23.7561 H         1 MOL     0.0619
     19 H         -23.5738  -37.6210   21.7071 H         1 MOL     0.0618
     20 H         -24.0169  -39.3837   20.1268 H         1 MOL     0.0625
@<TRIPOS>BOND
     1    1    2 1 
     2    1   14 1 
     3    1   15 1 
     4    1   16 1 
     5    2   10 2 
     6    2   11 1 
     7    3    4 ar
     8    3    8 ar
     9    3   11 1 
    10    4    5 ar
    11    4   17 1 
    12    5    6 ar
    13    5   18 1 
    14    6    7 ar
    15    6   19 1 
    16    7    8 ar
    17    7   20 1 
    18    8    9 1 
    19    9   12 ar
    20    9   13 ar
@<TRIPOS>SUBSTRUCTURE
1 MOL         1
@<TRIPOS>MOLECULE
query molecule
   20    20     1     0     0
SMALL
NO_CHARGE

@<TRIPOS>ATOM
      1 C         -26.5288  -81.3963   -7.8918 C.3       1 MOL     0.1362
      2 C         -26.1307  -82.2023   -6.7100 C.2       1 MOL     0.3092
      3 C         -23.9515  -81.1766   -6.3338 C.ar      1 MOL     0.1404
      4 C         -23.8871  -79.8016   -6.4120 C.ar      1 MOL     0.0468
      5 C         -22.7603  -79.1141   -6.8174 C.ar      1 MOL     0.0037
      6 C         -21.6455  -79.8403   -7.1597 C.ar      1 MOL     0.0009
      7 C         -21.6556  -81.2168   -7.1001 C.ar      1 MOL     0.0131
      8 C         -22.8134  -81.8764   -6.6850 C.ar      1 MOL     0.0397
      9 C         -22.7818  -83.3332   -6.6361 C.2       1 MOL     0.0752
     10 O         -26.7730  -83.2305   -6.3374 O.2       1 MOL    -0.2507
     11 O         -25.0450  -81.8982   -5.9381 O.3       1 MOL    -0.4254
     12 O         -21.8409  -83.9411   -6.0647 O.co2     1 MOL    -0.5445
     13 O         -23.7794  -84.0994   -7.2152 O.co2     1 MOL    -0.5445
     14 H         -27.4032  -81.8240   -8.3362 H         1 MOL     0.0342
     15 H         -25.7317  -81.3925   -8.6054 H         1 MOL     0.0342
     16 H         -26.7377  -80.3931   -7.5850 H         1 MOL     0.0342
     17 H         -24.7249  -79.2576   -6.1539 H         1 MOL     0.0654
     18 H         -22.7555  -78.0825   -6.8610 H         1 MOL     0.0619
     19 H         -20.7905  -79.3497   -7.4656 H         1 MOL     0.0618
     20 H         -20.8140  -81.7558   -7.3587 H         1 MOL     0.0625
@<TRIPOS>BOND
     1    1    2 1 
     2    1   14 1 
     3    1   15 1 
     4    1   16 1 
     5    2   10 2 
     6    2   11 1 
     7    3    4 ar
     8    3    8 ar
     9    3   11 1 
    10    4    5 ar
    11    4   17 1 
    12    5    6 ar
    13    5   18 1 
    14    6    7 ar
    15    6   19 1 
    16    7    8 ar
    17    7   20 1 
    18    8    9 1 
    19    9   12 ar
    20    9   13 ar
@<TRIPOS>SUBSTRUCTURE
1 MOL         1
@<TRIPOS>MOLECULE
query molecule
   20    20     1     0     0
SMALL
NO_CHARGE

@<TRIPOS>ATOM
      1 C          -7.7884  -74.0213    1.1931 C.3       1 MOL     0.1362
      2 C          -6.7867  -75.0949    1.4144 C.2       1 MOL     0.3092
      3 C          -4.9831  -76.2607    0.2611 C.ar      1 MOL     0.1404
      4 C          -4.4568  -77.2848    1.0196 C.ar      1 MOL     0.0468
      5 C          -3.8519  -78.4010    0.4767 C.ar      1 MOL     0.0037
      6 C          -3.7720  -78.4946   -0.8916 C.ar      1 MOL     0.0009
      7 C          -4.2815  -77.4993   -1.6968 C.ar      1 MOL     0.0131
      8 C          -4.8862  -76.3862   -1.1111 C.ar      1 MOL     0.0397
      9 C          -5.4122  -75.3562   -1.9989 C.2       1 MOL     0.0752
     10 O          -6.9756  -76.0467    2.2312 O.2       1 MOL    -0.2507
     11 O          -5.5903  -75.1384    0.7560 O.3       1 MOL    -0.4254
     12 O          -5.0528  -74.1567   -1.8829 O.co2     1 MOL    -0.5445
     13 O          -6.3239  -75.6565   -2.9970 O.co2     1 MOL    -0.5445
     14 H          -8.6413  -74.1966    1.8149 H         1 MOL     0.0342
     15 H          -8.0896  -74.0211    0.1665 H         1 MOL     0.0342
     16 H          -7.3556  -73.0742    1.4381 H         1 MOL     0.0342
     17 H          -4.5182  -77.2134    2.0470 H         1 MOL     0.0654
     18 H          -3.4710  -79.1453    1.0825 H         1 MOL     0.0619
     19 H          -3.3248  -79.3192   -1.3219 H         1 MOL     0.0618
     20 H          -4.2179  -77.5767   -2.7243 H         1 MOL     0.0625
@<TRIPOS>BOND
     1    1    2 1 
     2    1   14 1 
     3    1   15 1 
     4    1   16 1 
     5    2   10 2 
     6    2   11 1 
     7    3    4 ar
     8    3    8 ar
     9    3   11 1 
    10    4    5 ar
    11    4   17 1 
    12    5    6 ar
    13    5   18 1 
    14    6    7 ar
    15    6   19 1 
    16    7    8 ar
    17    7   20 1 
    18    8    9 1 
    19    9   12 ar
    20    9   13 ar
@<TRIPOS>SUBSTRUCTURE
1 MOL         1
@<TRIPOS>MOLECULE
query molecule
   20    20     1     0     0
SMALL
NO_CHARGE

@<TRIPOS>ATOM
      1 C         -59.0697  -21.5103   14.4275 C.3       1 MOL     0.1362
      2 C         -59.7870  -22.2442   13.3544 C.2       1 MOL     0.3092
      3 C         -59.0716  -20.7891   11.5343 C.ar      1 MOL     0.1404
      4 C         -57.8219  -20.7910   10.9518 C.ar      1 MOL     0.0468
      5 C         -57.2110  -19.6560   10.4566 C.ar      1 MOL     0.0037
      6 C         -57.8861  -18.4631   10.5494 C.ar      1 MOL     0.0009
      7 C         -59.1376  -18.4045   11.1227 C.ar      1 MOL     0.0131
      8 C         -59.7228  -19.5733   11.6118 C.ar      1 MOL     0.0397
      9 C         -61.0479  -19.4674   12.2107 C.2       1 MOL     0.0752
     10 O         -60.5185  -23.2534   13.5893 O.2       1 MOL    -0.2507
     11 O         -59.7139  -21.8879   12.0374 O.3       1 MOL    -0.4254
     12 O         -61.8252  -20.4555   12.2407 O.co2     1 MOL    -0.5445
     13 O         -61.5001  -18.2815   12.7644 O.co2     1 MOL    -0.5445
     14 H         -59.2770  -21.9685   15.3720 H         1 MOL     0.0342
     15 H         -59.3993  -20.4927   14.4450 H         1 MOL     0.0342
     16 H         -58.0173  -21.5413   14.2383 H         1 MOL     0.0342
     17 H         -57.3165  -21.6878   10.8822 H         1 MOL     0.0654
     18 H         -56.2731  -19.7029   10.0274 H         1 MOL     0.0619
     19 H         -57.4510  -17.6005   10.1863 H         1 MOL     0.0618
     20 H         -59.6389  -17.5044   11.1888 H         1 MOL     0.0625
@<TRIPOS>BOND
     1    1    2 1 
     2    1   14 1 
     3    1   15 1 
     4    1   16 1 
     5    2   10 2 
     6    2   11 1 
     7    3    4 ar
     8    3    8 ar
     9    3   11 1 
    10    4    5 ar
    11    4   17 1 
    12    5    6 ar
    13    5   18 1 
    14    6    7 ar
    15    6   19 1 
    16    7    8 ar
    17    7   20 1 
    18    8    9 1 
    19    9   12 ar
    20    9   13 ar
@<TRIPOS>SUBSTRUCTURE
1 MOL         1
@<TRIPOS>MOLECULE
query molecule
   20    20     1     0     0
SMALL
NO_CHARGE

@<TRIPOS>ATOM
      1 C         -29.0020  -47.9103  -18.3565 C.3       1 MOL     0.1362
      2 C         -29.2717  -49.3287  -18.7031 C.2       1 MOL     0.3092
      3 C         -28.7927  -51.6750  -18.2472 C.ar      1 MOL     0.1404
      4 C         -29.0303  -52.1816  -19.5073 C.ar      1 MOL     0.0468
      5 C         -28.8577  -53.5110  -19.8383 C.ar      1 MOL     0.0037
      6 C         -28.4257  -54.3725  -18.8592 C.ar      1 MOL     0.0009
      7 C         -28.1738  -53.9190  -17.5828 C.ar      1 MOL     0.0131
      8 C         -28.3595  -52.5679  -17.2863 C.ar      1 MOL     0.0397
      9 C         -28.0816  -52.1296  -15.9239 C.2       1 MOL     0.0752
     10 O         -29.8195  -49.6724  -19.7942 O.2       1 MOL    -0.2507
     11 O         -28.9500  -50.3673  -17.8755 O.3       1 MOL    -0.4254
     12 O         -28.0108  -50.9066  -15.6394 O.co2     1 MOL    -0.5445
     13 O         -27.8841  -53.0371  -14.8968 O.co2     1 MOL    -0.5445
     14 H         -29.3374  -47.2793  -19.1529 H         1 MOL     0.0342
     15 H         -27.9510  -47.7727  -18.2110 H         1 MOL     0.0342
     16 H         -29.5227  -47.6581  -17.4568 H         1 MOL     0.0342
     17 H         -29.3539  -51.5332  -20.2417 H         1 MOL     0.0654
     18 H         -29.0472  -53.8480  -20.7957 H         1 MOL     0.0619
     19 H         -28.2888  -55.3710  -19.0816 H         1 MOL     0.0618
     20 H         -27.8493  -54.5723  -16.8523 H         1 MOL     0.0625
@<TRIPOS>BOND
     1    1    2 1 
     2    1   14 1 
     3    1   15 1 
     4    1   16 1 
     5    2   10 2 
     6    2   11 1 
     7    3    4 ar
     8    3    8 ar
     9    3   11 1 
    10    4    5 ar
    11    4   17 1 
    12    5    6 ar
    13    5   18 1 
    14    6    7 ar
    15    6   19 1 
    16    7    8 ar
    17    7   20 1 
    18    8    9 1 
    19    9   12 ar
    20    9   13 ar
@<TRIPOS>SUBSTRUCTURE
1 MOL         1
@<TRIPOS>MOLECULE
query molecule
   20    20     1     0     0
SMALL
NO_CHARGE

@<TRIPOS>ATOM
      1 C          -1.1372  -43.5999    9.9397 C.3       1 MOL     0.1362
      2 C          -0.6766  -44.4050   11.0992 C.2       1 MOL     0.3092
      3 C          -2.0146  -46.3776   10.5886 C.ar      1 MOL     0.1404
      4 C          -3.3700  -46.1271   10.6225 C.ar      1 MOL     0.0468
      5 C          -4.2943  -46.8382    9.8833 C.ar      1 MOL     0.0037
      6 C          -3.8373  -47.8477    9.0712 C.ar      1 MOL     0.0009
      7 C          -2.4928  -48.1405    9.0000 C.ar      1 MOL     0.0131
      8 C          -1.5886  -47.3991    9.7621 C.ar      1 MOL     0.0397
      9 C          -0.1752  -47.7413    9.6574 C.2       1 MOL     0.0752
     10 O           0.1093  -43.9436   11.9813 O.2       1 MOL    -0.2507
     11 O          -1.0645  -45.6992   11.3029 O.3       1 MOL    -0.4254
     12 O           0.5145  -47.9636   10.6852 O.co2     1 MOL    -0.5445
     13 O           0.4593  -47.8323    8.4300 O.co2     1 MOL    -0.5445
     14 H          -0.7057  -42.6221    9.9913 H         1 MOL     0.0342
     15 H          -2.2039  -43.5205    9.9623 H         1 MOL     0.0342
     16 H          -0.8342  -44.0772    9.0316 H         1 MOL     0.0342
     17 H          -3.7116  -45.3681   11.2323 H         1 MOL     0.0654
     18 H          -5.3013  -46.6166    9.9386 H         1 MOL     0.0619
     19 H          -4.5082  -48.3938    8.5084 H         1 MOL     0.0618
     20 H          -2.1567  -48.9004    8.3874 H         1 MOL     0.0625
@<TRIPOS>BOND
     1    1    2 1 
     2    1   14 1 
     3    1   15 1 
     4    1   16 1 
     5    2   10 2 
     6    2   11 1 
     7    3    4 ar
     8    3    8 ar
     9    3   11 1 
    10    4    5 ar
    11    4   17 1 
    12    5    6 ar
    13    5   18 1 
    14    6    7 ar
    15    6   19 1 
    16    7    8 ar
    17    7   20 1 
    18    8    9 1 
    19    9   12 ar
    20    9   13 ar
@<TRIPOS>SUBSTRUCTURE
1 MOL         1
@<TRIPOS>MOLECULE
query molecule
   20    20     1     0     0
SMALL
NO_CHARGE

@<TRIPOS>ATOM
      1 C         -39.1132  -21.7516   29.1284 C.3       1 MOL     0.1362
      2 C         -38.2751  -22.1105   30.3004 C.2       1 MOL     0.3092
      3 C         -36.4477  -23.4092   31.2577 C.ar      1 MOL     0.1404
      4 C         -35.4054  -22.7413   31.8645 C.ar      1 MOL     0.0468
      5 C         -34.6825  -23.2581   32.9214 C.ar      1 MOL     0.0037
      6 C         -35.0220  -24.5033   33.3921 C.ar      1 MOL     0.0009
      7 C         -36.0552  -25.2145   32.8219 C.ar      1 MOL     0.0131
      8 C         -36.7630  -24.6587   31.7552 C.ar      1 MOL     0.0397
      9 C         -37.8487  -25.4443   31.1808 C.2       1 MOL     0.0752
     10 O         -38.5116  -21.6744   31.4677 O.2       1 MOL    -0.2507
     11 O         -37.1900  -22.9359   30.2097 O.3       1 MOL    -0.4254
     12 O         -37.7056  -26.0397   30.0824 O.co2     1 MOL    -0.5445
     13 O         -39.0727  -25.5629   31.8174 O.co2     1 MOL    -0.5445
     14 H         -39.9009  -21.0983   29.4408 H         1 MOL     0.0342
     15 H         -39.5335  -22.6399   28.7055 H         1 MOL     0.0342
     16 H         -38.5092  -21.2590   28.3958 H         1 MOL     0.0342
     17 H         -35.1521  -21.8059   31.5103 H         1 MOL     0.0654
     18 H         -33.9088  -22.7228   33.3468 H         1 MOL     0.0619
     19 H         -34.4971  -24.9114   34.1814 H         1 MOL     0.0618
     20 H         -36.3046  -26.1496   33.1811 H         1 MOL     0.0625
@<TRIPOS>BOND
     1    1    2 1 
     2    1   14 1 
     3    1   15 1 
     4    1   16 1 
     5    2   10 2 
     6    2   11 1 
     7    3    4 ar
     8    3    8 ar
     9    3   11 1 
    10    4    5 ar
    11    4   17 1 
    12    5    6 ar
    13    5   18 1 
    14    6    7 ar
    15    6   19 1 
    16    7    8 ar
    17    7   20 1 
    18    8    9 1 
    19    9   12 ar
    20    9   13 ar
@<TRIPOS>SUBSTRUCTURE
1 MOL         1
@<TRIPOS>MOLECULE
query molecule
   20    20     1     0     0
SMALL
NO_CHARGE

@<TRIPOS>ATOM
      1 C         -14.5897  -35.4685   31.8000 C.3       1 MOL     0.1362
      2 C         -14.5637  -34.0171   31.4880 C.2       1 MOL     0.3092
      3 C         -14.7394  -32.8329   29.3645 C.ar      1 MOL     0.1404
      4 C         -15.4659  -32.2397   28.3540 C.ar      1 MOL     0.0468
      5 C         -14.8880  -31.6073   27.2710 C.ar      1 MOL     0.0037
      6 C         -13.5167  -31.5676   27.1989 C.ar      1 MOL     0.0009
      7 C         -12.7425  -32.1452   28.1815 C.ar      1 MOL     0.0131
      8 C         -13.3631  -32.7751   29.2613 C.ar      1 MOL     0.0397
      9 C         -12.5074  -33.3734   30.2788 C.2       1 MOL     0.0752
     10 O         -13.8820  -33.1863   32.1616 O.2       1 MOL    -0.2507
     11 O         -15.2694  -33.4692   30.4541 O.3       1 MOL    -0.4254
     12 O         -11.3569  -32.9190   30.5056 O.co2     1 MOL    -0.5445
     13 O         -12.9247  -34.4599   31.0292 O.co2     1 MOL    -0.5445
     14 H         -13.9638  -35.6620   32.6460 H         1 MOL     0.0342
     15 H         -14.2305  -36.0207   30.9570 H         1 MOL     0.0342
     16 H         -15.5927  -35.7675   32.0213 H         1 MOL     0.0342
     17 H         -16.4957  -32.2696   28.4099 H         1 MOL     0.0654
     18 H         -15.4706  -31.1753   26.5362 H         1 MOL     0.0619
     19 H         -13.0606  -31.1005   26.3996 H         1 MOL     0.0618
     20 H         -11.7125  -32.1113   28.1206 H         1 MOL     0.0625
@<TRIPOS>BOND
     1    1    2 1 
     2    1   14 1 
     3    1   15 1 
     4    1   16 1 
     5    2   10 2 
     6    2   11 1 
     7    3    4 ar
     8    3    8 ar
     9    3   11 1 
    10    4    5 ar
    11    4   17 1 
    12    5    6 ar
    13    5   18 1 
    14    6    7 ar
    15    6   19 1 
    16    7    8 ar
    17    7   20 1 
    18    8    9 1 
    19    9   12 ar
    20    9   13 ar
@<TRIPOS>SUBSTRUCTURE
1 MOL         1
@<TRIPOS>MOLECULE
query molecule
   20    20     1     0     0
SMALL
NO_CHARGE

@<TRIPOS>ATOM
      1 C         -16.0553  -40.4774   -8.7529 C.3       1 MOL     0.1362
      2 C         -16.5551  -41.2557   -9.9145 C.2       1 MOL     0.3092
      3 C         -14.8721  -40.5276  -11.5207 C.ar      1 MOL     0.1404
      4 C         -15.0409  -39.1957  -11.8345 C.ar      1 MOL     0.0468
      5 C         -14.0157  -38.3809  -12.2723 C.ar      1 MOL     0.0037
      6 C         -12.7620  -38.9279  -12.4005 C.ar      1 MOL     0.0009
      7 C         -12.5379  -40.2540  -12.1008 C.ar      1 MOL     0.0131
      8 C         -13.5994  -41.0460  -11.6607 C.ar      1 MOL     0.0397
      9 C         -13.3193  -42.4437  -11.3543 C.2       1 MOL     0.0752
     10 O         -17.6664  -41.8669   -9.8992 O.2       1 MOL    -0.2507
     11 O         -15.8579  -41.3707  -11.0840 O.3       1 MOL    -0.4254
     12 O         -12.5397  -43.1199  -12.0729 O.co2     1 MOL    -0.5445
     13 O         -13.8989  -43.0776  -10.2681 O.co2     1 MOL    -0.5445
     14 H         -16.7676  -40.5301   -7.9562 H         1 MOL     0.0342
     15 H         -15.9174  -39.4563   -9.0409 H         1 MOL     0.0342
     16 H         -15.1219  -40.8850   -8.4259 H         1 MOL     0.0342
     17 H         -15.9828  -38.7862  -11.7370 H         1 MOL     0.0654
     18 H         -14.1865  -37.3875  -12.4962 H         1 MOL     0.0619
     19 H         -11.9789  -38.3396  -12.7257 H         1 MOL     0.0618
     20 H         -11.5931  -40.6580  -12.1995 H         1 MOL     0.0625
@<TRIPOS>BOND
     1    1    2 1 
     2    1   14 1 
     3    1   15 1 
     4    1   16 1 
     5    2   10 2 
     6    2   11 1 
     7    3    4 ar
     8    3    8 ar
     9    3   11 1 
    10    4    5 ar
    11    4   17 1 
    12    5    6 ar
    13    5   18 1 
    14    6    7 ar
    15    6   19 1 
    16    7    8 ar
    17    7   20 1 
    18    8    9 1 
    19    9   12 ar
    20    9   13 ar
@<TRIPOS>SUBSTRUCTURE
1 MOL         1
@<TRIPOS>MOLECULE
query molecule
   20    20     1     0     0
SMALL
NO_CHARGE

@<TRIPOS>ATOM
      1 C         -31.1901  -24.4918  -13.2721 C.3       1 MOL     0.1362
      2 C         -30.9310  -25.7585  -14.0024 C.2       1 MOL     0.3092
      3 C         -31.7214  -27.4041  -12.3870 C.ar      1 MOL     0.1404
      4 C         -31.3482  -27.6613  -11.0849 C.ar      1 MOL     0.0468
      5 C         -32.2276  -28.0937  -10.1121 C.ar      1 MOL     0.0037
      6 C         -33.5435  -28.2760  -10.4621 C.ar      1 MOL     0.0009
      7 C         -33.9702  -28.0341  -11.7497 C.ar      1 MOL     0.0131
      8 C         -33.0516  -27.5975  -12.7054 C.ar      1 MOL     0.0397
      9 C         -33.5443  -27.3532  -14.0557 C.2       1 MOL     0.0752
     10 O         -30.7337  -25.7961  -15.2547 O.2       1 MOL    -0.2507
     11 O         -30.8851  -26.9749  -13.3817 O.3       1 MOL    -0.4254
     12 O         -32.7596  -27.3405  -15.0383 O.co2     1 MOL    -0.5445
     13 O         -34.8868  -27.1251  -14.3069 O.co2     1 MOL    -0.5445
     14 H         -31.1782  -23.6742  -13.9623 H         1 MOL     0.0342
     15 H         -30.4310  -24.3452  -12.5326 H         1 MOL     0.0342
     16 H         -32.1465  -24.5441  -12.7960 H         1 MOL     0.0342
     17 H         -30.3597  -27.5232  -10.8234 H         1 MOL     0.0654
     18 H         -31.9051  -28.2742   -9.1480 H         1 MOL     0.0619
     19 H         -34.2206  -28.5983   -9.7530 H         1 MOL     0.0618
     20 H         -34.9607  -28.1731  -12.0052 H         1 MOL     0.0625
@<TRIPOS>BOND
     1    1    2 1 
     2    1   14 1 
     3    1   15 1 
     4    1   16 1 
     5    2   10 2 
     6    2   11 1 
     7    3    4 ar
     8    3    8 ar
     9    3   11 1 
    10    4    5 ar
    11    4   17 1 
    12    5    6 ar
    13    5   18 1 
    14    6    7 ar
    15    6   19 1 
    16    7    8 ar
    17    7   20 1 
    18    8    9 1 
    19    9   12 ar
    20    9   13 ar
@<TRIPOS>SUBSTRUCTURE
1 MOL         1
@<TRIPOS>MOLECULE
query molecule
   20    20     1     0     0
SMALL
NO_CHARGE

@<TRIPOS>ATOM
      1 C          -9.6696  -82.0056  -12.1066 C.3       1 MOL     0.1362
      2 C          -9.7764  -80.7264  -12.8530 C.2       1 MOL     0.3092
      3 C         -10.9324  -79.3265  -14.4797 C.ar      1 MOL     0.1404
      4 C         -10.1289  -78.9307  -15.5279 C.ar      1 MOL     0.0468
      5 C         -10.3243  -77.7627  -16.2381 C.ar      1 MOL     0.0037
      6 C         -11.3758  -76.9542  -15.8802 C.ar      1 MOL     0.0009
      7 C         -12.2096  -77.3019  -14.8398 C.ar      1 MOL     0.0131
      8 C         -11.9803  -78.4908  -14.1457 C.ar      1 MOL     0.0397
      9 C         -12.8859  -78.8213  -13.0519 C.2       1 MOL     0.0752
     10 O          -8.9440  -79.7804  -12.7084 O.2       1 MOL    -0.2507
     11 O         -10.7759  -80.4735  -13.7496 O.3       1 MOL    -0.4254
     12 O         -14.0582  -78.3672  -13.0229 O.co2     1 MOL    -0.5445
     13 O         -12.4921  -79.6413  -12.0078 O.co2     1 MOL    -0.5445
     14 H          -8.8120  -81.9743  -11.4675 H         1 MOL     0.0342
     15 H          -9.5688  -82.8148  -12.7991 H         1 MOL     0.0342
     16 H         -10.5504  -82.1485  -11.5166 H         1 MOL     0.0342
     17 H          -9.3401  -79.5394  -15.7959 H         1 MOL     0.0654
     18 H          -9.6979  -77.5047  -17.0172 H         1 MOL     0.0619
     19 H         -11.5431  -76.0760  -16.3957 H         1 MOL     0.0618
     20 H         -12.9978  -76.6894  -14.5768 H         1 MOL     0.0625
@<TRIPOS>BOND
     1    1    2 1 
     2    1   14 1 
     3    1   15 1 
     4    1   16 1 
     5    2   10 2 
     6    2   11 1 
     7    3    4 ar
     8    3    8 ar
     9    3   11 1 
    10    4    5 ar
    11    4   17 1 
    12    5    6 ar
    13    5   18 1 
    14    6    7 ar
    15    6   19 1 
    16    7    8 ar
    17    7   20 1 
    18    8    9 1 
    19    9   12 ar
    20    9   13 ar
@<TRIPOS>SUBSTRUCTURE
1 MOL         1
@<TRIPOS>MOLECULE
query molecule
   20    20     1     0     0
SMALL
NO_CHARGE

@<TRIPOS>ATOM
      1 C         -27.1567  -46.5916   32.6525 C.3       1 MOL     0.1362
      2 C         -27.2636  -47.1463   31.2793 C.2       1 MOL     0.3092
      3 C         -26.7832  -45.0523   30.1277 C.ar      1 MOL     0.1404
      4 C         -27.7191  -44.0402   30.1546 C.ar      1 MOL     0.0468
      5 C         -27.3914  -42.6992   30.1221 C.ar      1 MOL     0.0037
      6 C         -26.0622  -42.3576   30.0605 C.ar      1 MOL     0.0009
      7 C         -25.0857  -43.3292   30.0307 C.ar      1 MOL     0.0131
      8 C         -25.4560  -44.6744   30.0655 C.ar      1 MOL     0.0397
      9 C         -24.3918  -45.6704   30.0322 C.2       1 MOL     0.0752
     10 O         -27.5505  -48.3612   31.0545 O.2       1 MOL    -0.2507
     11 O         -27.0625  -46.3917   30.1581 O.3       1 MOL    -0.4254
     12 O         -24.0527  -46.2899   31.0728 O.co2     1 MOL    -0.5445
     13 O         -23.7158  -45.9696   28.8613 O.co2     1 MOL    -0.5445
     14 H         -27.3555  -47.3645   33.3652 H         1 MOL     0.0342
     15 H         -27.8687  -45.8025   32.7744 H         1 MOL     0.0342
     16 H         -26.1698  -46.2085   32.8062 H         1 MOL     0.0342
     17 H         -28.7170  -44.2983   30.2017 H         1 MOL     0.0654
     18 H         -28.1253  -41.9732   30.1446 H         1 MOL     0.0619
     19 H         -25.7914  -41.3620   30.0355 H         1 MOL     0.0618
     20 H         -24.0889  -43.0649   29.9845 H         1 MOL     0.0625
@<TRIPOS>BOND
     1    1    2 1 
     2    1   14 1 
     3    1   15 1 
     4    1   16 1 
     5    2   10 2 
     6    2   11 1 
     7    3    4 ar
     8    3    8 ar
     9    3   11 1 
    10    4    5 ar
    11    4   17 1 
    12    5    6 ar
    13    5   18 1 
    14    6    7 ar
    15    6   19 1 
    16    7    8 ar
    17    7   20 1 
    18    8    9 1 
    19    9   12 ar
    20    9   13 ar
@<TRIPOS>SUBSTRUCTURE
1 MOL         1
@<TRIPOS>MOLECULE
query molecule
   20    20     1     0     0
SMALL
NO_CHARGE

@<TRIPOS>ATOM
      1 C         -20.2288  -25.6273    2.0377 C.3       1 MOL     0.1362
      2 C         -21.3838  -24.8644    2.5750 C.2       1 MOL     0.3092
      3 C         -23.6383  -25.0003    1.6580 C.ar      1 MOL     0.1404
      4 C         -23.9100  -26.1415    0.9336 C.ar      1 MOL     0.0468
      5 C         -25.1705  -26.6957    0.8305 C.ar      1 MOL     0.0037
      6 C         -26.2070  -26.0763    1.4858 C.ar      1 MOL     0.0009
      7 C         -25.9911  -24.9329    2.2235 C.ar      1 MOL     0.0131
      8 C         -24.7027  -24.4025    2.3045 C.ar      1 MOL     0.0397
      9 C         -24.5177  -23.1917    3.0953 C.2       1 MOL     0.0752
     10 O         -21.4980  -24.5750    3.8047 O.2       1 MOL    -0.2507
     11 O         -22.4068  -24.4173    1.7873 O.3       1 MOL    -0.4254
     12 O         -24.4324  -23.2444    4.3489 O.co2     1 MOL    -0.5445
     13 O         -24.4312  -21.9441    2.5008 O.co2     1 MOL    -0.5445
     14 H         -19.5586  -25.8680    2.8364 H         1 MOL     0.0342
     15 H         -19.7171  -25.0334    1.3097 H         1 MOL     0.0342
     16 H         -20.5788  -26.5288    1.5806 H         1 MOL     0.0342
     17 H         -23.1304  -26.6059    0.4426 H         1 MOL     0.0654
     18 H         -25.3294  -27.5527    0.2770 H         1 MOL     0.0619
     19 H         -27.1586  -26.4712    1.4245 H         1 MOL     0.0618
     20 H         -26.7749  -24.4730    2.7134 H         1 MOL     0.0625
@<TRIPOS>BOND
     1    1    2 1 
     2    1   14 1 
     3    1   15 1 
     4    1   16 1 
     5    2   10 2 
     6    2   11 1 
     7    3    4 ar
     8    3    8 ar
     9    3   11 1 
    10    4    5 ar
    11    4   17 1 
    12    5    6 ar
    13    5   18 1 
    14    6    7 ar
    15    6   19 1 
    16    7    8 ar
    17    7   20 1 
    18    8    9 1 
    19    9   12 ar
    20    9   13 ar
@<TRIPOS>SUBSTRUCTURE
1 MOL         1
@<TRIPOS>MOLECULE
query molecule
   20    20     1     0     0
SMALL
NO_CHARGE

@<TRIPOS>ATOM
      1 C         -71.1507  -23.5268   15.6801 C.3       1 MOL     0.1362
      2 C         -70.8288  -22.4803   14.6771 C.2       1 MOL     0.3092
      3 C         -69.5362  -21.7370   12.7486 C.ar      1 MOL     0.1404
      4 C         -70.2520  -21.4615   11.6030 C.ar      1 MOL     0.0468
      5 C         -69.8593  -20.5260   10.6663 C.ar      1 MOL     0.0037
      6 C         -68.6939  -19.8338   10.8901 C.ar      1 MOL     0.0009
      7 C         -67.9396  -20.0702   12.0187 C.ar      1 MOL     0.0131
      8 C         -68.3694  -21.0235   12.9430 C.ar      1 MOL     0.0397
      9 C         -67.5421  -21.2428   14.1233 C.2       1 MOL     0.0752
     10 O         -71.4071  -21.3516   14.6587 O.2       1 MOL    -0.2507
     11 O         -69.8874  -22.6539   13.7021 O.3       1 MOL    -0.4254
     12 O         -66.7359  -20.3634   14.5209 O.co2     1 MOL    -0.5445
     13 O         -67.6100  -22.4216   14.8468 O.co2     1 MOL    -0.5445
     14 H         -71.9134  -23.1662   16.3383 H         1 MOL     0.0342
     15 H         -70.2731  -23.7605   16.2455 H         1 MOL     0.0342
     16 H         -71.4970  -24.4061   15.1790 H         1 MOL     0.0342
     17 H         -71.1275  -21.9816   11.4367 H         1 MOL     0.0654
     18 H         -70.4265  -20.3509    9.8216 H         1 MOL     0.0619
     19 H         -68.3790  -19.1290   10.2051 H         1 MOL     0.0618
     20 H         -67.0650  -19.5460   12.1801 H         1 MOL     0.0625
@<TRIPOS>BOND
     1    1    2 1 
     2    1   14 1 
     3    1   15 1 
     4    1   16 1 
     5    2   10 2 
     6    2   11 1 
     7    3    4 ar
     8    3    8 ar
     9    3   11 1 
    10    4    5 ar
    11    4   17 1 
    12    5    6 ar
    13    5   18 1 
    14    6    7 ar
    15    6   19 1 
    16    7    8 ar
    17    7   20 1 
    18    8    9 1 
    19    9   12 ar
    20    9   13 ar
@<TRIPOS>SUBSTRUCTURE
1 MOL         1
@<TRIPOS>MOLECULE
query molecule
   20    20     1     0     0
SMALL
NO_CHARGE

@<TRIPOS>ATOM
      1 C         -39.2993  -79.1611   22.4117 C.3       1 MOL     0.1362
      2 C         -38.2261  -78.5448   21.5912 C.2       1 MOL     0.3092
      3 C         -39.2793  -76.4956   20.7951 C.ar      1 MOL     0.1404
      4 C         -40.5665  -76.5620   21.2845 C.ar      1 MOL     0.0468
      5 C         -41.6116  -75.8121   20.7823 C.ar      1 MOL     0.0037
      6 C         -41.3527  -74.9547   19.7406 C.ar      1 MOL     0.0009
      7 C         -40.0841  -74.8495   19.2132 C.ar      1 MOL     0.0131
      8 C         -39.0533  -75.6237   19.7478 C.ar      1 MOL     0.0397
      9 C         -37.7263  -75.4821   19.1608 C.2       1 MOL     0.0752
     10 O         -37.2454  -79.2101   21.1391 O.2       1 MOL    -0.2507
     11 O         -38.2151  -77.2188   21.2616 O.3       1 MOL    -0.4254
     12 O         -37.4584  -74.5251   18.3901 O.co2     1 MOL    -0.5445
     13 O         -36.7160  -76.3913   19.4257 O.co2     1 MOL    -0.5445
     14 H         -39.0964  -80.2042   22.5377 H         1 MOL     0.0342
     15 H         -40.2404  -79.0380   21.9181 H         1 MOL     0.0342
     16 H         -39.3336  -78.6852   23.3691 H         1 MOL     0.0342
     17 H         -40.7592  -77.2059   22.0674 H         1 MOL     0.0654
     18 H         -42.5612  -75.8930   21.1795 H         1 MOL     0.0619
     19 H         -42.1169  -74.3830   19.3477 H         1 MOL     0.0618
     20 H         -39.8972  -74.2028   18.4305 H         1 MOL     0.0625
@<TRIPOS>BOND
     1    1    2 1 
     2    1   14 1 
     3    1   15 1 
     4    1   16 1 
     5    2   10 2 
     6    2   11 1 
     7    3    4 ar
     8    3    8 ar
     9    3   11 1 
    10    4    5 ar
    11    4   17 1 
    12    5    6 ar
    13    5   18 1 
    14    6    7 ar
    15    6   19 1 
    16    7    8 ar
    17    7   20 1 
    18    8    9 1 
    19    9   12 ar
    20    9   13 ar
@<TRIPOS>SUBSTRUCTURE
1 MOL         1
@<TRIPOS>MOLECULE
query molecule
   20    20     1     0     0
SMALL
NO_CHARGE

@<TRIPOS>ATOM
      1 C         -31.2611  -48.5340  -10.4498 C.3       1 MOL     0.1362
      2 C         -31.8036  -49.4206   -9.3894 C.2       1 MOL     0.3092
      3 C         -30.4761  -50.5296   -7.6718 C.ar      1 MOL     0.1404
      4 C         -31.0320  -50.1565   -6.4665 C.ar      1 MOL     0.0468
      5 C         -30.3561  -50.2204   -5.2641 C.ar      1 MOL     0.0037
      6 C         -29.0618  -50.6810   -5.2713 C.ar      1 MOL     0.0009
      7 C         -28.4576  -51.0664   -6.4481 C.ar      1 MOL     0.0131
      8 C         -29.1733  -50.9879   -7.6437 C.ar      1 MOL     0.0397
      9 C         -28.4970  -51.4055   -8.8659 C.2       1 MOL     0.0752
     10 O         -32.9528  -49.2512   -8.8801 O.2       1 MOL    -0.2507
     11 O         -31.1080  -50.4830   -8.8849 O.3       1 MOL    -0.4254
     12 O         -27.2739  -51.6980   -8.8611 O.co2     1 MOL    -0.5445
     13 O         -29.1704  -51.4938  -10.0727 O.co2     1 MOL    -0.5445
     14 H         -31.9804  -47.7770  -10.6833 H         1 MOL     0.0342
     15 H         -31.0544  -49.1119  -11.3261 H         1 MOL     0.0342
     16 H         -30.3587  -48.0755  -10.1038 H         1 MOL     0.0342
     17 H         -32.0044  -49.8116   -6.4627 H         1 MOL     0.0654
     18 H         -30.8113  -49.9309   -4.3838 H         1 MOL     0.0619
     19 H         -28.5353  -50.7385   -4.3855 H         1 MOL     0.0618
     20 H         -27.4847  -51.4116   -6.4456 H         1 MOL     0.0625
@<TRIPOS>BOND
     1    1    2 1 
     2    1   14 1 
     3    1   15 1 
     4    1   16 1 
     5    2   10 2 
     6    2   11 1 
     7    3    4 ar
     8    3    8 ar
     9    3   11 1 
    10    4    5 ar
    11    4   17 1 
    12    5    6 ar
    13    5   18 1 
    14    6    7 ar
    15    6   19 1 
    16    7    8 ar
    17    7   20 1 
    18    8    9 1 
    19    9   12 ar
    20    9   13 ar
@<TRIPOS>SUBSTRUCTURE
1 MOL         1
@<TRIPOS>MOLECULE
query molecule
   20    20     1     0     0
SMALL
NO_CHARGE

@<TRIPOS>ATOM
      1 C          -9.5009  -57.0932   16.8905 C.3       1 MOL     0.1362
      2 C          -9.4130  -55.6855   16.4263 C.2       1 MOL     0.3092
      3 C         -10.4337  -53.9373   15.0682 C.ar      1 MOL     0.1404
      4 C         -11.0583  -53.1020   15.9699 C.ar      1 MOL     0.0468
      5 C         -11.4169  -51.8005   15.6799 C.ar      1 MOL     0.0037
      6 C         -11.1348  -51.3139   14.4265 C.ar      1 MOL     0.0009
      7 C         -10.5123  -52.1062   13.4868 C.ar      1 MOL     0.0131
      8 C         -10.1647  -53.4169   13.8173 C.ar      1 MOL     0.0397
      9 C          -9.5076  -54.2212   12.7941 C.2       1 MOL     0.0752
     10 O          -8.7280  -54.8079   17.0340 O.2       1 MOL    -0.2507
     11 O         -10.0610  -55.2314   15.3124 O.3       1 MOL    -0.4254
     12 O         -10.1389  -55.1072   12.1631 O.co2     1 MOL    -0.5445
     13 O          -8.1705  -54.0436   12.4805 O.co2     1 MOL    -0.5445
     14 H          -8.9133  -57.2130   17.7768 H         1 MOL     0.0342
     15 H          -9.1305  -57.7441   16.1265 H         1 MOL     0.0342
     16 H         -10.5210  -57.3356   17.1021 H         1 MOL     0.0342
     17 H         -11.2687  -53.4687   16.9111 H         1 MOL     0.0654
     18 H         -11.8833  -51.2090   16.3861 H         1 MOL     0.0619
     19 H         -11.3926  -50.3441   14.1853 H         1 MOL     0.0618
     20 H         -10.3034  -51.7336   12.5470 H         1 MOL     0.0625
@<TRIPOS>BOND
     1    1    2 1 
     2    1   14 1 
     3    1   15 1 
     4    1   16 1 
     5    2   10 2 
     6    2   11 1 
     7    3    4 ar
     8    3    8 ar
     9    3   11 1 
    10    4    5 ar
    11    4   17 1 
    12    5    6 ar
    13    5   18 1 
    14    6    7 ar
    15    6   19 1 
    16    7    8 ar
    17    7   20 1 
    18    8    9 1 
    19    9   12 ar
    20    9   13 ar
@<TRIPOS>SUBSTRUCTURE
1 MOL         1
@<TRIPOS>MOLECULE
query molecule
   20    20     1     0     0
SMALL
NO_CHARGE

@<TRIPOS>ATOM
      1 C         -29.1467  -55.2885  -21.5141 C.3       1 MOL     0.1362
      2 C         -30.0023  -56.4974  -21.4084 C.2       1 MOL     0.3092
      3 C         -30.4106  -58.6005  -20.2454 C.ar      1 MOL     0.1404
      4 C         -31.6334  -58.3702  -19.6515 C.ar      1 MOL     0.0468
      5 C         -32.4246  -59.3718  -19.1247 C.ar      1 MOL     0.0037
      6 C         -31.9678  -60.6654  -19.1981 C.ar      1 MOL     0.0009
      7 C         -30.7525  -60.9515  -19.7809 C.ar      1 MOL     0.0131
      8 C         -29.9810  -59.9121  -20.3027 C.ar      1 MOL     0.0397
      9 C         -28.7018  -60.2581  -20.9106 C.2       1 MOL     0.0752
     10 O         -31.1716  -56.5508  -21.8968 O.2       1 MOL    -0.2507
     11 O         -29.5950  -57.6401  -20.7797 O.3       1 MOL    -0.4254
     12 O         -27.7680  -59.4182  -20.9753 O.co2     1 MOL    -0.5445
     13 O         -28.4673  -61.5164  -21.4389 O.co2     1 MOL    -0.5445
     14 H         -29.6740  -54.5246  -22.0464 H         1 MOL     0.0342
     15 H         -28.2475  -55.5332  -22.0396 H         1 MOL     0.0342
     16 H         -28.9026  -54.9377  -20.5335 H         1 MOL     0.0342
     17 H         -31.9754  -57.3983  -19.5978 H         1 MOL     0.0654
     18 H         -33.3349  -59.1545  -18.6886 H         1 MOL     0.0619
     19 H         -32.5408  -61.4320  -18.8119 H         1 MOL     0.0618
     20 H         -30.4159  -61.9261  -19.8325 H         1 MOL     0.0625
@<TRIPOS>BOND
     1    1    2 1 
     2    1   14 1 
     3    1   15 1 
     4    1   16 1 
     5    2   10 2 
     6    2   11 1 
     7    3    4 ar
     8    3    8 ar
     9    3   11 1 
    10    4    5 ar
    11    4   17 1 
    12    5    6 ar
    13    5   18 1 
    14    6    7 ar
    15    6   19 1 
    16    7    8 ar
    17    7   20 1 
    18    8    9 1 
    19    9   12 ar
    20    9   13 ar
@<TRIPOS>SUBSTRUCTURE
1 MOL         1
@<TRIPOS>MOLECULE
query molecule
   20    20     1     0     0
SMALL
NO_CHARGE

@<TRIPOS>ATOM
      1 C         -31.7992  -30.0244   20.5057 C.3       1 MOL     0.1362
      2 C         -31.7361  -28.6641   19.9136 C.2       1 MOL     0.3092
      3 C         -30.2983  -26.7036   20.0906 C.ar      1 MOL     0.1404
      4 C         -30.5744  -25.4284   19.6453 C.ar      1 MOL     0.0468
      5 C         -29.6115  -24.5669   19.1580 C.ar      1 MOL     0.0037
      6 C         -28.3103  -25.0054   19.1162 C.ar      1 MOL     0.0009
      7 C         -27.9790  -26.2711   19.5484 C.ar      1 MOL     0.0131
      8 C         -28.9802  -27.1131   20.0349 C.ar      1 MOL     0.0397
      9 C         -28.5871  -28.4439   20.4820 C.2       1 MOL     0.0752
     10 O         -32.1598  -28.4078   18.7459 O.2       1 MOL    -0.2507
     11 O         -31.2193  -27.5895   20.5806 O.3       1 MOL    -0.4254
     12 O         -28.5660  -28.7356   21.7051 O.co2     1 MOL    -0.5445
     13 O         -28.2219  -29.4319   19.5831 O.co2     1 MOL    -0.5445
     14 H         -32.2416  -30.6986   19.8023 H         1 MOL     0.0342
     15 H         -32.3919  -29.9983   21.3959 H         1 MOL     0.0342
     16 H         -30.8104  -30.3551   20.7449 H         1 MOL     0.0342
     17 H         -31.5521  -25.1002   19.6781 H         1 MOL     0.0654
     18 H         -29.8626  -23.6190   18.8349 H         1 MOL     0.0619
     19 H         -27.5720  -24.3803   18.7565 H         1 MOL     0.0618
     20 H         -26.9990  -26.5936   19.5141 H         1 MOL     0.0625
@<TRIPOS>BOND
     1    1    2 1 
     2    1   14 1 
     3    1   15 1 
     4    1   16 1 
     5    2   10 2 
     6    2   11 1 
     7    3    4 ar
     8    3    8 ar
     9    3   11 1 
    10    4    5 ar
    11    4   17 1 
    12    5    6 ar
    13    5   18 1 
    14    6    7 ar
    15    6   19 1 
    16    7    8 ar
    17    7   20 1 
    18    8    9 1 
    19    9   12 ar
    20    9   13 ar
@<TRIPOS>SUBSTRUCTURE
1 MOL         1
@<TRIPOS>MOLECULE
query molecule
   20    20     1     0     0
SMALL
NO_CHARGE

@<TRIPOS>ATOM
      1 C         -70.4317  -48.8306  -14.8667 C.3       1 MOL     0.1362
      2 C         -69.3098  -49.7862  -14.6853 C.2       1 MOL     0.3092
      3 C         -67.1635  -48.6640  -14.9617 C.ar      1 MOL     0.1404
      4 C         -67.2872  -47.3259  -15.2703 C.ar      1 MOL     0.0468
      5 C         -66.3434  -46.6202  -15.9899 C.ar      1 MOL     0.0037
      6 C         -65.2224  -47.2883  -16.4194 C.ar      1 MOL     0.0009
      7 C         -65.0488  -48.6261  -16.1391 C.ar      1 MOL     0.0131
      8 C         -66.0248  -49.3056  -15.4086 C.ar      1 MOL     0.0397
      9 C         -65.8021  -50.7200  -15.1337 C.2       1 MOL     0.0752
     10 O         -69.4252  -51.0270  -14.9218 O.2       1 MOL    -0.2507
     11 O         -68.0723  -49.4016  -14.2523 O.3       1 MOL    -0.4254
     12 O         -64.8837  -51.3548  -15.7125 O.co2     1 MOL    -0.5445
     13 O         -66.5897  -51.4156  -14.2318 O.co2     1 MOL    -0.5445
     14 H         -71.2963  -49.3580  -15.2121 H         1 MOL     0.0342
     15 H         -70.1553  -48.0890  -15.5866 H         1 MOL     0.0342
     16 H         -70.6510  -48.3571  -13.9329 H         1 MOL     0.0342
     17 H         -68.1293  -46.8255  -14.9463 H         1 MOL     0.0654
     18 H         -66.4762  -45.6178  -16.1985 H         1 MOL     0.0619
     19 H         -64.5022  -46.7830  -16.9589 H         1 MOL     0.0618
     20 H         -64.2037  -49.1214  -16.4651 H         1 MOL     0.0625
@<TRIPOS>BOND
     1    1    2 1 
     2    1   14 1 
     3    1   15 1 
     4    1   16 1 
     5    2   10 2 
     6    2   11 1 
     7    3    4 ar
     8    3    8 ar
     9    3   11 1 
    10    4    5 ar
    11    4   17 1 
    12    5    6 ar
    13    5   18 1 
    14    6    7 ar
    15    6   19 1 
    16    7    8 ar
    17    7   20 1 
    18    8    9 1 
    19    9   12 ar
    20    9   13 ar
@<TRIPOS>SUBSTRUCTURE
1 MOL         1
@<TRIPOS>MOLECULE
query molecule
   20    20     1     0     0
SMALL
NO_CHARGE

@<TRIPOS>ATOM
      1 C         -70.3352  -23.4652    5.6604 C.3       1 MOL     0.1362
      2 C         -69.7174  -23.7813    6.9731 C.2       1 MOL     0.3092
      3 C         -67.7458  -22.3798    6.6720 C.ar      1 MOL     0.1404
      4 C         -68.0094  -21.0278    6.6122 C.ar      1 MOL     0.0468
      5 C         -67.2260  -20.1295    5.9151 C.ar      1 MOL     0.0037
      6 C         -66.1259  -20.6102    5.2472 C.ar      1 MOL     0.0009
      7 C         -65.8167  -21.9526    5.2734 C.ar      1 MOL     0.0131
      8 C         -66.6324  -22.8299    5.9895 C.ar      1 MOL     0.0397
      9 C         -66.2698  -24.2421    5.9915 C.2       1 MOL     0.0752
     10 O         -70.2856  -24.5182    7.8350 O.2       1 MOL    -0.2507
     11 O         -68.4935  -23.3044    7.3495 O.3       1 MOL    -0.4254
     12 O         -67.0703  -25.1151    6.4141 O.co2     1 MOL    -0.5445
     13 O         -65.0366  -24.6742    5.5330 O.co2     1 MOL    -0.5445
     14 H         -71.2876  -23.9477    5.5898 H         1 MOL     0.0342
     15 H         -69.6994  -23.8144    4.8740 H         1 MOL     0.0342
     16 H         -70.4630  -22.4068    5.5724 H         1 MOL     0.0342
     17 H         -68.8355  -20.6682    7.1150 H         1 MOL     0.0654
     18 H         -67.4601  -19.1240    5.8972 H         1 MOL     0.0619
     19 H         -65.5243  -19.9589    4.7190 H         1 MOL     0.0618
     20 H         -64.9883  -22.3065    4.7692 H         1 MOL     0.0625
@<TRIPOS>BOND
     1    1    2 1 
     2    1   14 1 
     3    1   15 1 
     4    1   16 1 
     5    2   10 2 
     6    2   11 1 
     7    3    4 ar
     8    3    8 ar
     9    3   11 1 
    10    4    5 ar
    11    4   17 1 
    12    5    6 ar
    13    5   18 1 
    14    6    7 ar
    15    6   19 1 
    16    7    8 ar
    17    7   20 1 
    18    8    9 1 
    19    9   12 ar
    20    9   13 ar
@<TRIPOS>SUBSTRUCTURE
1 MOL         1
@<TRIPOS>MOLECULE
query molecule
   20    20     1     0     0
SMALL
NO_CHARGE

@<TRIPOS>ATOM
      1 C         -44.4096  -70.3071  -16.2897 C.3       1 MOL     0.1362
      2 C         -43.7887  -69.3511  -17.2413 C.2       1 MOL     0.3092
      3 C         -43.8128  -68.2055  -19.3929 C.ar      1 MOL     0.1404
      4 C         -42.7183  -68.4807  -20.1849 C.ar      1 MOL     0.0468
      5 C         -42.2166  -67.6003  -21.1229 C.ar      1 MOL     0.0037
      6 C         -42.8431  -66.3870  -21.2739 C.ar      1 MOL     0.0009
      7 C         -43.9408  -66.0606  -20.5078 C.ar      1 MOL     0.0131
      8 C         -44.4190  -66.9770  -19.5700 C.ar      1 MOL     0.0397
      9 C         -45.5825  -66.5923  -18.7802 C.2       1 MOL     0.0752
     10 O         -42.6987  -68.7520  -16.9932 O.2       1 MOL    -0.2507
     11 O         -44.3430  -69.0468  -18.4526 O.3       1 MOL    -0.4254
     12 O         -46.7212  -67.0615  -19.0346 O.co2     1 MOL    -0.5445
     13 O         -45.4801  -65.6992  -17.7268 O.co2     1 MOL    -0.5445
     14 H         -43.7989  -70.3854  -15.4146 H         1 MOL     0.0342
     15 H         -44.4932  -71.2676  -16.7533 H         1 MOL     0.0342
     16 H         -45.3827  -69.9567  -16.0166 H         1 MOL     0.0342
     17 H         -42.2493  -69.3927  -20.0708 H         1 MOL     0.0654
     18 H         -41.3939  -67.8475  -21.6957 H         1 MOL     0.0619
     19 H         -42.4875  -65.7116  -21.9686 H         1 MOL     0.0618
     20 H         -44.4064  -65.1470  -20.6270 H         1 MOL     0.0625
@<TRIPOS>BOND
     1    1    2 1 
     2    1   14 1 
     3    1   15 1 
     4    1   16 1 
     5    2   10 2 
     6    2   11 1 
     7    3    4 ar
     8    3    8 ar
     9    3   11 1 
    10    4    5 ar
    11    4   17 1 
    12    5    6 ar
    13    5   18 1 
    14    6    7 ar
    15    6   19 1 
    16    7    8 ar
    17    7   20 1 
    18    8    9 1 
    19    9   12 ar
    20    9   13 ar
@<TRIPOS>SUBSTRUCTURE
1 MOL         1
@<TRIPOS>MOLECULE
query molecule
   20    20     1     0     0
SMALL
NO_CHARGE

@<TRIPOS>ATOM
      1 C          -8.2282  -45.2882  -21.4525 C.3       1 MOL     0.1362
      2 C          -6.9762  -44.5510  -21.1463 C.2       1 MOL     0.3092
      3 C          -7.6105  -42.4961  -22.2940 C.ar      1 MOL     0.1404
      4 C          -7.6760  -42.5020  -23.6712 C.ar      1 MOL     0.0468
      5 C          -8.5484  -41.7137  -24.3952 C.ar      1 MOL     0.0037
      6 C          -9.3954  -40.8808  -23.7049 C.ar      1 MOL     0.0009
      7 C          -9.3712  -40.8352  -22.3281 C.ar      1 MOL     0.0131
      8 C          -8.4755  -41.6474  -21.6310 C.ar      1 MOL     0.0397
      9 C          -8.4824  -41.5685  -20.1752 C.2       1 MOL     0.0752
     10 O          -6.0175  -45.0729  -20.5003 O.2       1 MOL    -0.2507
     11 O          -6.7632  -43.2592  -21.5370 O.3       1 MOL    -0.4254
     12 O          -9.5434  -41.3252  -19.5454 O.co2     1 MOL    -0.5445
     13 O          -7.3277  -41.7552  -19.4339 O.co2     1 MOL    -0.5445
     14 H          -8.1666  -46.2774  -21.0492 H         1 MOL     0.0342
     15 H          -8.3591  -45.3432  -22.5129 H         1 MOL     0.0342
     16 H          -9.0595  -44.7753  -21.0166 H         1 MOL     0.0342
     17 H          -7.0398  -43.1286  -24.1881 H         1 MOL     0.0654
     18 H          -8.5643  -41.7500  -25.4269 H         1 MOL     0.0619
     19 H         -10.0570  -40.2818  -24.2231 H         1 MOL     0.0618
     20 H         -10.0108  -40.2069  -21.8162 H         1 MOL     0.0625
@<TRIPOS>BOND
     1    1    2 1 
     2    1   14 1 
     3    1   15 1 
     4    1   16 1 
     5    2   10 2 
     6    2   11 1 
     7    3    4 ar
     8    3    8 ar
     9    3   11 1 
    10    4    5 ar
    11    4   17 1 
    12    5    6 ar
    13    5   18 1 
    14    6    7 ar
    15    6   19 1 
    16    7    8 ar
    17    7   20 1 
    18    8    9 1 
    19    9   12 ar
    20    9   13 ar
@<TRIPOS>SUBSTRUCTURE
1 MOL         1
@<TRIPOS>MOLECULE
query molecule
   20    20     1     0     0
SMALL
NO_CHARGE

@<TRIPOS>ATOM
      1 C           0.6235  -51.9202   -9.3589 C.3       1 MOL     0.1362
      2 C          -0.7750  -51.6459   -8.9421 C.2       1 MOL     0.3092
      3 C          -1.0355  -49.6012  -10.2435 C.ar      1 MOL     0.1404
      4 C          -1.0272  -49.7828  -11.6102 C.ar      1 MOL     0.0468
      5 C          -0.5946  -48.8225  -12.5032 C.ar      1 MOL     0.0037
      6 C          -0.1503  -47.6233  -12.0014 C.ar      1 MOL     0.0009
      7 C          -0.1369  -47.3894  -10.6436 C.ar      1 MOL     0.0131
      8 C          -0.5823  -48.3844   -9.7722 C.ar      1 MOL     0.0397
      9 C          -0.5515  -48.0962   -8.3434 C.2       1 MOL     0.0752
     10 O          -1.4340  -52.4370   -8.2014 O.2       1 MOL    -0.2507
     11 O          -1.4547  -50.5236   -9.3234 O.3       1 MOL    -0.4254
     12 O          -0.7281  -46.9270   -7.9153 O.co2     1 MOL    -0.5445
     13 O          -0.3261  -49.0920   -7.4080 O.co2     1 MOL    -0.5445
     14 H           0.9435  -52.8515   -8.9405 H         1 MOL     0.0342
     15 H           1.2601  -51.1347   -9.0091 H         1 MOL     0.0342
     16 H           0.6737  -51.9715  -10.4262 H         1 MOL     0.0342
     17 H          -1.3619  -50.6837  -11.9856 H         1 MOL     0.0654
     18 H          -0.6058  -49.0006  -13.5202 H         1 MOL     0.0619
     19 H           0.1780  -46.8892  -12.6482 H         1 MOL     0.0618
     20 H           0.1983  -46.4857  -10.2739 H         1 MOL     0.0625
@<TRIPOS>BOND
     1    1    2 1 
     2    1   14 1 
     3    1   15 1 
     4    1   16 1 
     5    2   10 2 
     6    2   11 1 
     7    3    4 ar
     8    3    8 ar
     9    3   11 1 
    10    4    5 ar
    11    4   17 1 
    12    5    6 ar
    13    5   18 1 
    14    6    7 ar
    15    6   19 1 
    16    7    8 ar
    17    7   20 1 
    18    8    9 1 
    19    9   12 ar
    20    9   13 ar
@<TRIPOS>SUBSTRUCTURE
1 MOL         1
@<TRIPOS>MOLECULE
query molecule
   20    20     1     0     0
SMALL
NO_CHARGE

@<TRIPOS>ATOM
      1 C         -50.0487  -19.1416   17.9382 C.3       1 MOL     0.1362
      2 C         -50.4484  -20.4937   17.4724 C.2       1 MOL     0.3092
      3 C         -48.3286  -21.0300   16.3949 C.ar      1 MOL     0.1404
      4 C         -48.0297  -20.2458   15.3010 C.ar      1 MOL     0.0468
      5 C         -46.7401  -19.9595   14.8990 C.ar      1 MOL     0.0037
      6 C         -45.7015  -20.4840   15.6295 C.ar      1 MOL     0.0009
      7 C         -45.9439  -21.2747   16.7316 C.ar      1 MOL     0.0131
      8 C         -47.2613  -21.5416   17.1072 C.ar      1 MOL     0.0397
      9 C         -47.4738  -22.3824   18.2791 C.2       1 MOL     0.0752
     10 O         -51.6176  -20.9555   17.6408 O.2       1 MOL    -0.2507
     11 O         -49.5894  -21.3390   16.8286 O.3       1 MOL    -0.4254
     12 O         -48.6349  -22.6652   18.6706 O.co2     1 MOL    -0.5445
     13 O         -46.4119  -22.8974   19.0036 O.co2     1 MOL    -0.5445
     14 H         -50.8831  -18.6668   18.4108 H         1 MOL     0.0342
     15 H         -49.7321  -18.5555   17.1011 H         1 MOL     0.0342
     16 H         -49.2438  -19.2291   18.6373 H         1 MOL     0.0342
     17 H         -48.8108  -19.8520   14.7539 H         1 MOL     0.0654
     18 H         -46.5614  -19.3667   14.0728 H         1 MOL     0.0619
     19 H         -44.7283  -20.2844   15.3497 H         1 MOL     0.0618
     20 H         -45.1583  -21.6652   17.2757 H         1 MOL     0.0625
@<TRIPOS>BOND
     1    1    2 1 
     2    1   14 1 
     3    1   15 1 
     4    1   16 1 
     5    2   10 2 
     6    2   11 1 
     7    3    4 ar
     8    3    8 ar
     9    3   11 1 
    10    4    5 ar
    11    4   17 1 
    12    5    6 ar
    13    5   18 1 
    14    6    7 ar
    15    6   19 1 
    16    7    8 ar
    17    7   20 1 
    18    8    9 1 
    19    9   12 ar
    20    9   13 ar
@<TRIPOS>SUBSTRUCTURE
1 MOL         1
@<TRIPOS>MOLECULE
query molecule
   20    20     1     0     0
SMALL
NO_CHARGE

@<TRIPOS>ATOM
      1 C         -64.0004  -68.8115   13.2365 C.3       1 MOL     0.1362
      2 C         -64.6728  -70.0138   12.6822 C.2       1 MOL     0.3092
      3 C         -62.8336  -70.8309   11.3066 C.ar      1 MOL     0.1404
      4 C         -61.5674  -70.8672   11.8510 C.ar      1 MOL     0.0468
      5 C         -60.4148  -70.7007   11.1092 C.ar      1 MOL     0.0037
      6 C         -60.5383  -70.4886    9.7575 C.ar      1 MOL     0.0009
      7 C         -61.7800  -70.4426    9.1621 C.ar      1 MOL     0.0131
      8 C         -62.9223  -70.6156    9.9450 C.ar      1 MOL     0.0397
      9 C         -64.2164  -70.5598    9.2757 C.2       1 MOL     0.0752
     10 O         -65.9194  -70.2148   12.8020 O.2       1 MOL    -0.2507
     11 O         -64.0011  -70.9906   12.0028 O.3       1 MOL    -0.4254
     12 O         -64.3769  -69.8740    8.2339 O.co2     1 MOL    -0.5445
     13 O         -65.3128  -71.2537    9.7593 O.co2     1 MOL    -0.5445
     14 H         -64.7242  -68.1914   13.7228 H         1 MOL     0.0342
     15 H         -63.5379  -68.2640   12.4422 H         1 MOL     0.0342
     16 H         -63.2558  -69.1134   13.9426 H         1 MOL     0.0342
     17 H         -61.4763  -71.0274   12.8662 H         1 MOL     0.0654
     18 H         -59.4856  -70.7358   11.5580 H         1 MOL     0.0619
     19 H         -59.6917  -70.3616    9.1810 H         1 MOL     0.0618
     20 H         -61.8650  -70.2829    8.1457 H         1 MOL     0.0625
@<TRIPOS>BOND
     1    1    2 1 
     2    1   14 1 
     3    1   15 1 
     4    1   16 1 
     5    2   10 2 
     6    2   11 1 
     7    3    4 ar
     8    3    8 ar
     9    3   11 1 
    10    4    5 ar
    11    4   17 1 
    12    5    6 ar
    13    5   18 1 
    14    6    7 ar
    15    6   19 1 
    16    7    8 ar
    17    7   20 1 
    18    8    9 1 
    19    9   12 ar
    20    9   13 ar
@<TRIPOS>SUBSTRUCTURE
1 MOL         1
@<TRIPOS>MOLECULE
query molecule
   20    20     1     0     0
SMALL
NO_CHARGE

@<TRIPOS>ATOM
      1 C         -25.0596  -66.0769   32.6241 C.3       1 MOL     0.1362
      2 C         -24.3908  -64.7512   32.6273 C.2       1 MOL     0.3092
      3 C         -23.8887  -62.6453   31.5069 C.ar      1 MOL     0.1404
      4 C         -24.4738  -61.4043   31.6433 C.ar      1 MOL     0.0468
      5 C         -23.7779  -60.2175   31.5254 C.ar      1 MOL     0.0037
      6 C         -22.4316  -60.2786   31.2589 C.ar      1 MOL     0.0009
      7 C         -21.7968  -61.4927   31.1126 C.ar      1 MOL     0.0131
      8 C         -22.5338  -62.6711   31.2392 C.ar      1 MOL     0.0397
      9 C         -21.8237  -63.9342   31.0772 C.2       1 MOL     0.0752
     10 O         -23.6345  -64.3706   33.5718 O.2       1 MOL    -0.2507
     11 O         -24.5386  -63.8448   31.6156 O.3       1 MOL    -0.4254
     12 O         -22.2576  -64.8258   30.3038 O.co2     1 MOL    -0.5445
     13 O         -20.6522  -64.2003   31.7660 O.co2     1 MOL    -0.5445
     14 H         -24.7962  -66.6106   33.5134 H         1 MOL     0.0342
     15 H         -24.7429  -66.6336   31.7672 H         1 MOL     0.0342
     16 H         -26.1200  -65.9409   32.5894 H         1 MOL     0.0342
     17 H         -25.4848  -61.3600   31.8442 H         1 MOL     0.0654
     18 H         -24.2562  -59.3091   31.6355 H         1 MOL     0.0619
     19 H         -21.8891  -59.4055   31.1664 H         1 MOL     0.0618
     20 H         -20.7847  -61.5308   30.9125 H         1 MOL     0.0625
@<TRIPOS>BOND
     1    1    2 1 
     2    1   14 1 
     3    1   15 1 
     4    1   16 1 
     5    2   10 2 
     6    2   11 1 
     7    3    4 ar
     8    3    8 ar
     9    3   11 1 
    10    4    5 ar
    11    4   17 1 
    12    5    6 ar
    13    5   18 1 
    14    6    7 ar
    15    6   19 1 
    16    7    8 ar
    17    7   20 1 
    18    8    9 1 
    19    9   12 ar
    20    9   13 ar
@<TRIPOS>SUBSTRUCTURE
1 MOL         1
@<TRIPOS>MOLECULE
query molecule
   20    20     1     0     0
SMALL
NO_CHARGE

@<TRIPOS>ATOM
      1 C         -34.4570  -66.7462    0.9472 C.3       1 MOL     0.1362
      2 C         -35.0155  -66.0542    2.1362 C.2       1 MOL     0.3092
      3 C         -34.8166  -64.1516    3.6471 C.ar      1 MOL     0.1404
      4 C         -34.9000  -64.1645    5.0233 C.ar      1 MOL     0.0468
      5 C         -35.4316  -63.1271    5.7635 C.ar      1 MOL     0.0037
      6 C         -35.9008  -62.0246    5.0915 C.ar      1 MOL     0.0009
      7 C         -35.8421  -61.9599    3.7164 C.ar      1 MOL     0.0131
      8 C         -35.2973  -63.0284    3.0026 C.ar      1 MOL     0.0397
      9 C         -35.2542  -62.9196    1.5494 C.2       1 MOL     0.0752
     10 O         -36.1987  -66.2522    2.5480 O.2       1 MOL    -0.2507
     11 O         -34.2985  -65.1554    2.8745 O.3       1 MOL    -0.4254
     12 O         -35.0587  -61.8108    0.9891 O.co2     1 MOL    -0.5445
     13 O         -35.4277  -64.0256    0.7344 O.co2     1 MOL    -0.5445
     14 H         -35.1976  -67.3993    0.5349 H         1 MOL     0.0342
     15 H         -33.5999  -67.3171    1.2370 H         1 MOL     0.0342
     16 H         -34.1716  -66.0212    0.2143 H         1 MOL     0.0342
     17 H         -34.5465  -64.9929    5.5266 H         1 MOL     0.0654
     18 H         -35.4742  -63.1783    6.7939 H         1 MOL     0.0619
     19 H         -36.3025  -61.2358    5.6220 H         1 MOL     0.0618
     20 H         -36.1965  -61.1281    3.2183 H         1 MOL     0.0625
@<TRIPOS>BOND
     1    1    2 1 
     2    1   14 1 
     3    1   15 1 
     4    1   16 1 
     5    2   10 2 
     6    2   11 1 
     7    3    4 ar
     8    3    8 ar
     9    3   11 1 
    10    4    5 ar
    11    4   17 1 
    12    5    6 ar
    13    5   18 1 
    14    6    7 ar
    15    6   19 1 
    16    7    8 ar
    17    7   20 1 
    18    8    9 1 
    19    9   12 ar
    20    9   13 ar
@<TRIPOS>SUBSTRUCTURE
1 MOL         1
@<TRIPOS>MOLECULE
query molecule
   20    20     1     0     0
SMALL
NO_CHARGE

@<TRIPOS>ATOM
      1 C         -23.4394  -35.3773  -27.8933 C.3       1 MOL     0.1362
      2 C         -22.2003  -35.8396  -27.2182 C.2       1 MOL     0.3092
      3 C         -20.5786  -37.6039  -26.7717 C.ar      1 MOL     0.1404
      4 C         -19.2704  -37.3957  -27.1540 C.ar      1 MOL     0.0468
      5 C         -18.1876  -37.9353  -26.4884 C.ar      1 MOL     0.0037
      6 C         -18.4288  -38.7202  -25.3869 C.ar      1 MOL     0.0009
      7 C         -19.7171  -38.9611  -24.9618 C.ar      1 MOL     0.0131
      8 C         -20.7859  -38.3977  -25.6605 C.ar      1 MOL     0.0397
      9 C         -22.1328  -38.6775  -25.1774 C.2       1 MOL     0.0752
     10 O         -21.5404  -35.1030  -26.4240 O.2       1 MOL    -0.2507
     11 O         -21.6801  -37.0898  -27.4006 O.3       1 MOL    -0.4254
     12 O         -22.7629  -39.6927  -25.5697 O.co2     1 MOL    -0.5445
     13 O         -22.7675  -37.8405  -24.2752 O.co2     1 MOL    -0.5445
     14 H         -23.6512  -34.3708  -27.5984 H         1 MOL     0.0342
     15 H         -24.2552  -36.0101  -27.6130 H         1 MOL     0.0342
     16 H         -23.3041  -35.4183  -28.9536 H         1 MOL     0.0342
     17 H         -19.0909  -36.8054  -27.9810 H         1 MOL     0.0654
     18 H         -17.2233  -37.7531  -26.8092 H         1 MOL     0.0619
     19 H         -17.6363  -39.1349  -24.8720 H         1 MOL     0.0618
     20 H         -19.8905  -39.5518  -24.1332 H         1 MOL     0.0625
@<TRIPOS>BOND
     1    1    2 1 
     2    1   14 1 
     3    1   15 1 
     4    1   16 1 
     5    2   10 2 
     6    2   11 1 
     7    3    4 ar
     8    3    8 ar
     9    3   11 1 
    10    4    5 ar
    11    4   17 1 
    12    5    6 ar
    13    5   18 1 
    14    6    7 ar
    15    6   19 1 
    16    7    8 ar
    17    7   20 1 
    18    8    9 1 
    19    9   12 ar
    20    9   13 ar
@<TRIPOS>SUBSTRUCTURE
1 MOL         1
@<TRIPOS>MOLECULE
query molecule
   20    20     1     0     0
SMALL
NO_CHARGE

@<TRIPOS>ATOM
      1 C         -35.0802  -76.7171   -0.9294 C.3       1 MOL     0.1362
      2 C         -33.7623  -76.8950   -1.5899 C.2       1 MOL     0.3092
      3 C         -31.7236  -75.5586   -1.5986 C.ar      1 MOL     0.1404
      4 C         -31.8321  -74.1862   -1.5219 C.ar      1 MOL     0.0468
      5 C         -30.9304  -73.3175   -2.1041 C.ar      1 MOL     0.0037
      6 C         -29.8696  -73.8508   -2.7951 C.ar      1 MOL     0.0009
      7 C         -29.7136  -75.2155   -2.9033 C.ar      1 MOL     0.0131
      8 C         -30.6457  -76.0617   -2.3008 C.ar      1 MOL     0.0397
      9 C         -30.4437  -77.4990   -2.4392 C.2       1 MOL     0.0752
     10 O         -33.6342  -77.4676   -2.7143 O.2       1 MOL    -0.2507
     11 O         -32.5922  -76.4554   -1.0380 O.3       1 MOL    -0.4254
     12 O         -30.6848  -78.2812   -1.4845 O.co2     1 MOL    -0.5445
     13 O         -29.9793  -78.0550   -3.6194 O.co2     1 MOL    -0.5445
     14 H         -35.8470  -77.1378   -1.5458 H         1 MOL     0.0342
     15 H         -35.2696  -75.6738   -0.7870 H         1 MOL     0.0342
     16 H         -35.0728  -77.2111    0.0194 H         1 MOL     0.0342
     17 H         -32.6290  -73.7873   -1.0019 H         1 MOL     0.0654
     18 H         -31.0498  -72.2953   -2.0214 H         1 MOL     0.0619
     19 H         -29.1816  -73.2225   -3.2391 H         1 MOL     0.0618
     20 H         -28.9138  -75.6089   -3.4241 H         1 MOL     0.0625
@<TRIPOS>BOND
     1    1    2 1 
     2    1   14 1 
     3    1   15 1 
     4    1   16 1 
     5    2   10 2 
     6    2   11 1 
     7    3    4 ar
     8    3    8 ar
     9    3   11 1 
    10    4    5 ar
    11    4   17 1 
    12    5    6 ar
    13    5   18 1 
    14    6    7 ar
    15    6   19 1 
    16    7    8 ar
    17    7   20 1 
    18    8    9 1 
    19    9   12 ar
    20    9   13 ar
@<TRIPOS>SUBSTRUCTURE
1 MOL         1
@<TRIPOS>MOLECULE
query molecule
   20    20     1     0     0
SMALL
NO_CHARGE

@<TRIPOS>ATOM
      1 C          -1.4062  -48.3523    4.2312 C.3       1 MOL     0.1362
      2 C          -2.1963  -47.0998    4.3398 C.2       1 MOL     0.3092
      3 C          -3.7529  -46.5908    6.1454 C.ar      1 MOL     0.1404
      4 C          -3.2684  -47.1006    7.3312 C.ar      1 MOL     0.0468
      5 C          -3.6083  -46.5977    8.5715 C.ar      1 MOL     0.0037
      6 C          -4.4744  -45.5326    8.6243 C.ar      1 MOL     0.0009
      7 C          -4.9888  -44.9848    7.4694 C.ar      1 MOL     0.0131
      8 C          -4.6215  -45.5204    6.2341 C.ar      1 MOL     0.0397
      9 C          -5.1884  -44.9113    5.0369 C.2       1 MOL     0.0752
     10 O          -1.7656  -45.9827    3.9210 O.2       1 MOL    -0.2507
     11 O          -3.4434  -47.0570    4.8964 O.3       1 MOL    -0.4254
     12 O          -6.0816  -44.0301    5.1202 O.co2     1 MOL    -0.5445
     13 O          -4.7694  -45.2787    3.7692 O.co2     1 MOL    -0.5445
     14 H          -0.4675  -48.1415    3.7628 H         1 MOL     0.0342
     15 H          -1.9461  -49.0644    3.6430 H         1 MOL     0.0342
     16 H          -1.2364  -48.7523    5.2086 H         1 MOL     0.0342
     17 H          -2.6174  -47.9000    7.2898 H         1 MOL     0.0654
     18 H          -3.2212  -47.0102    9.4352 H         1 MOL     0.0619
     19 H          -4.7437  -45.1383    9.5393 H         1 MOL     0.0618
     20 H          -5.6391  -44.1844    7.5171 H         1 MOL     0.0625
@<TRIPOS>BOND
     1    1    2 1 
     2    1   14 1 
     3    1   15 1 
     4    1   16 1 
     5    2   10 2 
     6    2   11 1 
     7    3    4 ar
     8    3    8 ar
     9    3   11 1 
    10    4    5 ar
    11    4   17 1 
    12    5    6 ar
    13    5   18 1 
    14    6    7 ar
    15    6   19 1 
    16    7    8 ar
    17    7   20 1 
    18    8    9 1 
    19    9   12 ar
    20    9   13 ar
@<TRIPOS>SUBSTRUCTURE
1 MOL         1
@<TRIPOS>MOLECULE
query molecule
   20    20     1     0     0
SMALL
NO_CHARGE

@<TRIPOS>ATOM
      1 C         -37.8601  -32.9447   20.3073 C.3       1 MOL     0.1362
      2 C         -36.8725  -31.8637   20.0610 C.2       1 MOL     0.3092
      3 C         -35.7467  -30.3565   18.5107 C.ar      1 MOL     0.1404
      4 C         -36.0091  -29.0321   18.7903 C.ar      1 MOL     0.0468
      5 C         -35.1475  -28.0014   18.4708 C.ar      1 MOL     0.0037
      6 C         -33.9668  -28.3143   17.8421 C.ar      1 MOL     0.0009
      7 C         -33.6548  -29.6217   17.5390 C.ar      1 MOL     0.0131
      8 C         -34.5511  -30.6364   17.8781 C.ar      1 MOL     0.0397
      9 C         -34.1825  -32.0058   17.5396 C.2       1 MOL     0.0752
     10 O         -36.2409  -31.2895   20.9991 O.2       1 MOL    -0.2507
     11 O         -36.5702  -31.4083   18.8087 O.3       1 MOL    -0.4254
     12 O         -33.9262  -32.8478   18.4379 O.co2     1 MOL    -0.5445
     13 O         -34.0989  -32.4296   16.2239 O.co2     1 MOL    -0.5445
     14 H         -37.9292  -33.1310   21.3587 H         1 MOL     0.0342
     15 H         -37.5446  -33.8364   19.8073 H         1 MOL     0.0342
     16 H         -38.8167  -32.6455   19.9335 H         1 MOL     0.0342
     17 H         -36.8960  -28.7989   19.2631 H         1 MOL     0.0654
     18 H         -35.3839  -27.0226   18.6992 H         1 MOL     0.0619
     19 H         -33.3058  -27.5618   17.5932 H         1 MOL     0.0618
     20 H         -32.7656  -29.8491   17.0666 H         1 MOL     0.0625
@<TRIPOS>BOND
     1    1    2 1 
     2    1   14 1 
     3    1   15 1 
     4    1   16 1 
     5    2   10 2 
     6    2   11 1 
     7    3    4 ar
     8    3    8 ar
     9    3   11 1 
    10    4    5 ar
    11    4   17 1 
    12    5    6 ar
    13    5   18 1 
    14    6    7 ar
    15    6   19 1 
    16    7    8 ar
    17    7   20 1 
    18    8    9 1 
    19    9   12 ar
    20    9   13 ar
@<TRIPOS>SUBSTRUCTURE
1 MOL         1
@<TRIPOS>MOLECULE
query molecule
   20    20     1     0     0
SMALL
NO_CHARGE

@<TRIPOS>ATOM
      1 C         -53.4492  -43.6771   28.2582 C.3       1 MOL     0.1362
      2 C         -53.5421  -44.2413   26.8879 C.2       1 MOL     0.3092
      3 C         -52.7025  -45.8171   25.2283 C.ar      1 MOL     0.1404
      4 C         -51.6781  -45.4181   24.3961 C.ar      1 MOL     0.0468
      5 C         -51.5221  -45.8815   23.1047 C.ar      1 MOL     0.0037
      6 C         -52.4363  -46.7883   22.6261 C.ar      1 MOL     0.0009
      7 C         -53.4798  -47.2204   23.4154 C.ar      1 MOL     0.0131
      8 C         -53.6042  -46.7295   24.7160 C.ar      1 MOL     0.0397
      9 C         -54.7223  -47.2123   25.5175 C.2       1 MOL     0.0752
     10 O         -54.2296  -43.6975   25.9711 O.2       1 MOL    -0.2507
     11 O         -52.8951  -45.3847   26.5125 O.3       1 MOL    -0.4254
     12 O         -55.9102  -47.0303   25.1471 O.co2     1 MOL    -0.5445
     13 O         -54.5210  -47.8842   26.7115 O.co2     1 MOL    -0.5445
     14 H         -54.0354  -42.7838   28.3159 H         1 MOL     0.0342
     15 H         -52.4281  -43.4484   28.4809 H         1 MOL     0.0342
     16 H         -53.8166  -44.3923   28.9637 H         1 MOL     0.0342
     17 H         -50.9919  -44.7376   24.7573 H         1 MOL     0.0654
     18 H         -50.7392  -45.5560   22.5155 H         1 MOL     0.0619
     19 H         -52.3414  -47.1500   21.6641 H         1 MOL     0.0618
     20 H         -54.1629  -47.9021   23.0489 H         1 MOL     0.0625
@<TRIPOS>BOND
     1    1    2 1 
     2    1   14 1 
     3    1   15 1 
     4    1   16 1 
     5    2   10 2 
     6    2   11 1 
     7    3    4 ar
     8    3    8 ar
     9    3   11 1 
    10    4    5 ar
    11    4   17 1 
    12    5    6 ar
    13    5   18 1 
    14    6    7 ar
    15    6   19 1 
    16    7    8 ar
    17    7   20 1 
    18    8    9 1 
    19    9   12 ar
    20    9   13 ar
@<TRIPOS>SUBSTRUCTURE
1 MOL         1
@<TRIPOS>MOLECULE
query molecule
   20    20     1     0     0
SMALL
NO_CHARGE

@<TRIPOS>ATOM
      1 C         -35.5452  -76.3662  -21.7343 C.3       1 MOL     0.1362
      2 C         -36.8976  -76.9269  -21.4862 C.2       1 MOL     0.3092
      3 C         -38.3290  -78.8410  -21.0070 C.ar      1 MOL     0.1404
      4 C         -39.2892  -79.0604  -21.9717 C.ar      1 MOL     0.0468
      5 C         -40.5047  -79.6624  -21.7129 C.ar      1 MOL     0.0037
      6 C         -40.7688  -80.0638  -20.4259 C.ar      1 MOL     0.0009
      7 C         -39.8443  -79.8682  -19.4231 C.ar      1 MOL     0.0131
      8 C         -38.6264  -79.2564  -19.7236 C.ar      1 MOL     0.0397
      9 C         -37.6764  -79.0684  -18.6337 C.2       1 MOL     0.0752
     10 O         -37.9464  -76.2140  -21.5072 O.2       1 MOL    -0.2507
     11 O         -37.1131  -78.2493  -21.2183 O.3       1 MOL    -0.4254
     12 O         -37.7453  -79.7639  -17.5882 O.co2     1 MOL    -0.5445
     13 O         -36.6689  -78.1212  -18.7059 O.co2     1 MOL    -0.5445
     14 H         -35.6243  -75.3156  -21.9214 H         1 MOL     0.0342
     15 H         -35.1103  -76.8480  -22.5848 H         1 MOL     0.0342
     16 H         -34.9281  -76.5313  -20.8764 H         1 MOL     0.0342
     17 H         -39.0891  -78.7591  -22.9380 H         1 MOL     0.0654
     18 H         -41.1956  -79.8077  -22.4664 H         1 MOL     0.0619
     19 H         -41.6701  -80.5164  -20.2069 H         1 MOL     0.0618
     20 H         -40.0498  -80.1726  -18.4583 H         1 MOL     0.0625
@<TRIPOS>BOND
     1    1    2 1 
     2    1   14 1 
     3    1   15 1 
     4    1   16 1 
     5    2   10 2 
     6    2   11 1 
     7    3    4 ar
     8    3    8 ar
     9    3   11 1 
    10    4    5 ar
    11    4   17 1 
    12    5    6 ar
    13    5   18 1 
    14    6    7 ar
    15    6   19 1 
    16    7    8 ar
    17    7   20 1 
    18    8    9 1 
    19    9   12 ar
    20    9   13 ar
@<TRIPOS>SUBSTRUCTURE
1 MOL         1
@<TRIPOS>MOLECULE
query molecule
   20    20     1     0     0
SMALL
NO_CHARGE

@<TRIPOS>ATOM
      1 C         -49.8320  -44.1560  -24.0081 C.3       1 MOL     0.1362
      2 C         -49.1363  -45.1333  -23.1332 C.2       1 MOL     0.3092
      3 C         -49.7419  -47.3355  -23.9852 C.ar      1 MOL     0.1404
      4 C         -50.4338  -48.2298  -23.1962 C.ar      1 MOL     0.0468
      5 C         -51.3320  -49.1510  -23.6977 C.ar      1 MOL     0.0037
      6 C         -51.5466  -49.1755  -25.0544 C.ar      1 MOL     0.0009
      7 C         -50.8811  -48.3041  -25.8889 C.ar      1 MOL     0.0131
      8 C         -49.9809  -47.3868  -25.3447 C.ar      1 MOL     0.0397
      9 C         -49.2980  -46.4830  -26.2625 C.2       1 MOL     0.0752
     10 O         -48.7662  -44.8506  -21.9534 O.2       1 MOL    -0.2507
     11 O         -48.8442  -46.4072  -23.5318 O.3       1 MOL    -0.4254
     12 O         -48.6761  -46.9245  -27.2624 O.co2     1 MOL    -0.5445
     13 O         -49.3056  -45.1118  -26.0690 O.co2     1 MOL    -0.5445
     14 H         -49.9514  -43.2309  -23.4839 H         1 MOL     0.0342
     15 H         -50.7937  -44.5400  -24.2771 H         1 MOL     0.0342
     16 H         -49.2525  -43.9938  -24.8925 H         1 MOL     0.0342
     17 H         -50.2721  -48.2096  -22.1774 H         1 MOL     0.0654
     18 H         -51.8293  -49.8027  -23.0700 H         1 MOL     0.0619
     19 H         -52.2134  -49.8545  -25.4537 H         1 MOL     0.0618
     20 H         -51.0477  -48.3284  -26.9074 H         1 MOL     0.0625
@<TRIPOS>BOND
     1    1    2 1 
     2    1   14 1 
     3    1   15 1 
     4    1   16 1 
     5    2   10 2 
     6    2   11 1 
     7    3    4 ar
     8    3    8 ar
     9    3   11 1 
    10    4    5 ar
    11    4   17 1 
    12    5    6 ar
    13    5   18 1 
    14    6    7 ar
    15    6   19 1 
    16    7    8 ar
    17    7   20 1 
    18    8    9 1 
    19    9   12 ar
    20    9   13 ar
@<TRIPOS>SUBSTRUCTURE
1 MOL         1
@<TRIPOS>MOLECULE
query molecule
   20    20     1     0     0
SMALL
NO_CHARGE

@<TRIPOS>ATOM
      1 C         -34.9778  -80.2684   -1.1133 C.3       1 MOL     0.1362
      2 C         -35.0752  -80.8522    0.2485 C.2       1 MOL     0.3092
      3 C         -33.8549  -79.0702    1.3787 C.ar      1 MOL     0.1404
      4 C         -34.4872  -77.8523    1.5131 C.ar      1 MOL     0.0468
      5 C         -33.8163  -76.6459    1.5470 C.ar      1 MOL     0.0037
      6 C         -32.4467  -76.6622    1.4419 C.ar      1 MOL     0.0009
      7 C         -31.7646  -77.8516    1.3052 C.ar      1 MOL     0.0131
      8 C         -32.4776  -79.0510    1.2754 C.ar      1 MOL     0.0397
      9 C         -31.7176  -80.2866    1.1295 C.2       1 MOL     0.0752
     10 O         -35.7199  -81.9176    0.4898 O.2       1 MOL    -0.2507
     11 O         -34.4788  -80.2878    1.3405 O.3       1 MOL    -0.4254
     12 O         -32.0691  -81.3367    1.7256 O.co2     1 MOL    -0.5445
     13 O         -30.5850  -80.3512    0.3354 O.co2     1 MOL    -0.5445
     14 H         -35.5205  -80.8808   -1.8028 H         1 MOL     0.0342
     15 H         -33.9505  -80.2231   -1.4089 H         1 MOL     0.0342
     16 H         -35.3915  -79.2820   -1.1086 H         1 MOL     0.0342
     17 H         -35.5158  -77.8418    1.5927 H         1 MOL     0.0654
     18 H         -34.3301  -75.7562    1.6496 H         1 MOL     0.0619
     19 H         -31.9221  -75.7737    1.4648 H         1 MOL     0.0618
     20 H         -30.7353  -77.8559    1.2269 H         1 MOL     0.0625
@<TRIPOS>BOND
     1    1    2 1 
     2    1   14 1 
     3    1   15 1 
     4    1   16 1 
     5    2   10 2 
     6    2   11 1 
     7    3    4 ar
     8    3    8 ar
     9    3   11 1 
    10    4    5 ar
    11    4   17 1 
    12    5    6 ar
    13    5   18 1 
    14    6    7 ar
    15    6   19 1 
    16    7    8 ar
    17    7   20 1 
    18    8    9 1 
    19    9   12 ar
    20    9   13 ar
@<TRIPOS>SUBSTRUCTURE
1 MOL         1
@<TRIPOS>MOLECULE
query molecule
   20    20     1     0     0
SMALL
NO_CHARGE

@<TRIPOS>ATOM
      1 C         -26.5407  -69.1095  -19.2268 C.3       1 MOL     0.1362
      2 C         -27.1925  -67.9519  -19.8901 C.2       1 MOL     0.3092
      3 C         -26.8557  -68.7440  -22.1708 C.ar      1 MOL     0.1404
      4 C         -27.5305  -69.9074  -22.4738 C.ar      1 MOL     0.0468
      5 C         -27.0924  -70.8189  -23.4141 C.ar      1 MOL     0.0037
      6 C         -25.9226  -70.5498  -24.0823 C.ar      1 MOL     0.0009
      7 C         -25.2081  -69.4017  -23.8179 C.ar      1 MOL     0.0131
      8 C         -25.6832  -68.5040  -22.8607 C.ar      1 MOL     0.0397
      9 C         -24.8971  -67.3017  -22.6114 C.2       1 MOL     0.0752
     10 O         -27.7381  -67.0104  -19.2386 O.2       1 MOL    -0.2507
     11 O         -27.2525  -67.8142  -21.2482 O.3       1 MOL    -0.4254
     12 O         -24.1597  -66.8138  -23.5056 O.co2     1 MOL    -0.5445
     13 O         -24.9301  -66.6553  -21.3872 O.co2     1 MOL    -0.5445
     14 H         -26.6165  -69.0004  -18.1651 H         1 MOL     0.0342
     15 H         -25.5092  -69.1472  -19.5085 H         1 MOL     0.0342
     16 H         -27.0263  -70.0133  -19.5291 H         1 MOL     0.0342
     17 H         -28.4093  -70.1077  -21.9716 H         1 MOL     0.0654
     18 H         -27.6298  -71.6784  -23.6101 H         1 MOL     0.0619
     19 H         -25.5741  -71.2153  -24.7900 H         1 MOL     0.0618
     20 H         -24.3300  -69.2063  -24.3242 H         1 MOL     0.0625
@<TRIPOS>BOND
     1    1    2 1 
     2    1   14 1 
     3    1   15 1 
     4    1   16 1 
     5    2   10 2 
     6    2   11 1 
     7    3    4 ar
     8    3    8 ar
     9    3   11 1 
    10    4    5 ar
    11    4   17 1 
    12    5    6 ar
    13    5   18 1 
    14    6    7 ar
    15    6   19 1 
    16    7    8 ar
    17    7   20 1 
    18    8    9 1 
    19    9   12 ar
    20    9   13 ar
@<TRIPOS>SUBSTRUCTURE
1 MOL         1
@<TRIPOS>MOLECULE
query molecule
   20    20     1     0     0
SMALL
NO_CHARGE

@<TRIPOS>ATOM
      1 C         -21.3877  -65.7116  -23.3972 C.3       1 MOL     0.1362
      2 C         -21.2727  -64.6630  -22.3522 C.2       1 MOL     0.3092
      3 C         -20.2245  -62.6321  -23.2000 C.ar      1 MOL     0.1404
      4 C         -21.1156  -61.5802  -23.2202 C.ar      1 MOL     0.0468
      5 C         -21.0090  -60.5086  -24.0846 C.ar      1 MOL     0.0037
      6 C         -19.9585  -60.4913  -24.9698 C.ar      1 MOL     0.0009
      7 C         -19.0392  -61.5175  -24.9924 C.ar      1 MOL     0.0131
      8 C         -19.1801  -62.5836  -24.1028 C.ar      1 MOL     0.0397
      9 C         -18.1859  -63.6484  -24.1597 C.2       1 MOL     0.0752
     10 O         -22.0794  -64.5800  -21.3770 O.2       1 MOL    -0.2507
     11 O         -20.2914  -63.7122  -22.3622 O.3       1 MOL    -0.4254
     12 O         -18.5197  -64.8319  -24.4235 O.co2     1 MOL    -0.5445
     13 O         -16.8439  -63.4001  -23.9250 O.co2     1 MOL    -0.5445
     14 H         -22.2266  -66.3396  -23.1805 H         1 MOL     0.0342
     15 H         -20.4950  -66.3012  -23.4101 H         1 MOL     0.0342
     16 H         -21.5240  -65.2495  -24.3522 H         1 MOL     0.0342
     17 H         -21.9035  -61.5942  -22.5543 H         1 MOL     0.0654
     18 H         -21.6993  -59.7411  -24.0654 H         1 MOL     0.0619
     19 H         -19.8566  -59.7013  -25.6260 H         1 MOL     0.0618
     20 H         -18.2523  -61.4975  -25.6603 H         1 MOL     0.0625
@<TRIPOS>BOND
     1    1    2 1 
     2    1   14 1 
     3    1   15 1 
     4    1   16 1 
     5    2   10 2 
     6    2   11 1 
     7    3    4 ar
     8    3    8 ar
     9    3   11 1 
    10    4    5 ar
    11    4   17 1 
    12    5    6 ar
    13    5   18 1 
    14    6    7 ar
    15    6   19 1 
    16    7    8 ar
    17    7   20 1 
    18    8    9 1 
    19    9   12 ar
    20    9   13 ar
@<TRIPOS>SUBSTRUCTURE
1 MOL         1
@<TRIPOS>MOLECULE
query molecule
   20    20     1     0     0
SMALL
NO_CHARGE

@<TRIPOS>ATOM
      1 C          -4.6496  -64.4335  -28.8048 C.3       1 MOL     0.1362
      2 C          -3.3962  -63.7711  -29.2465 C.2       1 MOL     0.3092
      3 C          -1.2377  -62.8550  -28.5803 C.ar      1 MOL     0.1404
      4 C          -1.3300  -61.5174  -28.2589 C.ar      1 MOL     0.0468
      5 C          -0.2734  -60.6346  -28.3634 C.ar      1 MOL     0.0037
      6 C           0.9328  -61.1168  -28.8106 C.ar      1 MOL     0.0009
      7 C           1.0800  -62.4451  -29.1460 C.ar      1 MOL     0.0131
      8 C          -0.0111  -63.3070  -29.0267 C.ar      1 MOL     0.0397
      9 C           0.1873  -64.7045  -29.3918 C.2       1 MOL     0.0752
     10 O          -3.2991  -63.1651  -30.3564 O.2       1 MOL    -0.2507
     11 O          -2.2570  -63.7640  -28.4921 O.3       1 MOL    -0.4254
     12 O           1.1634  -65.0551  -30.1029 O.co2     1 MOL    -0.5445
     13 O          -0.6871  -65.6938  -28.9742 O.co2     1 MOL    -0.5445
     14 H          -5.4022  -64.3075  -29.5550 H         1 MOL     0.0342
     15 H          -4.9821  -63.9922  -27.8887 H         1 MOL     0.0342
     16 H          -4.4671  -65.4765  -28.6529 H         1 MOL     0.0342
     17 H          -2.2364  -61.1570  -27.9225 H         1 MOL     0.0654
     18 H          -0.3865  -59.6398  -28.1114 H         1 MOL     0.0619
     19 H           1.7381  -60.4771  -28.8972 H         1 MOL     0.0618
     20 H           1.9896  -62.8002  -29.4812 H         1 MOL     0.0625
@<TRIPOS>BOND
     1    1    2 1 
     2    1   14 1 
     3    1   15 1 
     4    1   16 1 
     5    2   10 2 
     6    2   11 1 
     7    3    4 ar
     8    3    8 ar
     9    3   11 1 
    10    4    5 ar
    11    4   17 1 
    12    5    6 ar
    13    5   18 1 
    14    6    7 ar
    15    6   19 1 
    16    7    8 ar
    17    7   20 1 
    18    8    9 1 
    19    9   12 ar
    20    9   13 ar
@<TRIPOS>SUBSTRUCTURE
1 MOL         1
@<TRIPOS>MOLECULE
query molecule
   20    20     1     0     0
SMALL
NO_CHARGE

@<TRIPOS>ATOM
      1 C         -38.8830  -22.3196   26.8157 C.3       1 MOL     0.1362
      2 C         -39.7139  -21.1619   26.3985 C.2       1 MOL     0.3092
      3 C         -38.1221  -19.4512   27.0925 C.ar      1 MOL     0.1404
      4 C         -37.9059  -19.2419   28.4380 C.ar      1 MOL     0.0468
      5 C         -36.6980  -18.8216   28.9587 C.ar      1 MOL     0.0037
      6 C         -35.6579  -18.6017   28.0886 C.ar      1 MOL     0.0009
      7 C         -35.8197  -18.7951   26.7340 C.ar      1 MOL     0.0131
      8 C         -37.0557  -19.2208   26.2452 C.ar      1 MOL     0.0397
      9 C         -37.1844  -19.4133   24.8058 C.2       1 MOL     0.0752
     10 O         -40.8670  -21.2981   25.8880 O.2       1 MOL    -0.2507
     11 O         -39.3003  -19.8667   26.5337 O.3       1 MOL    -0.4254
     12 O         -36.2179  -19.8346   24.1204 O.co2     1 MOL    -0.5445
     13 O         -38.3679  -19.1393   24.1410 O.co2     1 MOL    -0.5445
     14 H         -39.4118  -23.2279   26.6149 H         1 MOL     0.0342
     15 H         -38.6769  -22.2512   27.8633 H         1 MOL     0.0342
     16 H         -37.9631  -22.3131   26.2699 H         1 MOL     0.0342
     17 H         -38.6878  -19.4082   29.0903 H         1 MOL     0.0654
     18 H         -36.5797  -18.6776   29.9743 H         1 MOL     0.0619
     19 H         -34.7449  -18.2875   28.4530 H         1 MOL     0.0618
     20 H         -35.0334  -18.6279   26.0862 H         1 MOL     0.0625
@<TRIPOS>BOND
     1    1    2 1 
     2    1   14 1 
     3    1   15 1 
     4    1   16 1 
     5    2   10 2 
     6    2   11 1 
     7    3    4 ar
     8    3    8 ar
     9    3   11 1 
    10    4    5 ar
    11    4   17 1 
    12    5    6 ar
    13    5   18 1 
    14    6    7 ar
    15    6   19 1 
    16    7    8 ar
    17    7   20 1 
    18    8    9 1 
    19    9   12 ar
    20    9   13 ar
@<TRIPOS>SUBSTRUCTURE
1 MOL         1
@<TRIPOS>MOLECULE
query molecule
   20    20     1     0     0
SMALL
NO_CHARGE

@<TRIPOS>ATOM
      1 C         -61.2824  -43.9544   21.9385 C.3       1 MOL     0.1362
      2 C         -60.9184  -42.9915   23.0086 C.2       1 MOL     0.3092
      3 C         -59.8265  -42.5336   25.1394 C.ar      1 MOL     0.1404
      4 C         -60.5970  -41.8029   26.0188 C.ar      1 MOL     0.0468
      5 C         -60.0673  -40.9680   26.9827 C.ar      1 MOL     0.0037
      6 C         -58.7003  -40.8619   27.0689 C.ar      1 MOL     0.0009
      7 C         -57.8835  -41.5697   26.2143 C.ar      1 MOL     0.0131
      8 C         -58.4560  -42.4039   25.2530 C.ar      1 MOL     0.0397
      9 C         -57.5561  -43.1349   24.3689 C.2       1 MOL     0.0752
     10 O         -61.1511  -41.7482   22.9159 O.2       1 MOL    -0.2507
     11 O         -60.3081  -43.3717   24.1705 O.3       1 MOL    -0.4254
     12 O         -56.3235  -43.1990   24.6095 O.co2     1 MOL    -0.5445
     13 O         -58.0205  -43.7812   23.2356 O.co2     1 MOL    -0.5445
     14 H         -61.7473  -43.4294   21.1303 H         1 MOL     0.0342
     15 H         -61.9629  -44.6814   22.3297 H         1 MOL     0.0342
     16 H         -60.3999  -44.4453   21.5856 H         1 MOL     0.0342
     17 H         -61.6235  -41.8842   25.9534 H         1 MOL     0.0654
     18 H         -60.6818  -40.4388   27.6218 H         1 MOL     0.0619
     19 H         -58.2798  -40.2447   27.7812 H         1 MOL     0.0618
     20 H         -56.8571  -41.4850   26.2851 H         1 MOL     0.0625
@<TRIPOS>BOND
     1    1    2 1 
     2    1   14 1 
     3    1   15 1 
     4    1   16 1 
     5    2   10 2 
     6    2   11 1 
     7    3    4 ar
     8    3    8 ar
     9    3   11 1 
    10    4    5 ar
    11    4   17 1 
    12    5    6 ar
    13    5   18 1 
    14    6    7 ar
    15    6   19 1 
    16    7    8 ar
    17    7   20 1 
    18    8    9 1 
    19    9   12 ar
    20    9   13 ar
@<TRIPOS>SUBSTRUCTURE
1 MOL         1
@<TRIPOS>MOLECULE
query molecule
   20    20     1     0     0
SMALL
NO_CHARGE

@<TRIPOS>ATOM
      1 C         -66.3294  -60.4661    5.6100 C.3       1 MOL     0.1362
      2 C         -67.2344  -61.6409    5.6837 C.2       1 MOL     0.3092
      3 C         -66.5652  -62.9847    7.6043 C.ar      1 MOL     0.1404
      4 C         -65.4657  -63.6564    7.1136 C.ar      1 MOL     0.0468
      5 C         -64.5614  -64.3245    7.9153 C.ar      1 MOL     0.0037
      6 C         -64.7697  -64.3176    9.2732 C.ar      1 MOL     0.0009
      7 C         -65.8530  -63.6621    9.8165 C.ar      1 MOL     0.0131
      8 C         -66.7452  -62.9975    8.9738 C.ar      1 MOL     0.0397
      9 C         -67.8779  -62.3165    9.5894 C.2       1 MOL     0.0752
     10 O         -67.8363  -62.1036    4.6676 O.2       1 MOL    -0.2507
     11 O         -67.4853  -62.3104    6.8481 O.3       1 MOL    -0.4254
     12 O         -68.4630  -62.8075   10.5883 O.co2     1 MOL    -0.5445
     13 O         -68.3519  -61.1110    9.0997 O.co2     1 MOL    -0.5445
     14 H         -66.2878  -60.1115    4.6014 H         1 MOL     0.0342
     15 H         -65.3486  -60.7513    5.9283 H         1 MOL     0.0342
     16 H         -66.6997  -59.6905    6.2469 H         1 MOL     0.0342
     17 H         -65.3102  -63.6600    6.0936 H         1 MOL     0.0654
     18 H         -63.7505  -64.8149    7.5054 H         1 MOL     0.0619
     19 H         -64.1079  -64.8095    9.8939 H         1 MOL     0.0618
     20 H         -66.0028  -63.6611   10.8379 H         1 MOL     0.0625
@<TRIPOS>BOND
     1    1    2 1 
     2    1   14 1 
     3    1   15 1 
     4    1   16 1 
     5    2   10 2 
     6    2   11 1 
     7    3    4 ar
     8    3    8 ar
     9    3   11 1 
    10    4    5 ar
    11    4   17 1 
    12    5    6 ar
    13    5   18 1 
    14    6    7 ar
    15    6   19 1 
    16    7    8 ar
    17    7   20 1 
    18    8    9 1 
    19    9   12 ar
    20    9   13 ar
@<TRIPOS>SUBSTRUCTURE
1 MOL         1
@<TRIPOS>MOLECULE
query molecule
   20    20     1     0     0
SMALL
NO_CHARGE

@<TRIPOS>ATOM
      1 C         -44.7715  -21.8465    3.1499 C.3       1 MOL     0.1362
      2 C         -44.7447  -22.6799    1.9213 C.2       1 MOL     0.3092
      3 C         -43.9571  -23.0518   -0.3555 C.ar      1 MOL     0.1404
      4 C         -43.2595  -24.2267   -0.5401 C.ar      1 MOL     0.0468
      5 C         -43.2236  -24.9104   -1.7393 C.ar      1 MOL     0.0037
      6 C         -43.9210  -24.3913   -2.8030 C.ar      1 MOL     0.0009
      7 C         -44.6346  -23.2197   -2.6734 C.ar      1 MOL     0.0131
      8 C         -44.6473  -22.5573   -1.4450 C.ar      1 MOL     0.0397
      9 C         -45.4146  -21.3212   -1.3507 C.2       1 MOL     0.0752
     10 O         -45.3951  -23.7639    1.8176 O.2       1 MOL    -0.2507
     11 O         -44.0202  -22.3422    0.8131 O.3       1 MOL    -0.4254
     12 O         -45.4429  -20.6571   -0.2831 O.co2     1 MOL    -0.5445
     13 O         -46.1391  -20.8342   -2.4256 O.co2     1 MOL    -0.5445
     14 H         -45.4035  -22.3082    3.8795 H         1 MOL     0.0342
     15 H         -45.1513  -20.8748    2.9130 H         1 MOL     0.0342
     16 H         -43.7800  -21.7564    3.5411 H         1 MOL     0.0342
     17 H         -42.7368  -24.6156    0.2599 H         1 MOL     0.0654
     18 H         -42.6881  -25.7881   -1.8335 H         1 MOL     0.0619
     19 H         -43.9102  -24.8837   -3.7099 H         1 MOL     0.0618
     20 H         -45.1564  -22.8358   -3.4772 H         1 MOL     0.0625
@<TRIPOS>BOND
     1    1    2 1 
     2    1   14 1 
     3    1   15 1 
     4    1   16 1 
     5    2   10 2 
     6    2   11 1 
     7    3    4 ar
     8    3    8 ar
     9    3   11 1 
    10    4    5 ar
    11    4   17 1 
    12    5    6 ar
    13    5   18 1 
    14    6    7 ar
    15    6   19 1 
    16    7    8 ar
    17    7   20 1 
    18    8    9 1 
    19    9   12 ar
    20    9   13 ar
@<TRIPOS>SUBSTRUCTURE
1 MOL         1
@<TRIPOS>MOLECULE
query molecule
   20    20     1     0     0
SMALL
NO_CHARGE

@<TRIPOS>ATOM
      1 C         -12.5909  -43.2871   22.2161 C.3       1 MOL     0.1362
      2 C         -12.0034  -42.4612   23.3012 C.2       1 MOL     0.3092
      3 C         -10.0507  -41.4698   24.3720 C.ar      1 MOL     0.1404
      4 C          -9.8448  -41.8877   25.6697 C.ar      1 MOL     0.0468
      5 C          -9.2188  -41.1152   26.6279 C.ar      1 MOL     0.0037
      6 C          -8.7780  -39.8651   26.2669 C.ar      1 MOL     0.0009
      7 C          -8.9585  -39.3978   24.9833 C.ar      1 MOL     0.0131
      8 C          -9.5955  -40.2080   24.0422 C.ar      1 MOL     0.0397
      9 C          -9.7662  -39.6756   22.6958 C.2       1 MOL     0.0752
     10 O         -12.7063  -41.9413   24.2200 O.2       1 MOL    -0.2507
     11 O         -10.6651  -42.2008   23.3915 O.3       1 MOL    -0.4254
     12 O          -9.3265  -38.5380   22.3893 O.co2     1 MOL    -0.5445
     13 O         -10.4171  -40.3964   21.7087 O.co2     1 MOL    -0.5445
     14 H         -13.6502  -43.3528   22.3526 H         1 MOL     0.0342
     15 H         -12.1662  -44.2686   22.2456 H         1 MOL     0.0342
     16 H         -12.3795  -42.8352   21.2699 H         1 MOL     0.0342
     17 H         -10.1758  -42.8270   25.9390 H         1 MOL     0.0654
     18 H          -9.0849  -41.4680   27.5890 H         1 MOL     0.0619
     19 H          -8.3068  -39.2685   26.9649 H         1 MOL     0.0618
     20 H          -8.6244  -38.4574   24.7194 H         1 MOL     0.0625
@<TRIPOS>BOND
     1    1    2 1 
     2    1   14 1 
     3    1   15 1 
     4    1   16 1 
     5    2   10 2 
     6    2   11 1 
     7    3    4 ar
     8    3    8 ar
     9    3   11 1 
    10    4    5 ar
    11    4   17 1 
    12    5    6 ar
    13    5   18 1 
    14    6    7 ar
    15    6   19 1 
    16    7    8 ar
    17    7   20 1 
    18    8    9 1 
    19    9   12 ar
    20    9   13 ar
@<TRIPOS>SUBSTRUCTURE
1 MOL         1
@<TRIPOS>MOLECULE
query molecule
   20    20     1     0     0
SMALL
NO_CHARGE

@<TRIPOS>ATOM
      1 C         -32.9708  -58.9936  -20.4731 C.3       1 MOL     0.1362
      2 C         -32.8219  -59.5608  -21.8373 C.2       1 MOL     0.3092
      3 C         -30.9806  -61.1261  -21.5183 C.ar      1 MOL     0.1404
      4 C         -30.0100  -60.2805  -21.0244 C.ar      1 MOL     0.0468
      5 C         -28.8299  -60.7232  -20.4604 C.ar      1 MOL     0.0037
      6 C         -28.6138  -62.0780  -20.3879 C.ar      1 MOL     0.0009
      7 C         -29.5507  -62.9675  -20.8669 C.ar      1 MOL     0.0131
      8 C         -30.7318  -62.4819  -21.4299 C.ar      1 MOL     0.0397
      9 C         -31.6964  -63.4568  -21.9247 C.2       1 MOL     0.0752
     10 O         -33.2973  -58.9941  -22.8676 O.2       1 MOL    -0.2507
     11 O         -32.1627  -60.7318  -22.0843 O.3       1 MOL    -0.4254
     12 O         -31.5864  -63.9487  -23.0768 O.co2     1 MOL    -0.5445
     13 O         -32.7659  -63.8750  -21.1508 O.co2     1 MOL    -0.5445
     14 H         -33.5198  -58.0766  -20.5268 H         1 MOL     0.0342
     15 H         -32.0030  -58.8058  -20.0577 H         1 MOL     0.0342
     16 H         -33.4963  -59.6893  -19.8533 H         1 MOL     0.0342
     17 H         -30.1741  -59.2633  -21.0789 H         1 MOL     0.0654
     18 H         -28.1297  -60.0543  -20.1022 H         1 MOL     0.0619
     19 H         -27.7397  -62.4341  -19.9705 H         1 MOL     0.0618
     20 H         -29.3814  -63.9842  -20.8089 H         1 MOL     0.0625
@<TRIPOS>BOND
     1    1    2 1 
     2    1   14 1 
     3    1   15 1 
     4    1   16 1 
     5    2   10 2 
     6    2   11 1 
     7    3    4 ar
     8    3    8 ar
     9    3   11 1 
    10    4    5 ar
    11    4   17 1 
    12    5    6 ar
    13    5   18 1 
    14    6    7 ar
    15    6   19 1 
    16    7    8 ar
    17    7   20 1 
    18    8    9 1 
    19    9   12 ar
    20    9   13 ar
@<TRIPOS>SUBSTRUCTURE
1 MOL         1
@<TRIPOS>MOLECULE
query molecule
   20    20     1     0     0
SMALL
NO_CHARGE

@<TRIPOS>ATOM
      1 C         -65.2112  -45.6123   25.7478 C.3       1 MOL     0.1362
      2 C         -63.8351  -45.2200   25.3510 C.2       1 MOL     0.3092
      3 C         -63.0834  -43.0347   24.5752 C.ar      1 MOL     0.1404
      4 C         -63.7703  -41.9853   25.1478 C.ar      1 MOL     0.0468
      5 C         -63.2282  -40.7281   25.3271 C.ar      1 MOL     0.0037
      6 C         -61.9359  -40.5139   24.9130 C.ar      1 MOL     0.0009
      7 C         -61.2043  -41.5278   24.3341 C.ar      1 MOL     0.0131
      8 C         -61.7866  -42.7856   24.1700 C.ar      1 MOL     0.0397
      9 C         -60.9781  -43.8303   23.5531 C.2       1 MOL     0.0752
     10 O         -62.8010  -45.7196   25.8893 O.2       1 MOL    -0.2507
     11 O         -63.5804  -44.2947   24.3785 O.3       1 MOL    -0.4254
     12 O         -61.5161  -44.8283   23.0090 O.co2     1 MOL    -0.5445
     13 O         -59.5949  -43.7659   23.5442 O.co2     1 MOL    -0.5445
     14 H         -65.1619  -46.3482   26.5230 H         1 MOL     0.0342
     15 H         -65.7235  -46.0197   24.9015 H         1 MOL     0.0342
     16 H         -65.7382  -44.7523   26.1039 H         1 MOL     0.0342
     17 H         -64.7405  -42.1480   25.4589 H         1 MOL     0.0654
     18 H         -63.7787  -39.9702   25.7613 H         1 MOL     0.0619
     19 H         -61.5078  -39.5829   25.0362 H         1 MOL     0.0618
     20 H         -60.2337  -41.3594   24.0255 H         1 MOL     0.0625
@<TRIPOS>BOND
     1    1    2 1 
     2    1   14 1 
     3    1   15 1 
     4    1   16 1 
     5    2   10 2 
     6    2   11 1 
     7    3    4 ar
     8    3    8 ar
     9    3   11 1 
    10    4    5 ar
    11    4   17 1 
    12    5    6 ar
    13    5   18 1 
    14    6    7 ar
    15    6   19 1 
    16    7    8 ar
    17    7   20 1 
    18    8    9 1 
    19    9   12 ar
    20    9   13 ar
@<TRIPOS>SUBSTRUCTURE
1 MOL         1
@<TRIPOS>MOLECULE
query molecule
   20    20     1     0     0
SMALL
NO_CHARGE

@<TRIPOS>ATOM
      1 C         -55.3308  -70.3715   -9.0964 C.3       1 MOL     0.1362
      2 C         -55.9706  -70.8444  -10.3502 C.2       1 MOL     0.3092
      3 C         -54.5656  -69.5373  -11.8535 C.ar      1 MOL     0.1404
      4 C         -54.7085  -68.1782  -12.0356 C.ar      1 MOL     0.0468
      5 C         -53.6517  -67.3306  -12.3027 C.ar      1 MOL     0.0037
      6 C         -52.3921  -67.8720  -12.3903 C.ar      1 MOL     0.0009
      7 C         -52.1929  -69.2243  -12.2171 C.ar      1 MOL     0.0131
      8 C         -53.2861  -70.0492  -11.9482 C.ar      1 MOL     0.0397
      9 C         -53.0317  -71.4739  -11.7718 C.2       1 MOL     0.0752
     10 O         -56.9230  -71.6820  -10.3565 O.2       1 MOL    -0.2507
     11 O         -55.5830  -70.4132  -11.5874 O.3       1 MOL    -0.4254
     12 O         -51.9698  -71.9987  -12.1942 O.co2     1 MOL    -0.5445
     13 O         -53.9446  -72.3000  -11.1380 O.co2     1 MOL    -0.5445
     14 H         -55.7989  -70.8435   -8.2579 H         1 MOL     0.0342
     15 H         -55.4436  -69.3105   -9.0170 H         1 MOL     0.0342
     16 H         -54.2904  -70.6195   -9.1117 H         1 MOL     0.0342
     17 H         -55.6550  -67.7730  -11.9688 H         1 MOL     0.0654
     18 H         -53.8039  -66.3176  -12.4319 H         1 MOL     0.0619
     19 H         -51.5856  -67.2594  -12.5887 H         1 MOL     0.0618
     20 H         -51.2434  -69.6240  -12.2843 H         1 MOL     0.0625
@<TRIPOS>BOND
     1    1    2 1 
     2    1   14 1 
     3    1   15 1 
     4    1   16 1 
     5    2   10 2 
     6    2   11 1 
     7    3    4 ar
     8    3    8 ar
     9    3   11 1 
    10    4    5 ar
    11    4   17 1 
    12    5    6 ar
    13    5   18 1 
    14    6    7 ar
    15    6   19 1 
    16    7    8 ar
    17    7   20 1 
    18    8    9 1 
    19    9   12 ar
    20    9   13 ar
@<TRIPOS>SUBSTRUCTURE
1 MOL         1
@<TRIPOS>MOLECULE
query molecule
   20    20     1     0     0
SMALL
NO_CHARGE

@<TRIPOS>ATOM
      1 C         -48.3476  -31.2831    0.2105 C.3       1 MOL     0.1362
      2 C         -47.9051  -31.9761   -1.0259 C.2       1 MOL     0.3092
      3 C         -48.9006  -30.4098   -2.6064 C.ar      1 MOL     0.1404
      4 C         -50.2443  -30.1171   -2.5083 C.ar      1 MOL     0.0468
      5 C         -50.7847  -28.8951   -2.8569 C.ar      1 MOL     0.0037
      6 C         -49.9368  -27.9208   -3.3252 C.ar      1 MOL     0.0009
      7 C         -48.5852  -28.1605   -3.4436 C.ar      1 MOL     0.0131
      8 C         -48.0760  -29.4083   -3.0808 C.ar      1 MOL     0.0397
      9 C         -46.6404  -29.6204   -3.2215 C.2       1 MOL     0.0752
     10 O         -47.1081  -32.9626   -1.0073 O.2       1 MOL    -0.2507
     11 O         -48.3228  -31.6048   -2.2727 O.3       1 MOL    -0.4254
     12 O         -45.9602  -30.0919   -2.2747 O.co2     1 MOL    -0.5445
     13 O         -45.9738  -29.3108   -4.3951 O.co2     1 MOL    -0.5445
     14 H         -47.8934  -31.7475    1.0609 H         1 MOL     0.0342
     15 H         -49.4121  -31.3491    0.2945 H         1 MOL     0.0342
     16 H         -48.0562  -30.2548    0.1664 H         1 MOL     0.0342
     17 H         -50.8797  -30.8496   -2.1557 H         1 MOL     0.0654
     18 H         -51.7980  -28.7183   -2.7671 H         1 MOL     0.0619
     19 H         -50.3162  -26.9989   -3.5922 H         1 MOL     0.0618
     20 H         -47.9542  -27.4234   -3.7962 H         1 MOL     0.0625
@<TRIPOS>BOND
     1    1    2 1 
     2    1   14 1 
     3    1   15 1 
     4    1   16 1 
     5    2   10 2 
     6    2   11 1 
     7    3    4 ar
     8    3    8 ar
     9    3   11 1 
    10    4    5 ar
    11    4   17 1 
    12    5    6 ar
    13    5   18 1 
    14    6    7 ar
    15    6   19 1 
    16    7    8 ar
    17    7   20 1 
    18    8    9 1 
    19    9   12 ar
    20    9   13 ar
@<TRIPOS>SUBSTRUCTURE
1 MOL         1
@<TRIPOS>MOLECULE
query molecule
   20    20     1     0     0
SMALL
NO_CHARGE

@<TRIPOS>ATOM
      1 C         -57.4881  -70.5435   30.6067 C.3       1 MOL     0.1362
      2 C         -58.0938  -71.8213   31.0598 C.2       1 MOL     0.3092
      3 C         -59.0978  -73.9794   30.5339 C.ar      1 MOL     0.1404
      4 C         -60.3845  -74.1127   31.0110 C.ar      1 MOL     0.0468
      5 C         -60.9515  -75.3273   31.3426 C.ar      1 MOL     0.0037
      6 C         -60.1921  -76.4615   31.1875 C.ar      1 MOL     0.0009
      7 C         -58.9001  -76.3853   30.7150 C.ar      1 MOL     0.0131
      8 C         -58.3616  -75.1393   30.3900 C.ar      1 MOL     0.0397
      9 C         -56.9913  -75.1030   29.8936 C.2       1 MOL     0.0752
     10 O         -58.2792  -72.0919   32.2850 O.2       1 MOL    -0.2507
     11 O         -58.4966  -72.7980   30.1934 O.3       1 MOL    -0.4254
     12 O         -56.5209  -76.0565   29.2220 O.co2     1 MOL    -0.5445
     13 O         -56.1588  -74.0247   30.1424 O.co2     1 MOL    -0.5445
     14 H         -57.2552  -69.9384   31.4578 H         1 MOL     0.0342
     15 H         -58.1809  -70.0238   29.9786 H         1 MOL     0.0342
     16 H         -56.5931  -70.7484   30.0577 H         1 MOL     0.0342
     17 H         -60.9538  -73.2600   31.1262 H         1 MOL     0.0654
     18 H         -61.9200  -75.3814   31.6964 H         1 MOL     0.0619
     19 H         -60.5932  -77.3815   31.4282 H         1 MOL     0.0618
     20 H         -58.3355  -77.2420   30.6010 H         1 MOL     0.0625
@<TRIPOS>BOND
     1    1    2 1 
     2    1   14 1 
     3    1   15 1 
     4    1   16 1 
     5    2   10 2 
     6    2   11 1 
     7    3    4 ar
     8    3    8 ar
     9    3   11 1 
    10    4    5 ar
    11    4   17 1 
    12    5    6 ar
    13    5   18 1 
    14    6    7 ar
    15    6   19 1 
    16    7    8 ar
    17    7   20 1 
    18    8    9 1 
    19    9   12 ar
    20    9   13 ar
@<TRIPOS>SUBSTRUCTURE
1 MOL         1
@<TRIPOS>MOLECULE
query molecule
   20    20     1     0     0
SMALL
NO_CHARGE

@<TRIPOS>ATOM
      1 C         -16.5040  -74.7100  -14.5886 C.3       1 MOL     0.1362
      2 C         -16.3121  -76.1061  -14.1209 C.2       1 MOL     0.3092
      3 C         -15.2409  -76.9050  -16.1597 C.ar      1 MOL     0.1404
      4 C         -13.9774  -76.4539  -16.4773 C.ar      1 MOL     0.0468
      5 C         -13.5272  -76.3010  -17.7738 C.ar      1 MOL     0.0037
      6 C         -14.3849  -76.6163  -18.7996 C.ar      1 MOL     0.0009
      7 C         -15.6589  -77.0711  -18.5382 C.ar      1 MOL     0.0131
      8 C         -16.0779  -77.2131  -17.2145 C.ar      1 MOL     0.0397
      9 C         -17.4333  -77.6972  -16.9819 C.2       1 MOL     0.0752
     10 O         -16.6791  -76.4974  -12.9716 O.2       1 MOL    -0.2507
     11 O         -15.7281  -77.0715  -14.8916 O.3       1 MOL    -0.4254
     12 O         -17.6384  -78.7811  -16.3781 O.co2     1 MOL    -0.5445
     13 O         -18.5406  -76.9879  -17.4158 O.co2     1 MOL    -0.5445
     14 H         -16.9799  -74.1389  -13.8190 H         1 MOL     0.0342
     15 H         -17.1182  -74.7090  -15.4647 H         1 MOL     0.0342
     16 H         -15.5532  -74.2774  -14.8190 H         1 MOL     0.0342
     17 H         -13.3342  -76.2182  -15.7058 H         1 MOL     0.0654
     18 H         -12.5720  -75.9600  -17.9667 H         1 MOL     0.0619
     19 H         -14.0720  -76.5109  -19.7775 H         1 MOL     0.0618
     20 H         -16.2977  -77.3063  -19.3143 H         1 MOL     0.0625
@<TRIPOS>BOND
     1    1    2 1 
     2    1   14 1 
     3    1   15 1 
     4    1   16 1 
     5    2   10 2 
     6    2   11 1 
     7    3    4 ar
     8    3    8 ar
     9    3   11 1 
    10    4    5 ar
    11    4   17 1 
    12    5    6 ar
    13    5   18 1 
    14    6    7 ar
    15    6   19 1 
    16    7    8 ar
    17    7   20 1 
    18    8    9 1 
    19    9   12 ar
    20    9   13 ar
@<TRIPOS>SUBSTRUCTURE
1 MOL         1
@<TRIPOS>MOLECULE
query molecule
   20    20     1     0     0
SMALL
NO_CHARGE

@<TRIPOS>ATOM
      1 C         -43.1919  -62.1985    5.5329 C.3       1 MOL     0.1362
      2 C         -43.7809  -63.2438    4.6580 C.2       1 MOL     0.3092
      3 C         -41.7580  -63.7276    3.3867 C.ar      1 MOL     0.1404
      4 C         -41.3832  -62.6332    2.6365 C.ar      1 MOL     0.0468
      5 C         -40.0836  -62.3937    2.2360 C.ar      1 MOL     0.0037
      6 C         -39.1144  -63.2942    2.6063 C.ar      1 MOL     0.0009
      7 C         -39.4343  -64.4053    3.3556 C.ar      1 MOL     0.0131
      8 C         -40.7592  -64.6132    3.7419 C.ar      1 MOL     0.0397
      9 C         -41.0548  -65.8010    4.5340 C.2       1 MOL     0.0752
     10 O         -45.0227  -63.5012    4.6433 O.2       1 MOL    -0.2507
     11 O         -43.0315  -64.0039    3.8050 O.3       1 MOL    -0.4254
     12 O         -40.1850  -66.6912    4.7145 O.co2     1 MOL    -0.5445
     13 O         -42.2976  -65.9950    5.1130 O.co2     1 MOL    -0.5445
     14 H         -43.9673  -61.7374    6.1081 H         1 MOL     0.0342
     15 H         -42.7084  -61.4594    4.9291 H         1 MOL     0.0342
     16 H         -42.4764  -62.6458    6.1904 H         1 MOL     0.0342
     17 H         -42.1121  -61.9574    2.3598 H         1 MOL     0.0654
     18 H         -39.8468  -61.5602    1.6745 H         1 MOL     0.0619
     19 H         -38.1354  -63.1374    2.3196 H         1 MOL     0.0618
     20 H         -38.7005  -65.0775    3.6302 H         1 MOL     0.0625
@<TRIPOS>BOND
     1    1    2 1 
     2    1   14 1 
     3    1   15 1 
     4    1   16 1 
     5    2   10 2 
     6    2   11 1 
     7    3    4 ar
     8    3    8 ar
     9    3   11 1 
    10    4    5 ar
    11    4   17 1 
    12    5    6 ar
    13    5   18 1 
    14    6    7 ar
    15    6   19 1 
    16    7    8 ar
    17    7   20 1 
    18    8    9 1 
    19    9   12 ar
    20    9   13 ar
@<TRIPOS>SUBSTRUCTURE
1 MOL         1
@<TRIPOS>MOLECULE
query molecule
   20    20     1     0     0
SMALL
NO_CHARGE

@<TRIPOS>ATOM
      1 C         -50.0273  -72.1200  -23.3406 C.3       1 MOL     0.1362
      2 C         -50.8755  -72.3496  -22.1437 C.2       1 MOL     0.3092
      3 C         -52.4701  -71.5139  -20.5002 C.ar      1 MOL     0.1404
      4 C         -52.0632  -71.5477  -19.1833 C.ar      1 MOL     0.0468
      5 C         -52.9333  -71.6952  -18.1212 C.ar      1 MOL     0.0037
      6 C         -54.2747  -71.8137  -18.3932 C.ar      1 MOL     0.0009
      7 C         -54.7354  -71.7868  -19.6915 C.ar      1 MOL     0.0131
      8 C         -53.8253  -71.6357  -20.7387 C.ar      1 MOL     0.0397
      9 C         -54.3544  -71.6123  -22.0971 C.2       1 MOL     0.0752
     10 O         -50.9428  -73.4738  -21.5604 O.2       1 MOL    -0.2507
     11 O         -51.6443  -71.3696  -21.5820 O.3       1 MOL    -0.4254
     12 O         -55.4426  -72.1768  -22.3773 O.co2     1 MOL    -0.5445
     13 O         -53.6823  -70.9735  -23.1256 O.co2     1 MOL    -0.5445
     14 H         -49.5194  -73.0265  -23.5961 H         1 MOL     0.0342
     15 H         -49.3087  -71.3568  -23.1269 H         1 MOL     0.0342
     16 H         -50.6425  -71.8116  -24.1595 H         1 MOL     0.0342
     17 H         -51.0556  -71.4578  -18.9806 H         1 MOL     0.0654
     18 H         -52.5852  -71.7150  -17.1494 H         1 MOL     0.0619
     19 H         -54.9453  -71.9247  -17.6167 H         1 MOL     0.0618
     20 H         -55.7449  -71.8763  -19.8881 H         1 MOL     0.0625
@<TRIPOS>BOND
     1    1    2 1 
     2    1   14 1 
     3    1   15 1 
     4    1   16 1 
     5    2   10 2 
     6    2   11 1 
     7    3    4 ar
     8    3    8 ar
     9    3   11 1 
    10    4    5 ar
    11    4   17 1 
    12    5    6 ar
    13    5   18 1 
    14    6    7 ar
    15    6   19 1 
    16    7    8 ar
    17    7   20 1 
    18    8    9 1 
    19    9   12 ar
    20    9   13 ar
@<TRIPOS>SUBSTRUCTURE
1 MOL         1
@<TRIPOS>MOLECULE
query molecule
   20    20     1     0     0
SMALL
NO_CHARGE

@<TRIPOS>ATOM
      1 C          -5.9681  -65.8464   24.0663 C.3       1 MOL     0.1362
      2 C          -6.3214  -67.2675   23.8206 C.2       1 MOL     0.3092
      3 C          -5.8958  -67.2264   21.4207 C.ar      1 MOL     0.1404
      4 C          -6.7431  -66.3929   20.7218 C.ar      1 MOL     0.0468
      5 C          -6.3956  -65.7733   19.5376 C.ar      1 MOL     0.0037
      6 C          -5.1387  -66.0000   19.0314 C.ar      1 MOL     0.0009
      7 C          -4.2524  -66.8247   19.6893 C.ar      1 MOL     0.0131
      8 C          -4.6398  -67.4330   20.8842 C.ar      1 MOL     0.0397
      9 C          -3.6720  -68.2979   21.5482 C.2       1 MOL     0.0752
     10 O          -6.7638  -68.0285   24.7337 O.2       1 MOL    -0.2507
     11 O          -6.1978  -67.8600   22.5956 O.3       1 MOL    -0.4254
     12 O          -3.7165  -68.4842   22.7910 O.co2     1 MOL    -0.5445
     13 O          -2.6709  -68.9422   20.8408 O.co2     1 MOL    -0.5445
     14 H          -6.1477  -65.6075   25.0937 H         1 MOL     0.0342
     15 H          -6.5688  -65.2170   23.4437 H         1 MOL     0.0342
     16 H          -4.9345  -65.6916   23.8385 H         1 MOL     0.0342
     17 H          -7.6864  -66.2230   21.1036 H         1 MOL     0.0654
     18 H          -7.0618  -65.1558   19.0468 H         1 MOL     0.0619
     19 H          -4.8549  -65.5483   18.1479 H         1 MOL     0.0618
     20 H          -3.3095  -66.9902   19.3029 H         1 MOL     0.0625
@<TRIPOS>BOND
     1    1    2 1 
     2    1   14 1 
     3    1   15 1 
     4    1   16 1 
     5    2   10 2 
     6    2   11 1 
     7    3    4 ar
     8    3    8 ar
     9    3   11 1 
    10    4    5 ar
    11    4   17 1 
    12    5    6 ar
    13    5   18 1 
    14    6    7 ar
    15    6   19 1 
    16    7    8 ar
    17    7   20 1 
    18    8    9 1 
    19    9   12 ar
    20    9   13 ar
@<TRIPOS>SUBSTRUCTURE
1 MOL         1
@<TRIPOS>MOLECULE
query molecule
   20    20     1     0     0
SMALL
NO_CHARGE

@<TRIPOS>ATOM
      1 C         -19.8528  -24.8175  -20.1087 C.3       1 MOL     0.1362
      2 C         -18.5864  -24.3410  -19.4973 C.2       1 MOL     0.3092
      3 C         -17.0762  -24.2651  -17.5853 C.ar      1 MOL     0.1404
      4 C         -16.7340  -23.0537  -17.0229 C.ar      1 MOL     0.0468
      5 C         -15.5123  -22.8085  -16.4279 C.ar      1 MOL     0.0037
      6 C         -14.5909  -23.8270  -16.3950 C.ar      1 MOL     0.0009
      7 C         -14.8809  -25.0575  -16.9428 C.ar      1 MOL     0.0131
      8 C         -16.1270  -25.2674  -17.5353 C.ar      1 MOL     0.0397
      9 C         -16.3933  -26.5837  -18.1030 C.2       1 MOL     0.0752
     10 O         -17.7085  -23.7040  -20.1548 O.2       1 MOL    -0.2507
     11 O         -18.2730  -24.5517  -18.1842 O.3       1 MOL    -0.4254
     12 O         -17.4271  -27.2269  -17.7883 O.co2     1 MOL    -0.5445
     13 O         -15.5226  -27.1740  -19.0036 O.co2     1 MOL    -0.5445
     14 H         -19.8773  -24.5371  -21.1411 H         1 MOL     0.0342
     15 H         -20.6830  -24.3750  -19.5993 H         1 MOL     0.0342
     16 H         -19.9100  -25.8825  -20.0259 H         1 MOL     0.0342
     17 H         -17.4274  -22.2901  -17.0477 H         1 MOL     0.0654
     18 H         -15.2977  -21.8854  -16.0181 H         1 MOL     0.0619
     19 H         -13.6705  -23.6689  -15.9556 H         1 MOL     0.0618
     20 H         -14.1834  -25.8181  -16.9142 H         1 MOL     0.0625
@<TRIPOS>BOND
     1    1    2 1 
     2    1   14 1 
     3    1   15 1 
     4    1   16 1 
     5    2   10 2 
     6    2   11 1 
     7    3    4 ar
     8    3    8 ar
     9    3   11 1 
    10    4    5 ar
    11    4   17 1 
    12    5    6 ar
    13    5   18 1 
    14    6    7 ar
    15    6   19 1 
    16    7    8 ar
    17    7   20 1 
    18    8    9 1 
    19    9   12 ar
    20    9   13 ar
@<TRIPOS>SUBSTRUCTURE
1 MOL         1
@<TRIPOS>MOLECULE
query molecule
   20    20     1     0     0
SMALL
NO_CHARGE

@<TRIPOS>ATOM
      1 C         -14.4068  -30.4698   -1.5950 C.3       1 MOL     0.1362
      2 C         -15.3695  -30.3691   -0.4690 C.2       1 MOL     0.3092
      3 C         -16.0308  -29.3716    1.6546 C.ar      1 MOL     0.1404
      4 C         -17.1295  -28.5406    1.7119 C.ar      1 MOL     0.0468
      5 C         -17.9456  -28.4330    2.8205 C.ar      1 MOL     0.0037
      6 C         -17.6457  -29.1954    3.9232 C.ar      1 MOL     0.0009
      7 C         -16.5588  -30.0422    3.9199 C.ar      1 MOL     0.0131
      8 C         -15.7573  -30.1241    2.7802 C.ar      1 MOL     0.0397
      9 C         -14.6173  -31.0322    2.8184 C.2       1 MOL     0.0752
     10 O         -16.4200  -31.0769   -0.4039 O.2       1 MOL    -0.2507
     11 O         -15.1960  -29.5096    0.5789 O.3       1 MOL    -0.4254
     12 O         -14.6574  -32.1459    2.2355 O.co2     1 MOL    -0.5445
     13 O         -13.4541  -30.7068    3.4955 O.co2     1 MOL    -0.5445
     14 H         -14.7498  -31.2058   -2.2919 H         1 MOL     0.0342
     15 H         -13.4469  -30.7554   -1.2186 H         1 MOL     0.0342
     16 H         -14.3305  -29.5218   -2.0845 H         1 MOL     0.0342
     17 H         -17.3539  -27.9692    0.8826 H         1 MOL     0.0654
     18 H         -18.7595  -27.7976    2.8202 H         1 MOL     0.0619
     19 H         -18.2406  -29.1331    4.7643 H         1 MOL     0.0618
     20 H         -16.3397  -30.6122    4.7522 H         1 MOL     0.0625
@<TRIPOS>BOND
     1    1    2 1 
     2    1   14 1 
     3    1   15 1 
     4    1   16 1 
     5    2   10 2 
     6    2   11 1 
     7    3    4 ar
     8    3    8 ar
     9    3   11 1 
    10    4    5 ar
    11    4   17 1 
    12    5    6 ar
    13    5   18 1 
    14    6    7 ar
    15    6   19 1 
    16    7    8 ar
    17    7   20 1 
    18    8    9 1 
    19    9   12 ar
    20    9   13 ar
@<TRIPOS>SUBSTRUCTURE
1 MOL         1
@<TRIPOS>MOLECULE
query molecule
   20    20     1     0     0
SMALL
NO_CHARGE

@<TRIPOS>ATOM
      1 C         -46.0068  -73.4177    2.8585 C.3       1 MOL     0.1362
      2 C         -46.5373  -72.2332    2.1372 C.2       1 MOL     0.3092
      3 C         -45.3245  -70.3568    1.1622 C.ar      1 MOL     0.1404
      4 C         -46.0137  -69.2073    1.4855 C.ar      1 MOL     0.0468
      5 C         -45.4345  -67.9540    1.5106 C.ar      1 MOL     0.0037
      6 C         -44.1010  -67.8494    1.1973 C.ar      1 MOL     0.0009
      7 C         -43.3652  -68.9663    0.8664 C.ar      1 MOL     0.0131
      8 C         -43.9858  -70.2164    0.8523 C.ar      1 MOL     0.0397
      9 C         -43.1713  -71.3722    0.4968 C.2       1 MOL     0.0752
     10 O         -47.6601  -71.7121    2.4137 O.2       1 MOL    -0.2507
     11 O         -45.8573  -71.6169    1.1249 O.3       1 MOL    -0.4254
     12 O         -42.5530  -72.0234    1.3772 O.co2     1 MOL    -0.5445
     13 O         -43.0461  -71.7942   -0.8161 O.co2     1 MOL    -0.5445
     14 H         -46.7093  -73.7236    3.6055 H         1 MOL     0.0342
     15 H         -45.0780  -73.1643    3.3250 H         1 MOL     0.0342
     16 H         -45.8513  -74.2171    2.1650 H         1 MOL     0.0342
     17 H         -47.0149  -69.2876    1.7213 H         1 MOL     0.0654
     18 H         -45.9883  -67.1187    1.7589 H         1 MOL     0.0619
     19 H         -43.6447  -66.9237    1.2091 H         1 MOL     0.0618
     20 H         -42.3635  -68.8799    0.6322 H         1 MOL     0.0625
@<TRIPOS>BOND
     1    1    2 1 
     2    1   14 1 
     3    1   15 1 
     4    1   16 1 
     5    2   10 2 
     6    2   11 1 
     7    3    4 ar
     8    3    8 ar
     9    3   11 1 
    10    4    5 ar
    11    4   17 1 
    12    5    6 ar
    13    5   18 1 
    14    6    7 ar
    15    6   19 1 
    16    7    8 ar
    17    7   20 1 
    18    8    9 1 
    19    9   12 ar
    20    9   13 ar
@<TRIPOS>SUBSTRUCTURE
1 MOL         1
@<TRIPOS>MOLECULE
query molecule
   20    20     1     0     0
SMALL
NO_CHARGE

@<TRIPOS>ATOM
      1 C         -45.0179  -83.6296  -23.8125 C.3       1 MOL     0.1362
      2 C         -45.7594  -83.1996  -22.6000 C.2       1 MOL     0.3092
      3 C         -46.5861  -81.1092  -23.5429 C.ar      1 MOL     0.1404
      4 C         -47.5307  -81.1702  -24.5453 C.ar      1 MOL     0.0468
      5 C         -47.6378  -80.2277  -25.5488 C.ar      1 MOL     0.0037
      6 C         -46.7561  -79.1741  -25.5459 C.ar      1 MOL     0.0009
      7 C         -45.7920  -79.0649  -24.5677 C.ar      1 MOL     0.0131
      8 C         -45.7152  -80.0373  -23.5695 C.ar      1 MOL     0.0397
      9 C         -44.6807  -79.8842  -22.5536 C.2       1 MOL     0.0752
     10 O         -45.8063  -83.9010  -21.5442 O.2       1 MOL    -0.2507
     11 O         -46.4441  -82.0192  -22.5306 O.3       1 MOL    -0.4254
     12 O         -44.8795  -79.1839  -21.5281 O.co2     1 MOL    -0.5445
     13 O         -43.4458  -80.4983  -22.6786 O.co2     1 MOL    -0.5445
     14 H         -44.5626  -84.5811  -23.6326 H         1 MOL     0.0342
     15 H         -44.2603  -82.9095  -24.0409 H         1 MOL     0.0342
     16 H         -45.6960  -83.7075  -24.6360 H         1 MOL     0.0342
     17 H         -48.1927  -81.9616  -24.5457 H         1 MOL     0.0654
     18 H         -48.3614  -80.3120  -26.2805 H         1 MOL     0.0619
     19 H         -46.8158  -78.4563  -26.2850 H         1 MOL     0.0618
     20 H         -45.1330  -78.2703  -24.5720 H         1 MOL     0.0625
@<TRIPOS>BOND
     1    1    2 1 
     2    1   14 1 
     3    1   15 1 
     4    1   16 1 
     5    2   10 2 
     6    2   11 1 
     7    3    4 ar
     8    3    8 ar
     9    3   11 1 
    10    4    5 ar
    11    4   17 1 
    12    5    6 ar
    13    5   18 1 
    14    6    7 ar
    15    6   19 1 
    16    7    8 ar
    17    7   20 1 
    18    8    9 1 
    19    9   12 ar
    20    9   13 ar
@<TRIPOS>SUBSTRUCTURE
1 MOL         1
@<TRIPOS>MOLECULE
query molecule
   20    20     1     0     0
SMALL
NO_CHARGE

@<TRIPOS>ATOM
      1 C          -4.6375  -43.3414    3.9592 C.3       1 MOL     0.1362
      2 C          -3.5880  -43.0480    4.9678 C.2       1 MOL     0.3092
      3 C          -4.2089  -40.9902    6.1178 C.ar      1 MOL     0.1404
      4 C          -5.5297  -41.2897    6.3760 C.ar      1 MOL     0.0468
      5 C          -6.3765  -40.4548    7.0778 C.ar      1 MOL     0.0037
      6 C          -5.8742  -39.2637    7.5430 C.ar      1 MOL     0.0009
      7 C          -4.5614  -38.9146    7.3126 C.ar      1 MOL     0.0131
      8 C          -3.7358  -39.7851    6.5994 C.ar      1 MOL     0.0397
      9 C          -2.3536  -39.3776    6.3777 C.2       1 MOL     0.0752
     10 O          -2.8532  -43.9512    5.4708 O.2       1 MOL    -0.2507
     11 O          -3.3353  -41.7865    5.4279 O.3       1 MOL    -0.4254
     12 O          -1.8308  -39.4567    5.2367 O.co2     1 MOL    -0.5445
     13 O          -1.5669  -38.8926    7.4090 O.co2     1 MOL    -0.5445
     14 H          -4.6507  -44.3916    3.7544 H         1 MOL     0.0342
     15 H          -4.4254  -42.8052    3.0580 H         1 MOL     0.0342
     16 H          -5.5908  -43.0389    4.3385 H         1 MOL     0.0342
     17 H          -5.9052  -42.1849    6.0266 H         1 MOL     0.0654
     18 H          -7.3598  -40.7189    7.2490 H         1 MOL     0.0619
     19 H          -6.4870  -38.6223    8.0706 H         1 MOL     0.0618
     20 H          -4.1910  -38.0180    7.6655 H         1 MOL     0.0625
@<TRIPOS>BOND
     1    1    2 1 
     2    1   14 1 
     3    1   15 1 
     4    1   16 1 
     5    2   10 2 
     6    2   11 1 
     7    3    4 ar
     8    3    8 ar
     9    3   11 1 
    10    4    5 ar
    11    4   17 1 
    12    5    6 ar
    13    5   18 1 
    14    6    7 ar
    15    6   19 1 
    16    7    8 ar
    17    7   20 1 
    18    8    9 1 
    19    9   12 ar
    20    9   13 ar
@<TRIPOS>SUBSTRUCTURE
1 MOL         1
@<TRIPOS>MOLECULE
query molecule
   20    20     1     0     0
SMALL
NO_CHARGE

@<TRIPOS>ATOM
      1 C         -68.6073  -49.8010    5.2370 C.3       1 MOL     0.1362
      2 C         -68.4573  -49.9419    6.7076 C.2       1 MOL     0.3092
      3 C         -69.4549  -49.7669    8.9249 C.ar      1 MOL     0.1404
      4 C         -70.0249  -50.9114    9.4408 C.ar      1 MOL     0.0468
      5 C         -70.0857  -51.1890   10.7921 C.ar      1 MOL     0.0037
      6 C         -69.5488  -50.2757   11.6667 C.ar      1 MOL     0.0009
      7 C         -68.9675  -49.1151   11.2047 C.ar      1 MOL     0.0131
      8 C         -68.9246  -48.8697    9.8314 C.ar      1 MOL     0.0397
      9 C         -68.3007  -47.6300    9.3847 C.2       1 MOL     0.0752
     10 O         -67.4661  -50.5278    7.2394 O.2       1 MOL    -0.2507
     11 O         -69.3727  -49.4516    7.5956 O.3       1 MOL    -0.4254
     12 O         -67.0493  -47.5085    9.3580 O.co2     1 MOL    -0.5445
     13 O         -69.0571  -46.5441    8.9769 O.co2     1 MOL    -0.5445
     14 H         -67.7727  -50.2590    4.7486 H         1 MOL     0.0342
     15 H         -68.6449  -48.7630    4.9806 H         1 MOL     0.0342
     16 H         -69.5116  -50.2789    4.9237 H         1 MOL     0.0342
     17 H         -70.4270  -51.5967    8.7826 H         1 MOL     0.0654
     18 H         -70.5219  -52.0596   11.1355 H         1 MOL     0.0619
     19 H         -69.5816  -50.4602   12.6816 H         1 MOL     0.0618
     20 H         -68.5660  -48.4335   11.8680 H         1 MOL     0.0625
@<TRIPOS>BOND
     1    1    2 1 
     2    1   14 1 
     3    1   15 1 
     4    1   16 1 
     5    2   10 2 
     6    2   11 1 
     7    3    4 ar
     8    3    8 ar
     9    3   11 1 
    10    4    5 ar
    11    4   17 1 
    12    5    6 ar
    13    5   18 1 
    14    6    7 ar
    15    6   19 1 
    16    7    8 ar
    17    7   20 1 
    18    8    9 1 
    19    9   12 ar
    20    9   13 ar
@<TRIPOS>SUBSTRUCTURE
1 MOL         1
@<TRIPOS>MOLECULE
query molecule
   20    20     1     0     0
SMALL
NO_CHARGE

@<TRIPOS>ATOM
      1 C         -66.6764  -59.5303  -12.9632 C.3       1 MOL     0.1362
      2 C         -67.2887  -60.3914  -14.0065 C.2       1 MOL     0.3092
      3 C         -66.9021  -59.2074  -16.1020 C.ar      1 MOL     0.1404
      4 C         -67.9884  -58.4053  -16.3801 C.ar      1 MOL     0.0468
      5 C         -67.9186  -57.2773  -17.1736 C.ar      1 MOL     0.0037
      6 C         -66.7014  -56.9378  -17.7127 C.ar      1 MOL     0.0009
      7 C         -65.5835  -57.7049  -17.4672 C.ar      1 MOL     0.0131
      8 C         -65.6935  -58.8379  -16.6597 C.ar      1 MOL     0.0397
      9 C         -64.4867  -59.6216  -16.4251 C.2       1 MOL     0.0752
     10 O         -68.1931  -61.2415  -13.7454 O.2       1 MOL    -0.2507
     11 O         -66.9255  -60.3321  -15.3224 O.3       1 MOL    -0.4254
     12 O         -64.0803  -60.4540  -17.2757 O.co2     1 MOL    -0.5445
     13 O         -63.7467  -59.4823  -15.2630 O.co2     1 MOL    -0.5445
     14 H         -67.1177  -59.7527  -12.0141 H         1 MOL     0.0342
     15 H         -66.8480  -58.5021  -13.2040 H         1 MOL     0.0342
     16 H         -65.6238  -59.7159  -12.9206 H         1 MOL     0.0342
     17 H         -68.9017  -58.6612  -15.9739 H         1 MOL     0.0654
     18 H         -68.7580  -56.7044  -17.3558 H         1 MOL     0.0619
     19 H         -66.6231  -56.0991  -18.3090 H         1 MOL     0.0618
     20 H         -64.6722  -57.4435  -17.8756 H         1 MOL     0.0625
@<TRIPOS>BOND
     1    1    2 1 
     2    1   14 1 
     3    1   15 1 
     4    1   16 1 
     5    2   10 2 
     6    2   11 1 
     7    3    4 ar
     8    3    8 ar
     9    3   11 1 
    10    4    5 ar
    11    4   17 1 
    12    5    6 ar
    13    5   18 1 
    14    6    7 ar
    15    6   19 1 
    16    7    8 ar
    17    7   20 1 
    18    8    9 1 
    19    9   12 ar
    20    9   13 ar
@<TRIPOS>SUBSTRUCTURE
1 MOL         1
@<TRIPOS>MOLECULE
query molecule
   20    20     1     0     0
SMALL
NO_CHARGE

@<TRIPOS>ATOM
      1 C         -17.3119  -80.5840  -19.8156 C.3       1 MOL     0.1362
      2 C         -17.9662  -81.8109  -20.3366 C.2       1 MOL     0.3092
      3 C         -16.7624  -81.8896  -22.4548 C.ar      1 MOL     0.1404
      4 C         -16.9894  -80.7037  -23.1204 C.ar      1 MOL     0.0468
      5 C         -16.1425  -80.1993  -24.0874 C.ar      1 MOL     0.0037
      6 C         -15.0145  -80.9181  -24.4008 C.ar      1 MOL     0.0009
      7 C         -14.7397  -82.1100  -23.7664 C.ar      1 MOL     0.0131
      8 C         -15.6195  -82.5875  -22.7939 C.ar      1 MOL     0.0397
      9 C         -15.2916  -83.8523  -22.1470 C.2       1 MOL     0.0752
     10 O         -18.9372  -82.3710  -19.7431 O.2       1 MOL    -0.2507
     11 O         -17.5731  -82.4262  -21.4915 O.3       1 MOL    -0.4254
     12 O         -15.1636  -84.9081  -22.8181 O.co2     1 MOL    -0.5445
     13 O         -15.1116  -83.9401  -20.7768 O.co2     1 MOL    -0.5445
     14 H         -17.7878  -80.2862  -18.9047 H         1 MOL     0.0342
     15 H         -17.4006  -79.7991  -20.5372 H         1 MOL     0.0342
     16 H         -16.2774  -80.7830  -19.6304 H         1 MOL     0.0342
     17 H         -17.8365  -80.1646  -22.8834 H         1 MOL     0.0654
     18 H         -16.3509  -79.3058  -24.5611 H         1 MOL     0.0619
     19 H         -14.3655  -80.5622  -25.1199 H         1 MOL     0.0618
     20 H         -13.8901  -82.6446  -24.0071 H         1 MOL     0.0625
@<TRIPOS>BOND
     1    1    2 1 
     2    1   14 1 
     3    1   15 1 
     4    1   16 1 
     5    2   10 2 
     6    2   11 1 
     7    3    4 ar
     8    3    8 ar
     9    3   11 1 
    10    4    5 ar
    11    4   17 1 
    12    5    6 ar
    13    5   18 1 
    14    6    7 ar
    15    6   19 1 
    16    7    8 ar
    17    7   20 1 
    18    8    9 1 
    19    9   12 ar
    20    9   13 ar
@<TRIPOS>SUBSTRUCTURE
1 MOL         1
@<TRIPOS>MOLECULE
query molecule
   20    20     1     0     0
SMALL
NO_CHARGE

@<TRIPOS>ATOM
      1 C         -16.5892  -77.0846    9.0326 C.3       1 MOL     0.1362
      2 C         -16.0244  -76.6447    7.7318 C.2       1 MOL     0.3092
      3 C         -17.7015  -77.6233    6.2580 C.ar      1 MOL     0.1404
      4 C         -17.5330  -78.9905    6.2020 C.ar      1 MOL     0.0468
      5 C         -18.5509  -79.8710    5.8930 C.ar      1 MOL     0.0037
      6 C         -19.7965  -79.3554    5.6285 C.ar      1 MOL     0.0009
      7 C         -20.0199  -77.9964    5.6701 C.ar      1 MOL     0.0131
      8 C         -18.9660  -77.1380    5.9867 C.ar      1 MOL     0.0397
      9 C         -19.2450  -75.7073    6.0198 C.2       1 MOL     0.0752
     10 O         -14.8521  -76.1733    7.6211 O.2       1 MOL    -0.2507
     11 O         -16.7229  -76.7153    6.5595 O.3       1 MOL    -0.4254
     12 O         -19.0564  -75.0354    7.0660 O.co2     1 MOL    -0.5445
     13 O         -19.7276  -75.0373    4.9082 O.co2     1 MOL    -0.5445
     14 H         -15.8630  -76.9362    9.8044 H         1 MOL     0.0342
     15 H         -16.8440  -78.1223    8.9778 H         1 MOL     0.0342
     16 H         -17.4663  -76.5130    9.2520 H         1 MOL     0.0342
     17 H         -16.5972  -79.3762    6.4017 H         1 MOL     0.0654
     18 H         -18.3806  -80.8889    5.8626 H         1 MOL     0.0619
     19 H         -20.5740  -79.9927    5.3953 H         1 MOL     0.0618
     20 H         -20.9587  -77.6163    5.4703 H         1 MOL     0.0625
@<TRIPOS>BOND
     1    1    2 1 
     2    1   14 1 
     3    1   15 1 
     4    1   16 1 
     5    2   10 2 
     6    2   11 1 
     7    3    4 ar
     8    3    8 ar
     9    3   11 1 
    10    4    5 ar
    11    4   17 1 
    12    5    6 ar
    13    5   18 1 
    14    6    7 ar
    15    6   19 1 
    16    7    8 ar
    17    7   20 1 
    18    8    9 1 
    19    9   12 ar
    20    9   13 ar
@<TRIPOS>SUBSTRUCTURE
1 MOL         1
@<TRIPOS>MOLECULE
query molecule
   20    20     1     0     0
SMALL
NO_CHARGE

@<TRIPOS>ATOM
      1 C         -41.0524  -73.7281   11.5431 C.3       1 MOL     0.1362
      2 C         -39.7126  -74.3577   11.4280 C.2       1 MOL     0.3092
      3 C         -40.5119  -76.6588   11.5194 C.ar      1 MOL     0.1404
      4 C         -41.4151  -76.9791   10.5282 C.ar      1 MOL     0.0468
      5 C         -42.3924  -77.9440   10.6716 C.ar      1 MOL     0.0037
      6 C         -42.4664  -78.6198   11.8654 C.ar      1 MOL     0.0009
      7 C         -41.5887  -78.3389   12.8897 C.ar      1 MOL     0.0131
      8 C         -40.6139  -77.3569   12.7070 C.ar      1 MOL     0.0397
      9 C         -39.7053  -77.0907   13.8157 C.2       1 MOL     0.0752
     10 O         -38.6457  -73.6788   11.3292 O.2       1 MOL    -0.2507
     11 O         -39.5289  -75.7116   11.4208 O.3       1 MOL    -0.4254
     12 O         -39.3797  -78.0022   14.6185 O.co2     1 MOL    -0.5445
     13 O         -39.1705  -75.8311   14.0279 O.co2     1 MOL    -0.5445
     14 H         -40.9479  -72.6633   11.5275 H         1 MOL     0.0342
     15 H         -41.5092  -74.0280   12.4629 H         1 MOL     0.0342
     16 H         -41.6642  -74.0395   10.7228 H         1 MOL     0.0342
     17 H         -41.3577  -76.4712    9.6319 H         1 MOL     0.0654
     18 H         -43.0487  -78.1525    9.9024 H         1 MOL     0.0619
     19 H         -43.1879  -79.3458   11.9974 H         1 MOL     0.0618
     20 H         -41.6504  -78.8509   13.7840 H         1 MOL     0.0625
@<TRIPOS>BOND
     1    1    2 1 
     2    1   14 1 
     3    1   15 1 
     4    1   16 1 
     5    2   10 2 
     6    2   11 1 
     7    3    4 ar
     8    3    8 ar
     9    3   11 1 
    10    4    5 ar
    11    4   17 1 
    12    5    6 ar
    13    5   18 1 
    14    6    7 ar
    15    6   19 1 
    16    7    8 ar
    17    7   20 1 
    18    8    9 1 
    19    9   12 ar
    20    9   13 ar
@<TRIPOS>SUBSTRUCTURE
1 MOL         1
@<TRIPOS>MOLECULE
query molecule
   20    20     1     0     0
SMALL
NO_CHARGE

@<TRIPOS>ATOM
      1 C          -6.8751  -55.3107   31.5154 C.3       1 MOL     0.1362
      2 C          -5.4558  -55.5208   31.8978 C.2       1 MOL     0.3092
      3 C          -4.5082  -54.0929   30.1642 C.ar      1 MOL     0.1404
      4 C          -4.6738  -54.5584   28.8770 C.ar      1 MOL     0.0468
      5 C          -4.7578  -53.7324   27.7737 C.ar      1 MOL     0.0037
      6 C          -4.6725  -52.3755   27.9712 C.ar      1 MOL     0.0009
      7 C          -4.5063  -51.8568   29.2368 C.ar      1 MOL     0.0131
      8 C          -4.4260  -52.7237   30.3277 C.ar      1 MOL     0.0397
      9 C          -4.2502  -52.1339   31.6493 C.2       1 MOL     0.0752
     10 O          -5.1086  -56.3179   32.8213 O.2       1 MOL    -0.2507
     11 O          -4.4202  -54.8737   31.2848 O.3       1 MOL    -0.4254
     12 O          -4.2167  -50.8860   31.8017 O.co2     1 MOL    -0.5445
     13 O          -4.1120  -52.9198   32.7810 O.co2     1 MOL    -0.5445
     14 H          -7.5034  -55.9217   32.1294 H         1 MOL     0.0342
     15 H          -7.0108  -55.5787   30.4886 H         1 MOL     0.0342
     16 H          -7.1326  -54.2816   31.6525 H         1 MOL     0.0342
     17 H          -4.7385  -55.5776   28.7304 H         1 MOL     0.0654
     18 H          -4.8824  -54.1238   26.8264 H         1 MOL     0.0619
     19 H          -4.7328  -51.7369   27.1626 H         1 MOL     0.0618
     20 H          -4.4431  -50.8361   29.3775 H         1 MOL     0.0625
@<TRIPOS>BOND
     1    1    2 1 
     2    1   14 1 
     3    1   15 1 
     4    1   16 1 
     5    2   10 2 
     6    2   11 1 
     7    3    4 ar
     8    3    8 ar
     9    3   11 1 
    10    4    5 ar
    11    4   17 1 
    12    5    6 ar
    13    5   18 1 
    14    6    7 ar
    15    6   19 1 
    16    7    8 ar
    17    7   20 1 
    18    8    9 1 
    19    9   12 ar
    20    9   13 ar
@<TRIPOS>SUBSTRUCTURE
1 MOL         1
@<TRIPOS>MOLECULE
query molecule
   20    20     1     0     0
SMALL
NO_CHARGE

@<TRIPOS>ATOM
      1 C         -64.7279  -24.1168  -14.9722 C.3       1 MOL     0.1362
      2 C         -64.6528  -25.5885  -14.7902 C.2       1 MOL     0.3092
      3 C         -66.1191  -25.6732  -12.8447 C.ar      1 MOL     0.1404
      4 C         -67.4617  -25.4105  -13.0159 C.ar      1 MOL     0.0468
      5 C         -68.2544  -24.8329  -12.0439 C.ar      1 MOL     0.0037
      6 C         -67.6728  -24.5040  -10.8436 C.ar      1 MOL     0.0009
      7 C         -66.3346  -24.7443  -10.6197 C.ar      1 MOL     0.0131
      8 C         -65.5658  -25.3302  -11.6264 C.ar      1 MOL     0.0397
      9 C         -64.1543  -25.5673  -11.3486 C.2       1 MOL     0.0752
     10 O         -63.9829  -26.3385  -15.5632 O.2       1 MOL    -0.2507
     11 O         -65.2971  -26.2433  -13.7787 O.3       1 MOL    -0.4254
     12 O         -63.5190  -24.8303  -10.5518 O.co2     1 MOL    -0.5445
     13 O         -63.4620  -26.6054  -11.9491 O.co2     1 MOL    -0.5445
     14 H         -64.1461  -23.8334  -15.8244 H         1 MOL     0.0342
     15 H         -64.3438  -23.6299  -14.1005 H         1 MOL     0.0342
     16 H         -65.7468  -23.8278  -15.1226 H         1 MOL     0.0342
     17 H         -67.8972  -25.6588  -13.9176 H         1 MOL     0.0654
     18 H         -69.2569  -24.6540  -12.2144 H         1 MOL     0.0619
     19 H         -68.2440  -24.0713  -10.1008 H         1 MOL     0.0618
     20 H         -65.9046  -24.4945   -9.7151 H         1 MOL     0.0625
@<TRIPOS>BOND
     1    1    2 1 
     2    1   14 1 
     3    1   15 1 
     4    1   16 1 
     5    2   10 2 
     6    2   11 1 
     7    3    4 ar
     8    3    8 ar
     9    3   11 1 
    10    4    5 ar
    11    4   17 1 
    12    5    6 ar
    13    5   18 1 
    14    6    7 ar
    15    6   19 1 
    16    7    8 ar
    17    7   20 1 
    18    8    9 1 
    19    9   12 ar
    20    9   13 ar
@<TRIPOS>SUBSTRUCTURE
1 MOL         1
@<TRIPOS>MOLECULE
query molecule
   20    20     1     0     0
SMALL
NO_CHARGE

@<TRIPOS>ATOM
      1 C         -25.0032  -77.6311   15.9935 C.3       1 MOL     0.1362
      2 C         -23.5831  -77.7109   15.5675 C.2       1 MOL     0.3092
      3 C         -21.8600  -79.0486   14.4793 C.ar      1 MOL     0.1404
      4 C         -20.5521  -78.9049   14.8910 C.ar      1 MOL     0.0468
      5 C         -19.4674  -79.0720   14.0529 C.ar      1 MOL     0.0037
      6 C         -19.7064  -79.3993   12.7402 C.ar      1 MOL     0.0009
      7 C         -20.9944  -79.5546   12.2760 C.ar      1 MOL     0.0131
      8 C         -22.0652  -79.3779   13.1536 C.ar      1 MOL     0.0397
      9 C         -23.4116  -79.5514   12.6219 C.2       1 MOL     0.0752
     10 O         -22.8477  -76.6844   15.4479 O.2       1 MOL    -0.2507
     11 O         -22.9633  -78.8928   15.2741 O.3       1 MOL    -0.4254
     12 O         -24.1509  -80.4856   13.0248 O.co2     1 MOL    -0.5445
     13 O         -23.9249  -78.7010   11.6571 O.co2     1 MOL    -0.5445
     14 H         -25.2657  -76.6085   16.1676 H         1 MOL     0.0342
     15 H         -25.1369  -78.1920   16.8947 H         1 MOL     0.0342
     16 H         -25.6289  -78.0353   15.2257 H         1 MOL     0.0342
     17 H         -20.3742  -78.6598   15.8773 H         1 MOL     0.0654
     18 H         -18.5034  -78.9550   14.4035 H         1 MOL     0.0619
     19 H         -18.9126  -79.5299   12.0938 H         1 MOL     0.0618
     20 H         -21.1662  -79.8008   11.2883 H         1 MOL     0.0625
@<TRIPOS>BOND
     1    1    2 1 
     2    1   14 1 
     3    1   15 1 
     4    1   16 1 
     5    2   10 2 
     6    2   11 1 
     7    3    4 ar
     8    3    8 ar
     9    3   11 1 
    10    4    5 ar
    11    4   17 1 
    12    5    6 ar
    13    5   18 1 
    14    6    7 ar
    15    6   19 1 
    16    7    8 ar
    17    7   20 1 
    18    8    9 1 
    19    9   12 ar
    20    9   13 ar
@<TRIPOS>SUBSTRUCTURE
1 MOL         1
@<TRIPOS>MOLECULE
query molecule
   20    20     1     0     0
SMALL
NO_CHARGE

@<TRIPOS>ATOM
      1 C          -5.0312  -26.1720   30.1457 C.3       1 MOL     0.1362
      2 C          -3.7836  -26.7346   30.7217 C.2       1 MOL     0.3092
      3 C          -2.7394  -24.5841   31.1981 C.ar      1 MOL     0.1404
      4 C          -3.2716  -23.7797   32.1833 C.ar      1 MOL     0.0468
      5 C          -3.2215  -22.4002   32.1495 C.ar      1 MOL     0.0037
      6 C          -2.6077  -21.7995   31.0772 C.ar      1 MOL     0.0009
      7 C          -2.0596  -22.5561   30.0645 C.ar      1 MOL     0.0131
      8 C          -2.1297  -23.9482   30.1341 C.ar      1 MOL     0.0397
      9 C          -1.5373  -24.7112   29.0420 C.2       1 MOL     0.0752
     10 O          -3.5778  -27.9826   30.8164 O.2       1 MOL    -0.2507
     11 O          -2.7663  -25.9524   31.1908 O.3       1 MOL    -0.4254
     12 O          -0.4291  -25.2886   29.1827 O.co2     1 MOL    -0.5445
     13 O          -2.1670  -24.8272   27.8142 O.co2     1 MOL    -0.5445
     14 H          -5.6772  -26.9710   29.8469 H         1 MOL     0.0342
     15 H          -4.7909  -25.5706   29.2942 H         1 MOL     0.0342
     16 H          -5.5231  -25.5700   30.8804 H         1 MOL     0.0342
     17 H          -3.7315  -24.2323   32.9884 H         1 MOL     0.0654
     18 H          -3.6330  -21.8358   32.9098 H         1 MOL     0.0619
     19 H          -2.5570  -20.7698   31.0287 H         1 MOL     0.0618
     20 H          -1.5999  -22.0976   29.2618 H         1 MOL     0.0625
@<TRIPOS>BOND
     1    1    2 1 
     2    1   14 1 
     3    1   15 1 
     4    1   16 1 
     5    2   10 2 
     6    2   11 1 
     7    3    4 ar
     8    3    8 ar
     9    3   11 1 
    10    4    5 ar
    11    4   17 1 
    12    5    6 ar
    13    5   18 1 
    14    6    7 ar
    15    6   19 1 
    16    7    8 ar
    17    7   20 1 
    18    8    9 1 
    19    9   12 ar
    20    9   13 ar
@<TRIPOS>SUBSTRUCTURE
1 MOL         1
@<TRIPOS>MOLECULE
query molecule
   20    20     1     0     0
SMALL
NO_CHARGE

@<TRIPOS>ATOM
      1 C         -70.8231  -38.9531   20.7050 C.3       1 MOL     0.1362
      2 C         -71.6595  -39.9016   19.9267 C.2       1 MOL     0.3092
      3 C         -71.9577  -42.1008   18.9183 C.ar      1 MOL     0.1404
      4 C         -72.2119  -42.1803   17.5655 C.ar      1 MOL     0.0468
      5 C         -72.9719  -43.1800   16.9912 C.ar      1 MOL     0.0037
      6 C         -73.5010  -44.1457   17.8127 C.ar      1 MOL     0.0009
      7 C         -73.2784  -44.1135   19.1721 C.ar      1 MOL     0.0131
      8 C         -72.5045  -43.0872   19.7158 C.ar      1 MOL     0.0397
      9 C         -72.2934  -43.0903   21.1584 C.2       1 MOL     0.0752
     10 O         -72.8490  -39.6341   19.5769 O.2       1 MOL    -0.2507
     11 O         -71.2115  -41.1297   19.5293 O.3       1 MOL    -0.4254
     12 O         -71.1345  -43.1537   21.6425 O.co2     1 MOL    -0.5445
     13 O         -73.3542  -43.0261   22.0461 O.co2     1 MOL    -0.5445
     14 H         -71.3825  -38.0618   20.8990 H         1 MOL     0.0342
     15 H         -69.9458  -38.7084   20.1437 H         1 MOL     0.0342
     16 H         -70.5391  -39.4060   21.6315 H         1 MOL     0.0342
     17 H         -71.8132  -41.4548   16.9498 H         1 MOL     0.0654
     18 H         -73.1370  -43.2016   15.9722 H         1 MOL     0.0619
     19 H         -74.0724  -44.9037   17.4077 H         1 MOL     0.0618
     20 H         -73.6792  -44.8427   19.7831 H         1 MOL     0.0625
@<TRIPOS>BOND
     1    1    2 1 
     2    1   14 1 
     3    1   15 1 
     4    1   16 1 
     5    2   10 2 
     6    2   11 1 
     7    3    4 ar
     8    3    8 ar
     9    3   11 1 
    10    4    5 ar
    11    4   17 1 
    12    5    6 ar
    13    5   18 1 
    14    6    7 ar
    15    6   19 1 
    16    7    8 ar
    17    7   20 1 
    18    8    9 1 
    19    9   12 ar
    20    9   13 ar
@<TRIPOS>SUBSTRUCTURE
1 MOL         1
@<TRIPOS>MOLECULE
query molecule
   20    20     1     0     0
SMALL
NO_CHARGE

@<TRIPOS>ATOM
      1 C         -73.6605  -68.0670   22.2656 C.3       1 MOL     0.1362
      2 C         -72.6391  -67.2266   21.5909 C.2       1 MOL     0.3092
      3 C         -70.2968  -66.7110   21.1549 C.ar      1 MOL     0.1404
      4 C         -69.8598  -65.4303   21.4188 C.ar      1 MOL     0.0468
      5 C         -68.8427  -64.8133   20.7177 C.ar      1 MOL     0.0037
      6 C         -68.2350  -65.5145   19.7046 C.ar      1 MOL     0.0009
      7 C         -68.6331  -66.7976   19.3986 C.ar      1 MOL     0.0131
      8 C         -69.6647  -67.3880   20.1300 C.ar      1 MOL     0.0397
      9 C         -70.0551  -68.7468   19.7739 C.2       1 MOL     0.0752
     10 O         -72.9429  -66.3250   20.7521 O.2       1 MOL    -0.2507
     11 O         -71.2992  -67.3605   21.8230 O.3       1 MOL    -0.4254
     12 O         -71.0447  -68.9613   19.0281 O.co2     1 MOL    -0.5445
     13 O         -69.3571  -69.8475   20.2418 O.co2     1 MOL    -0.5445
     14 H         -74.6352  -67.7821   21.9284 H         1 MOL     0.0342
     15 H         -73.5944  -67.9270   23.3242 H         1 MOL     0.0342
     16 H         -73.4873  -69.0961   22.0304 H         1 MOL     0.0342
     17 H         -70.3166  -64.9052   22.1805 H         1 MOL     0.0654
     18 H         -68.5465  -63.8517   20.9493 H         1 MOL     0.0619
     19 H         -67.4721  -65.0755   19.1659 H         1 MOL     0.0618
     20 H         -68.1717  -67.3184   18.6360 H         1 MOL     0.0625
@<TRIPOS>BOND
     1    1    2 1 
     2    1   14 1 
     3    1   15 1 
     4    1   16 1 
     5    2   10 2 
     6    2   11 1 
     7    3    4 ar
     8    3    8 ar
     9    3   11 1 
    10    4    5 ar
    11    4   17 1 
    12    5    6 ar
    13    5   18 1 
    14    6    7 ar
    15    6   19 1 
    16    7    8 ar
    17    7   20 1 
    18    8    9 1 
    19    9   12 ar
    20    9   13 ar
@<TRIPOS>SUBSTRUCTURE
1 MOL         1
@<TRIPOS>MOLECULE
query molecule
   20    20     1     0     0
SMALL
NO_CHARGE

@<TRIPOS>ATOM
      1 C          -4.1781  -59.7270   10.9163 C.3       1 MOL     0.1362
      2 C          -4.7370  -60.7111    9.9551 C.2       1 MOL     0.3092
      3 C          -3.2599  -62.6028   10.3816 C.ar      1 MOL     0.1404
      4 C          -2.0543  -62.3959    9.7455 C.ar      1 MOL     0.0468
      5 C          -0.8699  -62.9787   10.1506 C.ar      1 MOL     0.0037
      6 C          -0.8962  -63.8075   11.2459 C.ar      1 MOL     0.0009
      7 C          -2.0742  -64.0493   11.9184 C.ar      1 MOL     0.0131
      8 C          -3.2513  -63.4415   11.4792 C.ar      1 MOL     0.0397
      9 C          -4.4755  -63.7239   12.2189 C.2       1 MOL     0.0752
     10 O          -5.5145  -60.3766    9.0104 O.2       1 MOL    -0.2507
     11 O          -4.4556  -62.0468   10.0153 O.3       1 MOL    -0.4254
     12 O          -5.1235  -62.8002   12.7743 O.co2     1 MOL    -0.5445
     13 O          -4.9683  -65.0123   12.3396 O.co2     1 MOL    -0.5445
     14 H          -4.5355  -58.7484   10.6721 H         1 MOL     0.0342
     15 H          -3.1099  -59.7408   10.8598 H         1 MOL     0.0342
     16 H          -4.4862  -59.9831   11.9081 H         1 MOL     0.0342
     17 H          -2.0360  -61.7725    8.9235 H         1 MOL     0.0654
     18 H           0.0115  -62.7957    9.6448 H         1 MOL     0.0619
     19 H          -0.0240  -64.2550   11.5688 H         1 MOL     0.0618
     20 H          -2.0861  -64.6732   12.7408 H         1 MOL     0.0625
@<TRIPOS>BOND
     1    1    2 1 
     2    1   14 1 
     3    1   15 1 
     4    1   16 1 
     5    2   10 2 
     6    2   11 1 
     7    3    4 ar
     8    3    8 ar
     9    3   11 1 
    10    4    5 ar
    11    4   17 1 
    12    5    6 ar
    13    5   18 1 
    14    6    7 ar
    15    6   19 1 
    16    7    8 ar
    17    7   20 1 
    18    8    9 1 
    19    9   12 ar
    20    9   13 ar
@<TRIPOS>SUBSTRUCTURE
1 MOL         1
@<TRIPOS>MOLECULE
query molecule
   20    20     1     0     0
SMALL
NO_CHARGE

@<TRIPOS>ATOM
      1 C         -10.2453  -78.3487    6.9243 C.3       1 MOL     0.1362
      2 C          -9.6723  -79.3498    5.9893 C.2       1 MOL     0.3092
      3 C          -9.7286  -80.0021    3.6412 C.ar      1 MOL     0.1404
      4 C          -9.2831  -79.0417    2.7579 C.ar      1 MOL     0.0468
      5 C          -8.6967  -79.3378    1.5434 C.ar      1 MOL     0.0037
      6 C          -8.5498  -80.6597    1.1992 C.ar      1 MOL     0.0009
      7 C          -8.9781  -81.6597    2.0447 C.ar      1 MOL     0.0131
      8 C          -9.5659  -81.3210    3.2644 C.ar      1 MOL     0.0397
      9 C         -10.0051  -82.4094    4.1294 C.2       1 MOL     0.0752
     10 O          -8.5455  -79.8988    6.1838 O.2       1 MOL    -0.2507
     11 O         -10.3144  -79.7544    4.8531 O.3       1 MOL    -0.4254
     12 O          -9.5415  -83.5705    3.9943 O.co2     1 MOL    -0.5445
     13 O         -10.9457  -82.2086    5.1257 O.co2     1 MOL    -0.5445
     14 H          -9.5678  -78.1926    7.7377 H         1 MOL     0.0342
     15 H         -11.1794  -78.7080    7.3024 H         1 MOL     0.0342
     16 H         -10.4013  -77.4258    6.4065 H         1 MOL     0.0342
     17 H          -9.3934  -78.0494    3.0182 H         1 MOL     0.0654
     18 H          -8.3766  -78.5864    0.9118 H         1 MOL     0.0619
     19 H          -8.1142  -80.9071    0.2968 H         1 MOL     0.0618
     20 H          -8.8642  -82.6508    1.7793 H         1 MOL     0.0625
@<TRIPOS>BOND
     1    1    2 1 
     2    1   14 1 
     3    1   15 1 
     4    1   16 1 
     5    2   10 2 
     6    2   11 1 
     7    3    4 ar
     8    3    8 ar
     9    3   11 1 
    10    4    5 ar
    11    4   17 1 
    12    5    6 ar
    13    5   18 1 
    14    6    7 ar
    15    6   19 1 
    16    7    8 ar
    17    7   20 1 
    18    8    9 1 
    19    9   12 ar
    20    9   13 ar
@<TRIPOS>SUBSTRUCTURE
1 MOL         1
@<TRIPOS>MOLECULE
query molecule
   20    20     1     0     0
SMALL
NO_CHARGE

@<TRIPOS>ATOM
      1 C         -12.6211  -78.5138  -20.7377 C.3       1 MOL     0.1362
      2 C         -11.3330  -79.2438  -20.6252 C.2       1 MOL     0.3092
      3 C          -8.9930  -79.4978  -21.2592 C.ar      1 MOL     0.1404
      4 C          -8.1328  -79.4764  -20.1820 C.ar      1 MOL     0.0468
      5 C          -6.9105  -80.1188  -20.1708 C.ar      1 MOL     0.0037
      6 C          -6.5341  -80.8161  -21.2931 C.ar      1 MOL     0.0009
      7 C          -7.3556  -80.8697  -22.3979 C.ar      1 MOL     0.0131
      8 C          -8.5840  -80.2077  -22.3713 C.ar      1 MOL     0.0397
      9 C          -9.4228  -80.2896  -23.5610 C.2       1 MOL     0.0752
     10 O         -11.1875  -80.2605  -19.8810 O.2       1 MOL    -0.2507
     11 O         -10.2114  -78.8767  -21.3137 O.3       1 MOL    -0.4254
     12 O         -10.6480  -80.0112  -23.5092 O.co2     1 MOL    -0.5445
     13 O          -8.9066  -80.6768  -24.7863 O.co2     1 MOL    -0.5445
     14 H         -13.3514  -78.9817  -20.1110 H         1 MOL     0.0342
     15 H         -12.9560  -78.5364  -21.7535 H         1 MOL     0.0342
     16 H         -12.4835  -77.4986  -20.4299 H         1 MOL     0.0342
     17 H          -8.4173  -78.9529  -19.3396 H         1 MOL     0.0654
     18 H          -6.2970  -80.0770  -19.3415 H         1 MOL     0.0619
     19 H          -5.6253  -81.3051  -21.3095 H         1 MOL     0.0618
     20 H          -7.0660  -81.3958  -23.2376 H         1 MOL     0.0625
@<TRIPOS>BOND
     1    1    2 1 
     2    1   14 1 
     3    1   15 1 
     4    1   16 1 
     5    2   10 2 
     6    2   11 1 
     7    3    4 ar
     8    3    8 ar
     9    3   11 1 
    10    4    5 ar
    11    4   17 1 
    12    5    6 ar
    13    5   18 1 
    14    6    7 ar
    15    6   19 1 
    16    7    8 ar
    17    7   20 1 
    18    8    9 1 
    19    9   12 ar
    20    9   13 ar
@<TRIPOS>SUBSTRUCTURE
1 MOL         1
@<TRIPOS>MOLECULE
query molecule
   20    20     1     0     0
SMALL
NO_CHARGE

@<TRIPOS>ATOM
      1 C         -10.7769  -70.4122   15.6415 C.3       1 MOL     0.1362
      2 C         -11.8953  -70.6308   16.5935 C.2       1 MOL     0.3092
      3 C         -10.6856  -69.9887   18.6102 C.ar      1 MOL     0.1404
      4 C         -10.6434  -68.6895   19.0699 C.ar      1 MOL     0.0468
      5 C          -9.5584  -68.1518   19.7335 C.ar      1 MOL     0.0037
      6 C          -8.4648  -68.9555   19.9465 C.ar      1 MOL     0.0009
      7 C          -8.4539  -70.2614   19.5074 C.ar      1 MOL     0.0131
      8 C          -9.5698  -70.7696   18.8406 C.ar      1 MOL     0.0397
      9 C          -9.5172  -72.1561   18.3927 C.2       1 MOL     0.0752
     10 O         -13.0748  -70.8974   16.2111 O.2       1 MOL    -0.2507
     11 O         -11.7379  -70.5622   17.9491 O.3       1 MOL    -0.4254
     12 O          -8.4801  -72.6241   17.8572 O.co2     1 MOL    -0.5445
     13 O         -10.6012  -73.0057   18.5368 O.co2     1 MOL    -0.5445
     14 H         -11.1369  -70.5167   14.6393 H         1 MOL     0.0342
     15 H         -10.0091  -71.1352   15.8217 H         1 MOL     0.0342
     16 H         -10.3797  -69.4284   15.7782 H         1 MOL     0.0342
     17 H         -11.4658  -68.0874   18.9099 H         1 MOL     0.0654
     18 H          -9.5693  -67.1728   20.0615 H         1 MOL     0.0619
     19 H          -7.6413  -68.5771   20.4404 H         1 MOL     0.0618
     20 H          -7.6285  -70.8594   19.6712 H         1 MOL     0.0625
@<TRIPOS>BOND
     1    1    2 1 
     2    1   14 1 
     3    1   15 1 
     4    1   16 1 
     5    2   10 2 
     6    2   11 1 
     7    3    4 ar
     8    3    8 ar
     9    3   11 1 
    10    4    5 ar
    11    4   17 1 
    12    5    6 ar
    13    5   18 1 
    14    6    7 ar
    15    6   19 1 
    16    7    8 ar
    17    7   20 1 
    18    8    9 1 
    19    9   12 ar
    20    9   13 ar
@<TRIPOS>SUBSTRUCTURE
1 MOL         1
@<TRIPOS>MOLECULE
query molecule
   20    20     1     0     0
SMALL
NO_CHARGE

@<TRIPOS>ATOM
      1 C         -61.1051  -27.4469  -22.9948 C.3       1 MOL     0.1362
      2 C         -62.5482  -27.5229  -22.6534 C.2       1 MOL     0.3092
      3 C         -63.1402  -29.0902  -24.4241 C.ar      1 MOL     0.1404
      4 C         -62.6140  -30.3614  -24.3336 C.ar      1 MOL     0.0468
      5 C         -62.3283  -31.1471  -25.4326 C.ar      1 MOL     0.0037
      6 C         -62.5832  -30.6334  -26.6810 C.ar      1 MOL     0.0009
      7 C         -63.1083  -29.3682  -26.8286 C.ar      1 MOL     0.0131
      8 C         -63.3844  -28.6041  -25.6938 C.ar      1 MOL     0.0397
      9 C         -63.9393  -27.2708  -25.8942 C.2       1 MOL     0.0752
     10 O         -63.0528  -26.8895  -21.6772 O.2       1 MOL    -0.2507
     11 O         -63.4383  -28.2779  -23.3637 O.3       1 MOL    -0.4254
     12 O         -63.3456  -26.2509  -25.4598 O.co2     1 MOL    -0.5445
     13 O         -65.1353  -27.0770  -26.5647 O.co2     1 MOL    -0.5445
     14 H         -60.6094  -26.7979  -22.3035 H         1 MOL     0.0342
     15 H         -60.9935  -27.0629  -23.9871 H         1 MOL     0.0342
     16 H         -60.6740  -28.4244  -22.9399 H         1 MOL     0.0342
     17 H         -62.4239  -30.7460  -23.3953 H         1 MOL     0.0654
     18 H         -61.9348  -32.0949  -25.3190 H         1 MOL     0.0619
     19 H         -62.3785  -31.2011  -27.5183 H         1 MOL     0.0618
     20 H         -63.2973  -28.9890  -27.7700 H         1 MOL     0.0625
@<TRIPOS>BOND
     1    1    2 1 
     2    1   14 1 
     3    1   15 1 
     4    1   16 1 
     5    2   10 2 
     6    2   11 1 
     7    3    4 ar
     8    3    8 ar
     9    3   11 1 
    10    4    5 ar
    11    4   17 1 
    12    5    6 ar
    13    5   18 1 
    14    6    7 ar
    15    6   19 1 
    16    7    8 ar
    17    7   20 1 
    18    8    9 1 
    19    9   12 ar
    20    9   13 ar
@<TRIPOS>SUBSTRUCTURE
1 MOL         1
@<TRIPOS>MOLECULE
query molecule
   20    20     1     0     0
SMALL
NO_CHARGE

@<TRIPOS>ATOM
      1 C         -61.8147  -41.5016   15.5154 C.3       1 MOL     0.1362
      2 C         -62.7016  -42.6924   15.5293 C.2       1 MOL     0.3092
      3 C         -62.9689  -45.1100   15.6908 C.ar      1 MOL     0.1404
      4 C         -63.9965  -45.4834   16.5309 C.ar      1 MOL     0.0468
      5 C         -64.7020  -46.6624   16.3933 C.ar      1 MOL     0.0037
      6 C         -64.3611  -47.5060   15.3640 C.ar      1 MOL     0.0009
      7 C         -63.3418  -47.1818   14.4955 C.ar      1 MOL     0.0131
      8 C         -62.6517  -45.9808   14.6665 C.ar      1 MOL     0.0397
      9 C         -61.5803  -45.6760   13.7258 C.2       1 MOL     0.0752
     10 O         -63.9466  -42.6188   15.2987 O.2       1 MOL    -0.2507
     11 O         -62.2441  -43.9533   15.7898 O.3       1 MOL    -0.4254
     12 O         -61.2984  -44.4869   13.4293 O.co2     1 MOL    -0.5445
     13 O         -60.8373  -46.6780   13.1244 O.co2     1 MOL    -0.5445
     14 H         -62.3925  -40.6301   15.2884 H         1 MOL     0.0342
     15 H         -61.0567  -41.6305   14.7715 H         1 MOL     0.0342
     16 H         -61.3568  -41.3871   16.4753 H         1 MOL     0.0342
     17 H         -64.2518  -44.8484   17.3030 H         1 MOL     0.0654
     18 H         -65.4655  -46.9027   17.0456 H         1 MOL     0.0619
     19 H         -64.8737  -48.3931   15.2397 H         1 MOL     0.0618
     20 H         -63.0913  -47.8207   13.7243 H         1 MOL     0.0625
@<TRIPOS>BOND
     1    1    2 1 
     2    1   14 1 
     3    1   15 1 
     4    1   16 1 
     5    2   10 2 
     6    2   11 1 
     7    3    4 ar
     8    3    8 ar
     9    3   11 1 
    10    4    5 ar
    11    4   17 1 
    12    5    6 ar
    13    5   18 1 
    14    6    7 ar
    15    6   19 1 
    16    7    8 ar
    17    7   20 1 
    18    8    9 1 
    19    9   12 ar
    20    9   13 ar
@<TRIPOS>SUBSTRUCTURE
1 MOL         1
@<TRIPOS>MOLECULE
query molecule
   20    20     1     0     0
SMALL
NO_CHARGE

@<TRIPOS>ATOM
      1 C         -33.9477  -18.6325   -7.6651 C.3       1 MOL     0.1362
      2 C         -33.4637  -19.9330   -7.1366 C.2       1 MOL     0.3092
      3 C         -34.9689  -21.3155   -8.4652 C.ar      1 MOL     0.1404
      4 C         -36.3137  -21.1020   -8.2484 C.ar      1 MOL     0.0468
      5 C         -37.2812  -21.2991   -9.2137 C.ar      1 MOL     0.0037
      6 C         -36.8805  -21.7300  -10.4551 C.ar      1 MOL     0.0009
      7 C         -35.5491  -21.9594  -10.7255 C.ar      1 MOL     0.0131
      8 C         -34.6001  -21.7485   -9.7240 C.ar      1 MOL     0.0397
      9 C         -33.2024  -22.0029  -10.0517 C.2       1 MOL     0.0752
     10 O         -32.5388  -20.0170   -6.2727 O.2       1 MOL    -0.2507
     11 O         -33.9775  -21.1333   -7.5395 O.3       1 MOL    -0.4254
     12 O         -32.8651  -23.0301  -10.6941 O.co2     1 MOL    -0.5445
     13 O         -32.1979  -21.1300   -9.6690 O.co2     1 MOL    -0.5445
     14 H         -33.4008  -17.8358   -7.2056 H         1 MOL     0.0342
     15 H         -34.9889  -18.5236   -7.4447 H         1 MOL     0.0342
     16 H         -33.8022  -18.6019   -8.7244 H         1 MOL     0.0342
     17 H         -36.6129  -20.7777   -7.3158 H         1 MOL     0.0654
     18 H         -38.2782  -21.1264   -9.0083 H         1 MOL     0.0619
     19 H         -37.5845  -21.8845  -11.1938 H         1 MOL     0.0618
     20 H         -35.2555  -22.2829  -11.6608 H         1 MOL     0.0625
@<TRIPOS>BOND
     1    1    2 1 
     2    1   14 1 
     3    1   15 1 
     4    1   16 1 
     5    2   10 2 
     6    2   11 1 
     7    3    4 ar
     8    3    8 ar
     9    3   11 1 
    10    4    5 ar
    11    4   17 1 
    12    5    6 ar
    13    5   18 1 
    14    6    7 ar
    15    6   19 1 
    16    7    8 ar
    17    7   20 1 
    18    8    9 1 
    19    9   12 ar
    20    9   13 ar
@<TRIPOS>SUBSTRUCTURE
1 MOL         1
@<TRIPOS>MOLECULE
query molecule
   20    20     1     0     0
SMALL
NO_CHARGE

@<TRIPOS>ATOM
      1 C          -8.8588  -56.5871  -13.6437 C.3       1 MOL     0.1362
      2 C          -9.6539  -57.8347  -13.7702 C.2       1 MOL     0.3092
      3 C         -10.6347  -59.5675  -15.1765 C.ar      1 MOL     0.1404
      4 C         -10.0832  -60.8044  -14.9176 C.ar      1 MOL     0.0468
      5 C         -10.7484  -61.9949  -15.1341 C.ar      1 MOL     0.0037
      6 C         -12.0273  -61.9419  -15.6331 C.ar      1 MOL     0.0009
      7 C         -12.6260  -60.7322  -15.9099 C.ar      1 MOL     0.0131
      8 C         -11.9218  -59.5499  -15.6775 C.ar      1 MOL     0.0397
      9 C         -12.5919  -58.2918  -15.9838 C.2       1 MOL     0.0752
     10 O         -10.0548  -58.4936  -12.7633 O.2       1 MOL    -0.2507
     11 O         -10.0131  -58.3646  -14.9773 O.3       1 MOL    -0.4254
     12 O         -11.9459  -57.2151  -16.0543 O.co2     1 MOL    -0.5445
     13 O         -13.9575  -58.2334  -16.2056 O.co2     1 MOL    -0.5445
     14 H          -8.7017  -56.3686  -12.6080 H         1 MOL     0.0342
     15 H          -9.3888  -55.7788  -14.1022 H         1 MOL     0.0342
     16 H          -7.9144  -56.7156  -14.1294 H         1 MOL     0.0342
     17 H          -9.1229  -60.8425  -14.5422 H         1 MOL     0.0654
     18 H         -10.2973  -62.9000  -14.9258 H         1 MOL     0.0619
     19 H         -12.5458  -62.8179  -15.8033 H         1 MOL     0.0618
     20 H         -13.5875  -60.7003  -16.2845 H         1 MOL     0.0625
@<TRIPOS>BOND
     1    1    2 1 
     2    1   14 1 
     3    1   15 1 
     4    1   16 1 
     5    2   10 2 
     6    2   11 1 
     7    3    4 ar
     8    3    8 ar
     9    3   11 1 
    10    4    5 ar
    11    4   17 1 
    12    5    6 ar
    13    5   18 1 
    14    6    7 ar
    15    6   19 1 
    16    7    8 ar
    17    7   20 1 
    18    8    9 1 
    19    9   12 ar
    20    9   13 ar
@<TRIPOS>SUBSTRUCTURE
1 MOL         1
@<TRIPOS>MOLECULE
query molecule
   20    20     1     0     0
SMALL
NO_CHARGE

@<TRIPOS>ATOM
      1 C         -33.9383  -76.4486    2.8084 C.3       1 MOL     0.1362
      2 C         -33.6826  -77.9041    2.6637 C.2       1 MOL     0.3092
      3 C         -35.0305  -78.5081    0.7245 C.ar      1 MOL     0.1404
      4 C         -35.3129  -77.2680    0.1920 C.ar      1 MOL     0.0468
      5 C         -35.8325  -77.0835   -1.0740 C.ar      1 MOL     0.0037
      6 C         -36.0796  -78.1954   -1.8421 C.ar      1 MOL     0.0009
      7 C         -35.8161  -79.4585   -1.3587 C.ar      1 MOL     0.0131
      8 C         -35.2907  -79.6048   -0.0740 C.ar      1 MOL     0.0397
      9 C         -35.0265  -80.9584    0.3990 C.2       1 MOL     0.0752
     10 O         -32.6711  -78.4735    3.1750 O.2       1 MOL    -0.2507
     11 O         -34.5159  -78.7371    1.9718 O.3       1 MOL    -0.4254
     12 O         -34.2672  -81.1643    1.3801 O.co2     1 MOL    -0.5445
     13 O         -35.5962  -82.0633   -0.2112 O.co2     1 MOL    -0.5445
     14 H         -33.1558  -76.0057    3.3884 H         1 MOL     0.0342
     15 H         -34.8760  -76.2988    3.3012 H         1 MOL     0.0342
     16 H         -33.9674  -75.9940    1.8405 H         1 MOL     0.0342
     17 H         -35.1261  -76.4340    0.7699 H         1 MOL     0.0654
     18 H         -36.0289  -76.1358   -1.4336 H         1 MOL     0.0619
     19 H         -36.4676  -78.0840   -2.7919 H         1 MOL     0.0618
     20 H         -36.0043  -80.2893   -1.9418 H         1 MOL     0.0625
@<TRIPOS>BOND
     1    1    2 1 
     2    1   14 1 
     3    1   15 1 
     4    1   16 1 
     5    2   10 2 
     6    2   11 1 
     7    3    4 ar
     8    3    8 ar
     9    3   11 1 
    10    4    5 ar
    11    4   17 1 
    12    5    6 ar
    13    5   18 1 
    14    6    7 ar
    15    6   19 1 
    16    7    8 ar
    17    7   20 1 
    18    8    9 1 
    19    9   12 ar
    20    9   13 ar
@<TRIPOS>SUBSTRUCTURE
1 MOL         1
@<TRIPOS>MOLECULE
query molecule
   20    20     1     0     0
SMALL
NO_CHARGE

@<TRIPOS>ATOM
      1 C         -69.2564  -55.4573   25.0382 C.3       1 MOL     0.1362
      2 C         -68.6330  -54.3373   24.2887 C.2       1 MOL     0.3092
      3 C         -66.9818  -52.5481   24.1684 C.ar      1 MOL     0.1404
      4 C         -67.6317  -51.3658   23.8843 C.ar      1 MOL     0.0468
      5 C         -67.0160  -50.2824   23.2896 C.ar      1 MOL     0.0037
      6 C         -65.6854  -50.3900   22.9653 C.ar      1 MOL     0.0009
      7 C         -64.9879  -51.5492   23.2267 C.ar      1 MOL     0.0131
      8 C         -65.6447  -52.6230   23.8294 C.ar      1 MOL     0.0397
      9 C         -64.8703  -53.8308   24.0886 C.2       1 MOL     0.0752
     10 O         -69.0644  -53.9465   23.1618 O.2       1 MOL    -0.2507
     11 O         -67.5515  -53.6451   24.7558 O.3       1 MOL    -0.4254
     12 O         -64.0692  -54.2822   23.2307 O.co2     1 MOL    -0.5445
     13 O         -64.9875  -54.5248   25.2811 O.co2     1 MOL    -0.5445
     14 H         -70.0836  -55.8427   24.4794 H         1 MOL     0.0342
     15 H         -69.6013  -55.1029   25.9869 H         1 MOL     0.0342
     16 H         -68.5339  -56.2318   25.1879 H         1 MOL     0.0342
     17 H         -68.6309  -51.2863   24.1292 H         1 MOL     0.0654
     18 H         -67.5411  -49.4149   23.0949 H         1 MOL     0.0619
     19 H         -65.2022  -49.5940   22.5202 H         1 MOL     0.0618
     20 H         -63.9882  -51.6226   22.9803 H         1 MOL     0.0625
@<TRIPOS>BOND
     1    1    2 1 
     2    1   14 1 
     3    1   15 1 
     4    1   16 1 
     5    2   10 2 
     6    2   11 1 
     7    3    4 ar
     8    3    8 ar
     9    3   11 1 
    10    4    5 ar
    11    4   17 1 
    12    5    6 ar
    13    5   18 1 
    14    6    7 ar
    15    6   19 1 
    16    7    8 ar
    17    7   20 1 
    18    8    9 1 
    19    9   12 ar
    20    9   13 ar
@<TRIPOS>SUBSTRUCTURE
1 MOL         1
@<TRIPOS>MOLECULE
query molecule
   20    20     1     0     0
SMALL
NO_CHARGE

@<TRIPOS>ATOM
      1 C          -3.4194  -62.5491  -19.0801 C.3       1 MOL     0.1362
      2 C          -3.9441  -62.5167  -17.6914 C.2       1 MOL     0.3092
      3 C          -3.9664  -61.5099  -15.4715 C.ar      1 MOL     0.1404
      4 C          -5.2416  -61.2067  -15.0438 C.ar      1 MOL     0.0468
      5 C          -5.6053  -61.1519  -13.7129 C.ar      1 MOL     0.0037
      6 C          -4.6446  -61.4142  -12.7666 C.ar      1 MOL     0.0009
      7 C          -3.3543  -61.7220  -13.1390 C.ar      1 MOL     0.0131
      8 C          -3.0247  -61.7683  -14.4944 C.ar      1 MOL     0.0397
      9 C          -1.6485  -62.0978  -14.8454 C.2       1 MOL     0.0752
     10 O          -4.7836  -63.3635  -17.2590 O.2       1 MOL    -0.2507
     11 O          -3.5624  -61.5754  -16.7775 O.3       1 MOL    -0.4254
     12 O          -0.7400  -62.0921  -13.9759 O.co2     1 MOL    -0.5445
     13 O          -1.2901  -62.4257  -16.1422 O.co2     1 MOL    -0.5445
     14 H          -3.8583  -63.3703  -19.6073 H         1 MOL     0.0342
     15 H          -2.3564  -62.6678  -19.0567 H         1 MOL     0.0342
     16 H          -3.6654  -61.6335  -19.5754 H         1 MOL     0.0342
     17 H          -5.9622  -61.0107  -15.7558 H         1 MOL     0.0654
     18 H          -6.5731  -60.9210  -13.4367 H         1 MOL     0.0619
     19 H          -4.8915  -61.3798  -11.7651 H         1 MOL     0.0618
     20 H          -2.6378  -61.9181  -12.4222 H         1 MOL     0.0625
@<TRIPOS>BOND
     1    1    2 1 
     2    1   14 1 
     3    1   15 1 
     4    1   16 1 
     5    2   10 2 
     6    2   11 1 
     7    3    4 ar
     8    3    8 ar
     9    3   11 1 
    10    4    5 ar
    11    4   17 1 
    12    5    6 ar
    13    5   18 1 
    14    6    7 ar
    15    6   19 1 
    16    7    8 ar
    17    7   20 1 
    18    8    9 1 
    19    9   12 ar
    20    9   13 ar
@<TRIPOS>SUBSTRUCTURE
1 MOL         1
@<TRIPOS>MOLECULE
query molecule
   20    20     1     0     0
SMALL
NO_CHARGE

@<TRIPOS>ATOM
      1 C         -42.4969  -71.9407  -29.7953 C.3       1 MOL     0.1362
      2 C         -41.2900  -71.3589  -29.1552 C.2       1 MOL     0.3092
      3 C         -39.8302  -71.1637  -27.2127 C.ar      1 MOL     0.1404
      4 C         -39.8113  -69.8638  -26.7536 C.ar      1 MOL     0.0468
      5 C         -38.7581  -69.3225  -26.0434 C.ar      1 MOL     0.0037
      6 C         -37.6731  -70.1233  -25.7809 C.ar      1 MOL     0.0009
      7 C         -37.6398  -71.4299  -26.2170 C.ar      1 MOL     0.0131
      8 C         -38.7238  -71.9417  -26.9318 C.ar      1 MOL     0.0397
      9 C         -38.6483  -73.3286  -27.3748 C.2       1 MOL     0.0752
     10 O         -40.5845  -70.4654  -29.7143 O.2       1 MOL    -0.2507
     11 O         -40.8508  -71.7406  -27.9189 O.3       1 MOL    -0.4254
     12 O         -39.6651  -74.0685  -27.3612 O.co2     1 MOL    -0.5445
     13 O         -37.4609  -73.8824  -27.8231 O.co2     1 MOL    -0.5445
     14 H         -42.6439  -71.4892  -30.7542 H         1 MOL     0.0342
     15 H         -43.3516  -71.7552  -29.1791 H         1 MOL     0.0342
     16 H         -42.3643  -72.9956  -29.9132 H         1 MOL     0.0342
     17 H         -40.6272  -69.2639  -26.9508 H         1 MOL     0.0654
     18 H         -38.7857  -68.3431  -25.7177 H         1 MOL     0.0619
     19 H         -36.8732  -69.7423  -25.2516 H         1 MOL     0.0618
     20 H         -36.8211  -72.0257  -26.0159 H         1 MOL     0.0625
@<TRIPOS>BOND
     1    1    2 1 
     2    1   14 1 
     3    1   15 1 
     4    1   16 1 
     5    2   10 2 
     6    2   11 1 
     7    3    4 ar
     8    3    8 ar
     9    3   11 1 
    10    4    5 ar
    11    4   17 1 
    12    5    6 ar
    13    5   18 1 
    14    6    7 ar
    15    6   19 1 
    16    7    8 ar
    17    7   20 1 
    18    8    9 1 
    19    9   12 ar
    20    9   13 ar
@<TRIPOS>SUBSTRUCTURE
1 MOL         1
@<TRIPOS>MOLECULE
query molecule
   20    20     1     0     0
SMALL
NO_CHARGE

@<TRIPOS>ATOM
      1 C         -32.1436  -78.3955   -4.4115 C.3       1 MOL     0.1362
      2 C         -32.9229  -77.4607   -5.2621 C.2       1 MOL     0.3092
      3 C         -32.9204  -75.1953   -6.1623 C.ar      1 MOL     0.1404
      4 C         -34.0900  -74.7405   -6.7333 C.ar      1 MOL     0.0468
      5 C         -34.1272  -73.8226   -7.7642 C.ar      1 MOL     0.0037
      6 C         -32.9348  -73.3376   -8.2442 C.ar      1 MOL     0.0009
      7 C         -31.7366  -73.7589   -7.7099 C.ar      1 MOL     0.0131
      8 C         -31.7396  -74.6878   -6.6682 C.ar      1 MOL     0.0397
      9 C         -30.4504  -75.1069   -6.1316 C.2       1 MOL     0.0752
     10 O         -33.7237  -77.8617   -6.1604 O.2       1 MOL    -0.2507
     11 O         -32.8369  -76.1025   -5.1409 O.3       1 MOL    -0.4254
     12 O         -30.1368  -76.3235   -6.0773 O.co2     1 MOL    -0.5445
     13 O         -29.5276  -74.1875   -5.6618 O.co2     1 MOL    -0.5445
     14 H         -32.3745  -79.4035   -4.6862 H         1 MOL     0.0342
     15 H         -32.3981  -78.2388   -3.3842 H         1 MOL     0.0342
     16 H         -31.0982  -78.2171   -4.5512 H         1 MOL     0.0342
     17 H         -34.9847  -75.1051   -6.3712 H         1 MOL     0.0654
     18 H         -35.0265  -73.5087   -8.1626 H         1 MOL     0.0619
     19 H         -32.9358  -72.6504   -9.0141 H         1 MOL     0.0618
     20 H         -30.8446  -73.3899   -8.0757 H         1 MOL     0.0625
@<TRIPOS>BOND
     1    1    2 1 
     2    1   14 1 
     3    1   15 1 
     4    1   16 1 
     5    2   10 2 
     6    2   11 1 
     7    3    4 ar
     8    3    8 ar
     9    3   11 1 
    10    4    5 ar
    11    4   17 1 
    12    5    6 ar
    13    5   18 1 
    14    6    7 ar
    15    6   19 1 
    16    7    8 ar
    17    7   20 1 
    18    8    9 1 
    19    9   12 ar
    20    9   13 ar
@<TRIPOS>SUBSTRUCTURE
1 MOL         1
@<TRIPOS>MOLECULE
query molecule
   20    20     1     0     0
SMALL
NO_CHARGE

@<TRIPOS>ATOM
      1 C         -27.8003  -29.8781  -12.3897 C.3       1 MOL     0.1362
      2 C         -26.3434  -30.0914  -12.5812 C.2       1 MOL     0.3092
      3 C         -24.7283  -31.9109  -12.7328 C.ar      1 MOL     0.1404
      4 C         -23.5907  -31.4001  -13.3209 C.ar      1 MOL     0.0468
      5 C         -22.6535  -32.1794  -13.9698 C.ar      1 MOL     0.0037
      6 C         -22.8673  -33.5351  -14.0306 C.ar      1 MOL     0.0009
      7 C         -23.9880  -34.0980  -13.4599 C.ar      1 MOL     0.0131
      8 C         -24.9128  -33.2776  -12.8122 C.ar      1 MOL     0.0397
      9 C         -26.0846  -33.9133  -12.2220 C.2       1 MOL     0.0752
     10 O         -25.6131  -29.2771  -13.2234 O.2       1 MOL    -0.2507
     11 O         -25.6819  -31.1771  -12.0807 O.3       1 MOL    -0.4254
     12 O         -26.1202  -35.1560  -12.0330 O.co2     1 MOL    -0.5445
     13 O         -27.1979  -33.1782  -11.8507 O.co2     1 MOL    -0.5445
     14 H         -28.0923  -28.9659  -12.8667 H         1 MOL     0.0342
     15 H         -28.0173  -29.8187  -11.3437 H         1 MOL     0.0342
     16 H         -28.3397  -30.6954  -12.8200 H         1 MOL     0.0342
     17 H         -23.4312  -30.3818  -13.2737 H         1 MOL     0.0654
     18 H         -21.8146  -31.7549  -14.3965 H         1 MOL     0.0619
     19 H         -22.1813  -34.1393  -14.5098 H         1 MOL     0.0618
     20 H         -24.1418  -35.1176  -13.5096 H         1 MOL     0.0625
@<TRIPOS>BOND
     1    1    2 1 
     2    1   14 1 
     3    1   15 1 
     4    1   16 1 
     5    2   10 2 
     6    2   11 1 
     7    3    4 ar
     8    3    8 ar
     9    3   11 1 
    10    4    5 ar
    11    4   17 1 
    12    5    6 ar
    13    5   18 1 
    14    6    7 ar
    15    6   19 1 
    16    7    8 ar
    17    7   20 1 
    18    8    9 1 
    19    9   12 ar
    20    9   13 ar
@<TRIPOS>SUBSTRUCTURE
1 MOL         1
@<TRIPOS>MOLECULE
query molecule
   20    20     1     0     0
SMALL
NO_CHARGE

@<TRIPOS>ATOM
      1 C         -20.2045  -80.0629    8.1569 C.3       1 MOL     0.1362
      2 C         -20.5517  -80.0997    9.6001 C.2       1 MOL     0.3092
      3 C         -19.3457  -78.0685   10.2020 C.ar      1 MOL     0.1404
      4 C         -19.7230  -76.7426   10.1797 C.ar      1 MOL     0.0468
      5 C         -18.8534  -75.7083    9.8956 C.ar      1 MOL     0.0037
      6 C         -17.5434  -76.0189    9.6219 C.ar      1 MOL     0.0009
      7 C         -17.1131  -77.3279    9.6303 C.ar      1 MOL     0.0131
      8 C         -18.0218  -78.3461    9.9224 C.ar      1 MOL     0.0397
      9 C         -17.5255  -79.7170    9.9207 C.2       1 MOL     0.0752
     10 O         -21.2247  -81.0427   10.1164 O.2       1 MOL    -0.2507
     11 O         -20.1724  -79.1238   10.4780 O.3       1 MOL    -0.4254
     12 O         -17.1170  -80.2560    8.8604 O.co2     1 MOL    -0.5445
     13 O         -17.4868  -80.4751   11.0789 O.co2     1 MOL    -0.5445
     14 H         -20.6059  -80.9282    7.6721 H         1 MOL     0.0342
     15 H         -19.1404  -80.0538    8.0465 H         1 MOL     0.0342
     16 H         -20.6168  -79.1810    7.7136 H         1 MOL     0.0342
     17 H         -20.7070  -76.5109   10.3862 H         1 MOL     0.0654
     18 H         -19.1786  -74.7284    9.8901 H         1 MOL     0.0619
     19 H         -16.8737  -75.2637    9.4069 H         1 MOL     0.0618
     20 H         -16.1272  -77.5536    9.4238 H         1 MOL     0.0625
@<TRIPOS>BOND
     1    1    2 1 
     2    1   14 1 
     3    1   15 1 
     4    1   16 1 
     5    2   10 2 
     6    2   11 1 
     7    3    4 ar
     8    3    8 ar
     9    3   11 1 
    10    4    5 ar
    11    4   17 1 
    12    5    6 ar
    13    5   18 1 
    14    6    7 ar
    15    6   19 1 
    16    7    8 ar
    17    7   20 1 
    18    8    9 1 
    19    9   12 ar
    20    9   13 ar
@<TRIPOS>SUBSTRUCTURE
1 MOL         1
@<TRIPOS>MOLECULE
query molecule
   20    20     1     0     0
SMALL
NO_CHARGE

@<TRIPOS>ATOM
      1 C         -15.0107  -58.1314  -27.8466 C.3       1 MOL     0.1362
      2 C         -14.7522  -58.1682  -26.3849 C.2       1 MOL     0.3092
      3 C         -13.5069  -56.0746  -26.2924 C.ar      1 MOL     0.1404
      4 C         -14.2511  -54.9504  -26.5807 C.ar      1 MOL     0.0468
      5 C         -13.7159  -53.8049  -27.1358 C.ar      1 MOL     0.0037
      6 C         -12.3707  -53.7862  -27.4140 C.ar      1 MOL     0.0009
      7 C         -11.5806  -54.8828  -27.1462 C.ar      1 MOL     0.0131
      8 C         -12.1577  -56.0226  -26.5844 C.ar      1 MOL     0.0397
      9 C         -11.2865  -57.1606  -26.3169 C.2       1 MOL     0.0752
     10 O         -15.2178  -59.0766  -25.6321 O.2       1 MOL    -0.2507
     11 O         -13.9947  -57.2294  -25.7431 O.3       1 MOL    -0.4254
     12 O         -11.7644  -58.2911  -26.0432 O.co2     1 MOL    -0.5445
     13 O          -9.9073  -57.0412  -26.3515 O.co2     1 MOL    -0.5445
     14 H         -15.6242  -58.9642  -28.1206 H         1 MOL     0.0342
     15 H         -14.0815  -58.1844  -28.3742 H         1 MOL     0.0342
     16 H         -15.5118  -57.2202  -28.0970 H         1 MOL     0.0342
     17 H         -15.2611  -54.9657  -26.3705 H         1 MOL     0.0654
     18 H         -14.3104  -52.9846  -27.3354 H         1 MOL     0.0619
     19 H         -11.9467  -52.9417  -27.8289 H         1 MOL     0.0618
     20 H         -10.5704  -54.8614  -27.3579 H         1 MOL     0.0625
@<TRIPOS>BOND
     1    1    2 1 
     2    1   14 1 
     3    1   15 1 
     4    1   16 1 
     5    2   10 2 
     6    2   11 1 
     7    3    4 ar
     8    3    8 ar
     9    3   11 1 
    10    4    5 ar
    11    4   17 1 
    12    5    6 ar
    13    5   18 1 
    14    6    7 ar
    15    6   19 1 
    16    7    8 ar
    17    7   20 1 
    18    8    9 1 
    19    9   12 ar
    20    9   13 ar
@<TRIPOS>SUBSTRUCTURE
1 MOL         1
@<TRIPOS>MOLECULE
query molecule
   20    20     1     0     0
SMALL
NO_CHARGE

@<TRIPOS>ATOM
      1 C          -6.8173  -44.8760    4.5232 C.3       1 MOL     0.1362
      2 C          -5.7452  -45.8380    4.1630 C.2       1 MOL     0.3092
      3 C          -3.6231  -44.6477    4.3129 C.ar      1 MOL     0.1404
      4 C          -3.9950  -43.3202    4.2952 C.ar      1 MOL     0.0468
      5 C          -3.1216  -42.2887    4.0127 C.ar      1 MOL     0.0037
      6 C          -1.8134  -42.6039    3.7356 C.ar      1 MOL     0.0009
      7 C          -1.3886  -43.9146    3.7393 C.ar      1 MOL     0.0131
      8 C          -2.3009  -44.9300    4.0300 C.ar      1 MOL     0.0397
      9 C          -1.8103  -46.3029    4.0232 C.2       1 MOL     0.0752
     10 O          -5.9569  -46.8545    3.4345 O.2       1 MOL    -0.2507
     11 O          -4.4536  -45.7004    4.5873 O.3       1 MOL    -0.4254
     12 O          -0.5807  -46.5501    3.9314 O.co2     1 MOL    -0.5445
     13 O          -2.6739  -47.3814    4.1150 O.co2     1 MOL    -0.5445
     14 H          -7.7392  -45.1873    4.0782 H         1 MOL     0.0342
     15 H          -6.5583  -43.9025    4.1628 H         1 MOL     0.0342
     16 H          -6.9259  -44.8453    5.5870 H         1 MOL     0.0342
     17 H          -4.9776  -43.0850    4.5042 H         1 MOL     0.0654
     18 H          -3.4427  -41.3074    4.0107 H         1 MOL     0.0619
     19 H          -1.1410  -41.8508    3.5216 H         1 MOL     0.0618
     20 H          -0.4039  -44.1437    3.5303 H         1 MOL     0.0625
@<TRIPOS>BOND
     1    1    2 1 
     2    1   14 1 
     3    1   15 1 
     4    1   16 1 
     5    2   10 2 
     6    2   11 1 
     7    3    4 ar
     8    3    8 ar
     9    3   11 1 
    10    4    5 ar
    11    4   17 1 
    12    5    6 ar
    13    5   18 1 
    14    6    7 ar
    15    6   19 1 
    16    7    8 ar
    17    7   20 1 
    18    8    9 1 
    19    9   12 ar
    20    9   13 ar
@<TRIPOS>SUBSTRUCTURE
1 MOL         1
@<TRIPOS>MOLECULE
query molecule
   20    20     1     0     0
SMALL
NO_CHARGE

@<TRIPOS>ATOM
      1 C          -8.3447  -74.4563   10.4502 C.3       1 MOL     0.1362
      2 C          -7.4844  -75.2415   11.3711 C.2       1 MOL     0.3092
      3 C          -5.4959  -73.8563   11.1069 C.ar      1 MOL     0.1404
      4 C          -5.5249  -72.6001   11.6743 C.ar      1 MOL     0.0468
      5 C          -4.8332  -71.5187   11.1654 C.ar      1 MOL     0.0037
      6 C          -4.0763  -71.7069   10.0345 C.ar      1 MOL     0.0009
      7 C          -4.0125  -72.9418    9.4268 C.ar      1 MOL     0.0131
      8 C          -4.7254  -74.0111    9.9710 C.ar      1 MOL     0.0397
      9 C          -4.6306  -75.3005    9.2971 C.2       1 MOL     0.0752
     10 O          -7.9181  -76.2348   12.0299 O.2       1 MOL    -0.2507
     11 O          -6.1644  -74.9543   11.5766 O.3       1 MOL    -0.4254
     12 O          -3.5794  -75.9879    9.3603 O.co2     1 MOL    -0.5445
     13 O          -5.6871  -75.8145    8.5641 O.co2     1 MOL    -0.5445
     14 H          -9.3336  -74.8650   10.4517 H         1 MOL     0.0342
     15 H          -7.9416  -74.5018    9.4603 H         1 MOL     0.0342
     16 H          -8.3781  -73.4377   10.7753 H         1 MOL     0.0342
     17 H          -6.0932  -72.4606   12.5241 H         1 MOL     0.0654
     18 H          -4.8828  -70.5945   11.6230 H         1 MOL     0.0619
     19 H          -3.5497  -70.9144    9.6348 H         1 MOL     0.0618
     20 H          -3.4414  -73.0756    8.5772 H         1 MOL     0.0625
@<TRIPOS>BOND
     1    1    2 1 
     2    1   14 1 
     3    1   15 1 
     4    1   16 1 
     5    2   10 2 
     6    2   11 1 
     7    3    4 ar
     8    3    8 ar
     9    3   11 1 
    10    4    5 ar
    11    4   17 1 
    12    5    6 ar
    13    5   18 1 
    14    6    7 ar
    15    6   19 1 
    16    7    8 ar
    17    7   20 1 
    18    8    9 1 
    19    9   12 ar
    20    9   13 ar
@<TRIPOS>SUBSTRUCTURE
1 MOL         1
@<TRIPOS>MOLECULE
query molecule
   20    20     1     0     0
SMALL
NO_CHARGE

@<TRIPOS>ATOM
      1 C          -5.6697  -38.6537    4.8009 C.3       1 MOL     0.1362
      2 C          -5.7283  -38.9517    6.2544 C.2       1 MOL     0.3092
      3 C          -4.1091  -37.2565    6.9228 C.ar      1 MOL     0.1404
      4 C          -4.4585  -35.9228    6.9356 C.ar      1 MOL     0.0468
      5 C          -3.5683  -34.9001    6.6743 C.ar      1 MOL     0.0037
      6 C          -2.2662  -35.2310    6.3874 C.ar      1 MOL     0.0009
      7 C          -1.8635  -36.5485    6.3608 C.ar      1 MOL     0.0131
      8 C          -2.7924  -37.5546    6.6307 C.ar      1 MOL     0.0397
      9 C          -2.3251  -38.9351    6.5922 C.2       1 MOL     0.0752
     10 O          -6.5001  -39.8335    6.7397 O.2       1 MOL    -0.2507
     11 O          -4.9568  -38.3009    7.1754 O.3       1 MOL    -0.4254
     12 O          -1.9350  -39.5156    7.6373 O.co2     1 MOL    -0.5445
     13 O          -2.2908  -39.6558    5.4102 O.co2     1 MOL    -0.5445
     14 H          -6.3586  -39.2853    4.2800 H         1 MOL     0.0342
     15 H          -4.6786  -38.8331    4.4401 H         1 MOL     0.0342
     16 H          -5.9292  -37.6291    4.6365 H         1 MOL     0.0342
     17 H          -5.4366  -35.6758    7.1520 H         1 MOL     0.0654
     18 H          -3.8728  -33.9137    6.6950 H         1 MOL     0.0619
     19 H          -1.5814  -34.4848    6.1889 H         1 MOL     0.0618
     20 H          -0.8833  -36.7895    6.1446 H         1 MOL     0.0625
@<TRIPOS>BOND
     1    1    2 1 
     2    1   14 1 
     3    1   15 1 
     4    1   16 1 
     5    2   10 2 
     6    2   11 1 
     7    3    4 ar
     8    3    8 ar
     9    3   11 1 
    10    4    5 ar
    11    4   17 1 
    12    5    6 ar
    13    5   18 1 
    14    6    7 ar
    15    6   19 1 
    16    7    8 ar
    17    7   20 1 
    18    8    9 1 
    19    9   12 ar
    20    9   13 ar
@<TRIPOS>SUBSTRUCTURE
1 MOL         1
