@<TRIPOS>MOLECULE
query molecule
   20    20     1     0     0
SMALL
NO_CHARGE

@<TRIPOS>ATOM
      1 C         -28.4227  -52.9349  -10.5764 C.3       1 MOL     0.1362
      2 C         -28.0104  -52.6121   -9.1512 C.2       1 MOL     0.3092
      3 C         -28.3159  -53.5472   -7.0222 C.ar      1 MOL     0.1404
      4 C         -29.1950  -52.7855   -6.2183 C.ar      1 MOL     0.0468
      5 C         -29.2075  -52.9565   -4.8359 C.ar      1 MOL     0.0037
      6 C         -28.3449  -53.8841   -4.2533 C.ar      1 MOL     0.0009
      7 C         -27.4312  -54.5897   -5.0281 C.ar      1 MOL     0.0131
      8 C         -27.3667  -54.3910   -6.4171 C.ar      1 MOL     0.0397
      9 C         -26.2401  -55.0872   -7.1392 C.2       1 MOL     0.0752
     10 O         -27.3381  -51.6564   -8.8196 O.2       1 MOL    -0.2507
     11 O         -28.4814  -53.5275   -8.3804 O.3       1 MOL    -0.4254
     12 O         -25.9650  -54.6571   -8.2955 O.co2     1 MOL    -0.5445
     13 O         -25.6275  -56.0155   -6.5264 O.co2     1 MOL    -0.5445
     14 H         -28.0339  -52.1642  -11.2712 H         1 MOL     0.0342
     15 H         -29.5300  -52.9655  -10.6557 H         1 MOL     0.0342
     16 H         -28.0170  -53.9245  -10.8715 H         1 MOL     0.0342
     17 H         -29.8843  -52.0920   -6.6786 H         1 MOL     0.0654
     18 H         -29.8867  -52.3862   -4.2216 H         1 MOL     0.0619
     19 H         -28.3761  -54.0470   -3.1847 H         1 MOL     0.0618
     20 H         -26.7483  -55.2815   -4.5552 H         1 MOL     0.0625
@<TRIPOS>BOND
     1    1    2 1 
     2    1   14 1 
     3    1   15 1 
     4    1   16 1 
     5    2   10 2 
     6    2   11 1 
     7    3    4 ar
     8    3    8 ar
     9    3   11 1 
    10    4    5 ar
    11    4   17 1 
    12    5    6 ar
    13    5   18 1 
    14    6    7 ar
    15    6   19 1 
    16    7    8 ar
    17    7   20 1 
    18    8    9 1 
    19    9   12 ar
    20    9   13 ar
@<TRIPOS>SUBSTRUCTURE
1 MOL         1
@<TRIPOS>MOLECULE
query molecule
   20    20     1     0     0
SMALL
NO_CHARGE

@<TRIPOS>ATOM
      1 C         -39.8781  -56.5878    5.6036 C.3       1 MOL     0.1362
      2 C         -40.3100  -56.2115    7.0184 C.2       1 MOL     0.3092
      3 C         -42.1013  -55.1316    8.0820 C.ar      1 MOL     0.1404
      4 C         -42.9520  -56.0178    8.7644 C.ar      1 MOL     0.0468
      5 C         -43.6239  -55.6124    9.9127 C.ar      1 MOL     0.0037
      6 C         -43.4564  -54.3137   10.3927 C.ar      1 MOL     0.0009
      7 C         -42.6092  -53.4320    9.7207 C.ar      1 MOL     0.0131
      8 C         -41.9159  -53.8257    8.5564 C.ar      1 MOL     0.0397
      9 C         -41.0134  -52.8108    7.8758 C.2       1 MOL     0.0752
     10 O         -39.6779  -56.4498    8.0348 O.2       1 MOL    -0.2507
     11 O         -41.4693  -55.5760    6.9394 O.3       1 MOL    -0.4254
     12 O         -40.8339  -51.7369    8.5364 O.co2     1 MOL    -0.5445
     13 O         -40.5262  -53.0729    6.7433 O.co2     1 MOL    -0.5445
     14 H         -38.9502  -57.1961    5.6300 H         1 MOL     0.0342
     15 H         -39.6832  -55.6751    5.0017 H         1 MOL     0.0342
     16 H         -40.6741  -57.1766    5.1024 H         1 MOL     0.0342
     17 H         -43.0827  -57.0230    8.3926 H         1 MOL     0.0654
     18 H         -44.2714  -56.3032   10.4320 H         1 MOL     0.0619
     19 H         -43.9827  -53.9956   11.2820 H         1 MOL     0.0618
     20 H         -42.4921  -52.4252   10.1021 H         1 MOL     0.0625
@<TRIPOS>BOND
     1    1    2 1 
     2    1   14 1 
     3    1   15 1 
     4    1   16 1 
     5    2   10 2 
     6    2   11 1 
     7    3    4 ar
     8    3    8 ar
     9    3   11 1 
    10    4    5 ar
    11    4   17 1 
    12    5    6 ar
    13    5   18 1 
    14    6    7 ar
    15    6   19 1 
    16    7    8 ar
    17    7   20 1 
    18    8    9 1 
    19    9   12 ar
    20    9   13 ar
@<TRIPOS>SUBSTRUCTURE
1 MOL         1
@<TRIPOS>MOLECULE
query molecule
   20    20     1     0     0
SMALL
NO_CHARGE

@<TRIPOS>ATOM
      1 C         -35.2364  -54.7975  -12.6978 C.3       1 MOL     0.1362
      2 C         -34.8281  -53.3739  -13.0583 C.2       1 MOL     0.3092
      3 C         -37.0012  -52.5042  -12.5673 C.ar      1 MOL     0.1404
      4 C         -37.8443  -53.1951  -13.4669 C.ar      1 MOL     0.0468
      5 C         -39.2197  -53.2407  -13.2823 C.ar      1 MOL     0.0037
      6 C         -39.7830  -52.5925  -12.1907 C.ar      1 MOL     0.0009
      7 C         -38.9684  -51.9094  -11.2899 C.ar      1 MOL     0.0131
      8 C         -37.5670  -51.8442  -11.4632 C.ar      1 MOL     0.0397
      9 C         -36.7929  -51.0084  -10.4507 C.2       1 MOL     0.0752
     10 O         -33.7066  -53.1600  -13.5145 O.2       1 MOL    -0.2507
     11 O         -35.6836  -52.4453  -12.8547 O.3       1 MOL    -0.4254
     12 O         -35.5481  -50.9194  -10.6593 O.co2     1 MOL    -0.5445
     13 O         -37.4553  -50.4638   -9.5183 O.co2     1 MOL    -0.5445
     14 H         -34.4595  -55.4914  -13.0923 H         1 MOL     0.0342
     15 H         -36.2111  -55.0825  -13.1309 H         1 MOL     0.0342
     16 H         -35.2706  -54.9063  -11.5939 H         1 MOL     0.0342
     17 H         -37.4034  -53.6902  -14.3201 H         1 MOL     0.0654
     18 H         -39.8376  -53.7710  -13.9890 H         1 MOL     0.0619
     19 H         -40.8539  -52.6194  -12.0460 H         1 MOL     0.0618
     20 H         -39.4234  -51.4062  -10.4471 H         1 MOL     0.0625
@<TRIPOS>BOND
     1    1    2 1 
     2    1   14 1 
     3    1   15 1 
     4    1   16 1 
     5    2   10 2 
     6    2   11 1 
     7    3    4 ar
     8    3    8 ar
     9    3   11 1 
    10    4    5 ar
    11    4   17 1 
    12    5    6 ar
    13    5   18 1 
    14    6    7 ar
    15    6   19 1 
    16    7    8 ar
    17    7   20 1 
    18    8    9 1 
    19    9   12 ar
    20    9   13 ar
@<TRIPOS>SUBSTRUCTURE
1 MOL         1
@<TRIPOS>MOLECULE
query molecule
   20    20     1     0     0
SMALL
NO_CHARGE

@<TRIPOS>ATOM
      1 C         -14.5427  -61.7879   -7.9105 C.3       1 MOL     0.1362
      2 C         -13.7441  -62.3264   -6.7337 C.2       1 MOL     0.3092
      3 C         -14.1317  -62.7654   -4.4554 C.ar      1 MOL     0.1404
      4 C         -13.9417  -64.1241   -4.1418 C.ar      1 MOL     0.0468
      5 C         -13.5085  -64.5101   -2.8726 C.ar      1 MOL     0.0037
      6 C         -13.2651  -63.5413   -1.8989 C.ar      1 MOL     0.0009
      7 C         -13.4571  -62.1920   -2.2023 C.ar      1 MOL     0.0131
      8 C         -13.8916  -61.7804   -3.4818 C.ar      1 MOL     0.0397
      9 C         -14.0817  -60.2891   -3.7295 C.2       1 MOL     0.0752
     10 O         -12.5550  -62.5905   -6.7641 O.2       1 MOL    -0.2507
     11 O         -14.5583  -62.4230   -5.7166 O.3       1 MOL    -0.4254
     12 O         -13.5881  -59.5299   -2.8369 O.co2     1 MOL    -0.5445
     13 O         -14.6747  -59.9117   -4.7838 O.co2     1 MOL    -0.5445
     14 H         -13.9518  -61.8513   -8.8456 H         1 MOL     0.0342
     15 H         -14.8180  -60.7277   -7.7318 H         1 MOL     0.0342
     16 H         -15.4756  -62.3764   -8.0328 H         1 MOL     0.0342
     17 H         -14.1334  -64.8771   -4.8940 H         1 MOL     0.0654
     18 H         -13.3635  -65.5565   -2.6459 H         1 MOL     0.0619
     19 H         -12.9303  -63.8369   -0.9150 H         1 MOL     0.0618
     20 H         -13.2772  -61.4493   -1.4359 H         1 MOL     0.0625
@<TRIPOS>BOND
     1    1    2 1 
     2    1   14 1 
     3    1   15 1 
     4    1   16 1 
     5    2   10 2 
     6    2   11 1 
     7    3    4 ar
     8    3    8 ar
     9    3   11 1 
    10    4    5 ar
    11    4   17 1 
    12    5    6 ar
    13    5   18 1 
    14    6    7 ar
    15    6   19 1 
    16    7    8 ar
    17    7   20 1 
    18    8    9 1 
    19    9   12 ar
    20    9   13 ar
@<TRIPOS>SUBSTRUCTURE
1 MOL         1
@<TRIPOS>MOLECULE
query molecule
   20    20     1     0     0
SMALL
NO_CHARGE

@<TRIPOS>ATOM
      1 C         -33.4648  -43.3399    7.9056 C.3       1 MOL     0.1362
      2 C         -33.8190  -43.1354    6.4536 C.2       1 MOL     0.3092
      3 C         -32.7624  -43.2267    4.3792 C.ar      1 MOL     0.1404
      4 C         -33.3482  -44.1514    3.4942 C.ar      1 MOL     0.0468
      5 C         -33.3568  -43.9106    2.1217 C.ar      1 MOL     0.0037
      6 C         -32.7885  -42.7428    1.6198 C.ar      1 MOL     0.0009
      7 C         -32.1996  -41.8254    2.4919 C.ar      1 MOL     0.0131
      8 C         -32.1582  -42.0576    3.8832 C.ar      1 MOL     0.0397
      9 C         -31.4318  -41.0298    4.7421 C.2       1 MOL     0.0752
     10 O         -34.8794  -42.6710    6.0509 O.2       1 MOL    -0.2507
     11 O         -32.7847  -43.5000    5.7309 O.3       1 MOL    -0.4254
     12 O         -30.7079  -40.1808    4.1277 O.co2     1 MOL    -0.5445
     13 O         -31.5775  -41.0982    5.9987 O.co2     1 MOL    -0.5445
     14 H         -34.1074  -42.6988    8.5440 H         1 MOL     0.0342
     15 H         -32.4035  -43.0647    8.0787 H         1 MOL     0.0342
     16 H         -33.6162  -44.3998    8.1871 H         1 MOL     0.0342
     17 H         -33.7991  -45.0520    3.8816 H         1 MOL     0.0654
     18 H         -33.8076  -44.6286    1.4512 H         1 MOL     0.0619
     19 H         -32.8017  -42.5512    0.5567 H         1 MOL     0.0618
     20 H         -31.7676  -40.9193    2.0884 H         1 MOL     0.0625
@<TRIPOS>BOND
     1    1    2 1 
     2    1   14 1 
     3    1   15 1 
     4    1   16 1 
     5    2   10 2 
     6    2   11 1 
     7    3    4 ar
     8    3    8 ar
     9    3   11 1 
    10    4    5 ar
    11    4   17 1 
    12    5    6 ar
    13    5   18 1 
    14    6    7 ar
    15    6   19 1 
    16    7    8 ar
    17    7   20 1 
    18    8    9 1 
    19    9   12 ar
    20    9   13 ar
@<TRIPOS>SUBSTRUCTURE
1 MOL         1
@<TRIPOS>MOLECULE
query molecule
   20    20     1     0     0
SMALL
NO_CHARGE

@<TRIPOS>ATOM
      1 C         -32.9760  -63.6179    5.9934 C.3       1 MOL     0.1362
      2 C         -32.5956  -62.1392    5.9247 C.2       1 MOL     0.3092
      3 C         -31.9074  -62.4474    3.6432 C.ar      1 MOL     0.1404
      4 C         -33.0412  -62.5828    2.8112 C.ar      1 MOL     0.0468
      5 C         -32.9679  -63.2751    1.6090 C.ar      1 MOL     0.0037
      6 C         -31.7565  -63.8257    1.2063 C.ar      1 MOL     0.0009
      7 C         -30.6300  -63.6709    2.0078 C.ar      1 MOL     0.0131
      8 C         -30.6863  -62.9909    3.2371 C.ar      1 MOL     0.0397
      9 C         -29.4032  -62.8989    4.0217 C.2       1 MOL     0.0752
     10 O         -32.8059  -61.3803    6.8661 O.2       1 MOL    -0.2507
     11 O         -32.0339  -61.7556    4.8023 O.3       1 MOL    -0.4254
     12 O         -28.3403  -63.1900    3.3878 O.co2     1 MOL    -0.5445
     13 O         -29.4649  -62.5446    5.2363 O.co2     1 MOL    -0.5445
     14 H         -33.5393  -63.8246    6.9251 H         1 MOL     0.0342
     15 H         -32.0574  -64.2380    5.9776 H         1 MOL     0.0342
     16 H         -33.6050  -63.8836    5.1195 H         1 MOL     0.0342
     17 H         -33.9821  -62.1475    3.1229 H         1 MOL     0.0654
     18 H         -33.8448  -63.3846    0.9919 H         1 MOL     0.0619
     19 H         -31.6879  -64.3723    0.2764 H         1 MOL     0.0618
     20 H         -29.6874  -64.0903    1.6815 H         1 MOL     0.0625
@<TRIPOS>BOND
     1    1    2 1 
     2    1   14 1 
     3    1   15 1 
     4    1   16 1 
     5    2   10 2 
     6    2   11 1 
     7    3    4 ar
     8    3    8 ar
     9    3   11 1 
    10    4    5 ar
    11    4   17 1 
    12    5    6 ar
    13    5   18 1 
    14    6    7 ar
    15    6   19 1 
    16    7    8 ar
    17    7   20 1 
    18    8    9 1 
    19    9   12 ar
    20    9   13 ar
@<TRIPOS>SUBSTRUCTURE
1 MOL         1
@<TRIPOS>MOLECULE
query molecule
   20    20     1     0     0
SMALL
NO_CHARGE

@<TRIPOS>ATOM
      1 C         -15.3828  -59.1437   -8.8133 C.3       1 MOL     0.1362
      2 C         -14.9952  -60.6132   -8.8180 C.2       1 MOL     0.3092
      3 C         -13.9192  -62.0964   -7.3234 C.ar      1 MOL     0.1404
      4 C         -13.3184  -63.0081   -8.2047 C.ar      1 MOL     0.0468
      5 C         -12.9644  -64.2848   -7.7797 C.ar      1 MOL     0.0037
      6 C         -13.1909  -64.6619   -6.4582 C.ar      1 MOL     0.0009
      7 C         -13.7540  -63.7524   -5.5601 C.ar      1 MOL     0.0131
      8 C         -14.1147  -62.4517   -5.9737 C.ar      1 MOL     0.0397
      9 C         -14.6725  -61.4944   -4.9255 C.2       1 MOL     0.0752
     10 O         -15.3134  -61.4085   -9.7102 O.2       1 MOL    -0.2507
     11 O         -14.3001  -60.8615   -7.7714 O.3       1 MOL    -0.4254
     12 O         -14.9564  -60.3039   -5.2556 O.co2     1 MOL    -0.5445
     13 O         -14.8031  -61.9694   -3.7538 O.co2     1 MOL    -0.5445
     14 H         -15.8480  -58.8650   -9.7829 H         1 MOL     0.0342
     15 H         -14.4887  -58.5132   -8.6442 H         1 MOL     0.0342
     16 H         -16.1221  -58.9438   -8.0062 H         1 MOL     0.0342
     17 H         -13.1430  -62.7124   -9.2298 H         1 MOL     0.0654
     18 H         -12.5206  -64.9768   -8.4792 H         1 MOL     0.0619
     19 H         -12.9312  -65.6576   -6.1329 H         1 MOL     0.0618
     20 H         -13.9145  -64.0539   -4.5328 H         1 MOL     0.0625
@<TRIPOS>BOND
     1    1    2 1 
     2    1   14 1 
     3    1   15 1 
     4    1   16 1 
     5    2   10 2 
     6    2   11 1 
     7    3    4 ar
     8    3    8 ar
     9    3   11 1 
    10    4    5 ar
    11    4   17 1 
    12    5    6 ar
    13    5   18 1 
    14    6    7 ar
    15    6   19 1 
    16    7    8 ar
    17    7   20 1 
    18    8    9 1 
    19    9   12 ar
    20    9   13 ar
@<TRIPOS>SUBSTRUCTURE
1 MOL         1
@<TRIPOS>MOLECULE
query molecule
   20    20     1     0     0
SMALL
NO_CHARGE

@<TRIPOS>ATOM
      1 C         -55.4177  -71.1765   -8.5430 C.3       1 MOL     0.1362
      2 C         -54.4418  -70.6088   -9.5618 C.2       1 MOL     0.3092
      3 C         -54.2447  -68.6377  -10.8144 C.ar      1 MOL     0.1404
      4 C         -55.0486  -68.7871  -11.9670 C.ar      1 MOL     0.0468
      5 C         -54.6998  -68.1707  -13.1594 C.ar      1 MOL     0.0037
      6 C         -53.5420  -67.4067  -13.2122 C.ar      1 MOL     0.0009
      7 C         -52.7482  -67.2432  -12.0772 C.ar      1 MOL     0.0131
      8 C         -53.0966  -67.8356  -10.8519 C.ar      1 MOL     0.0397
      9 C         -52.2137  -67.5300   -9.6594 C.2       1 MOL     0.0752
     10 O         -53.6354  -71.2789  -10.1918 O.2       1 MOL    -0.2507
     11 O         -54.6484  -69.2984   -9.6659 O.3       1 MOL    -0.4254
     12 O         -52.4570  -68.1666   -8.5932 O.co2     1 MOL    -0.5445
     13 O         -51.2965  -66.6545   -9.7728 O.co2     1 MOL    -0.5445
     14 H         -55.4655  -72.2805   -8.6461 H         1 MOL     0.0342
     15 H         -56.4303  -70.7595   -8.7254 H         1 MOL     0.0342
     16 H         -55.1024  -70.9211   -7.5125 H         1 MOL     0.0342
     17 H         -55.9460  -69.3886  -11.9166 H         1 MOL     0.0654
     18 H         -55.3184  -68.2882  -14.0347 H         1 MOL     0.0619
     19 H         -53.2543  -66.9383  -14.1428 H         1 MOL     0.0618
     20 H         -51.8511  -66.6418  -12.1424 H         1 MOL     0.0625
@<TRIPOS>BOND
     1    1    2 1 
     2    1   14 1 
     3    1   15 1 
     4    1   16 1 
     5    2   10 2 
     6    2   11 1 
     7    3    4 ar
     8    3    8 ar
     9    3   11 1 
    10    4    5 ar
    11    4   17 1 
    12    5    6 ar
    13    5   18 1 
    14    6    7 ar
    15    6   19 1 
    16    7    8 ar
    17    7   20 1 
    18    8    9 1 
    19    9   12 ar
    20    9   13 ar
@<TRIPOS>SUBSTRUCTURE
1 MOL         1
@<TRIPOS>MOLECULE
query molecule
   20    20     1     0     0
SMALL
NO_CHARGE

@<TRIPOS>ATOM
      1 C         -42.7244  -70.5280    1.0551 C.3       1 MOL     0.1362
      2 C         -43.5144  -70.0148   -0.1426 C.2       1 MOL     0.3092
      3 C         -43.2634  -68.5055   -1.9181 C.ar      1 MOL     0.1404
      4 C         -43.7897  -67.2451   -1.5498 C.ar      1 MOL     0.0468
      5 C         -44.4433  -66.4419   -2.4811 C.ar      1 MOL     0.0037
      6 C         -44.5785  -66.8920   -3.7920 C.ar      1 MOL     0.0009
      7 C         -44.0317  -68.1192   -4.1641 C.ar      1 MOL     0.0131
      8 C         -43.3406  -68.9360   -3.2458 C.ar      1 MOL     0.0397
      9 C         -42.6983  -70.2005   -3.7917 C.2       1 MOL     0.0752
     10 O         -44.7049  -70.2179   -0.3143 O.2       1 MOL    -0.2507
     11 O         -42.7033  -69.2818   -0.9212 O.3       1 MOL    -0.4254
     12 O         -42.8153  -70.4056   -5.0414 O.co2     1 MOL    -0.5445
     13 O         -41.9957  -70.9096   -3.0145 O.co2     1 MOL    -0.5445
     14 H         -43.3671  -71.1748    1.6866 H         1 MOL     0.0342
     15 H         -42.3751  -69.6681    1.6660 H         1 MOL     0.0342
     16 H         -41.8424  -71.1105    0.7199 H         1 MOL     0.0342
     17 H         -43.6942  -66.9054   -0.5263 H         1 MOL     0.0654
     18 H         -44.8387  -65.4816   -2.1874 H         1 MOL     0.0619
     19 H         -45.1018  -66.2866   -4.5171 H         1 MOL     0.0618
     20 H         -44.1321  -68.4486   -5.1906 H         1 MOL     0.0625
@<TRIPOS>BOND
     1    1    2 1 
     2    1   14 1 
     3    1   15 1 
     4    1   16 1 
     5    2   10 2 
     6    2   11 1 
     7    3    4 ar
     8    3    8 ar
     9    3   11 1 
    10    4    5 ar
    11    4   17 1 
    12    5    6 ar
    13    5   18 1 
    14    6    7 ar
    15    6   19 1 
    16    7    8 ar
    17    7   20 1 
    18    8    9 1 
    19    9   12 ar
    20    9   13 ar
@<TRIPOS>SUBSTRUCTURE
1 MOL         1
@<TRIPOS>MOLECULE
query molecule
   20    20     1     0     0
SMALL
NO_CHARGE

@<TRIPOS>ATOM
      1 C          -6.8884  -42.5916   -7.5779 C.3       1 MOL     0.1362
      2 C          -6.7733  -41.0781   -7.8112 C.2       1 MOL     0.3092
      3 C          -8.4002  -41.1239   -9.5618 C.ar      1 MOL     0.1404
      4 C          -7.8957  -41.4680  -10.8322 C.ar      1 MOL     0.0468
      5 C          -8.7261  -41.9999  -11.8160 C.ar      1 MOL     0.0037
      6 C         -10.0781  -42.1995  -11.5441 C.ar      1 MOL     0.0009
      7 C         -10.5888  -41.8552  -10.2927 C.ar      1 MOL     0.0131
      8 C          -9.7631  -41.3079   -9.2842 C.ar      1 MOL     0.0397
      9 C         -10.4297  -40.9298   -7.9768 C.2       1 MOL     0.0752
     10 O          -5.9693  -40.4068   -7.1674 O.2       1 MOL    -0.2507
     11 O          -7.5611  -40.5802   -8.6853 O.3       1 MOL    -0.4254
     12 O          -9.7125  -40.4097   -7.0650 O.co2     1 MOL    -0.5445
     13 O         -11.6740  -41.1420   -7.8965 O.co2     1 MOL    -0.5445
     14 H          -6.0798  -42.8868   -6.8702 H         1 MOL     0.0342
     15 H          -6.7630  -43.1704   -8.5109 H         1 MOL     0.0342
     16 H          -7.8600  -42.8457   -7.1104 H         1 MOL     0.0342
     17 H          -6.8492  -41.3042  -11.0500 H         1 MOL     0.0654
     18 H          -8.3216  -42.2526  -12.7854 H         1 MOL     0.0619
     19 H         -10.7215  -42.6169  -12.3042 H         1 MOL     0.0618
     20 H         -11.6450  -41.9996  -10.1040 H         1 MOL     0.0625
@<TRIPOS>BOND
     1    1    2 1 
     2    1   14 1 
     3    1   15 1 
     4    1   16 1 
     5    2   10 2 
     6    2   11 1 
     7    3    4 ar
     8    3    8 ar
     9    3   11 1 
    10    4    5 ar
    11    4   17 1 
    12    5    6 ar
    13    5   18 1 
    14    6    7 ar
    15    6   19 1 
    16    7    8 ar
    17    7   20 1 
    18    8    9 1 
    19    9   12 ar
    20    9   13 ar
@<TRIPOS>SUBSTRUCTURE
1 MOL         1
@<TRIPOS>MOLECULE
query molecule
   20    20     1     0     0
SMALL
NO_CHARGE

@<TRIPOS>ATOM
      1 C         -27.2816  -52.0133  -14.9948 C.3       1 MOL     0.1362
      2 C         -27.5469  -53.4896  -15.2465 C.2       1 MOL     0.3092
      3 C         -29.4415  -54.7767  -15.7402 C.ar      1 MOL     0.1404
      4 C         -29.4216  -55.0557  -17.1210 C.ar      1 MOL     0.0468
      5 C         -30.0991  -56.1566  -17.6359 C.ar      1 MOL     0.0037
      6 C         -30.8229  -56.9843  -16.7797 C.ar      1 MOL     0.0009
      7 C         -30.8590  -56.7011  -15.4149 C.ar      1 MOL     0.0131
      8 C         -30.1437  -55.6139  -14.8709 C.ar      1 MOL     0.0397
      9 C         -30.1878  -55.4326  -13.3695 C.2       1 MOL     0.0752
     10 O         -26.6931  -54.3334  -15.3944 O.2       1 MOL    -0.2507
     11 O         -28.8296  -53.6372  -15.3066 O.3       1 MOL    -0.4254
     12 O         -29.3699  -54.6339  -12.8313 O.co2     1 MOL    -0.5445
     13 O         -31.0496  -56.1496  -12.7628 O.co2     1 MOL    -0.5445
     14 H         -26.1895  -51.8176  -14.9964 H         1 MOL     0.0342
     15 H         -27.6978  -51.7171  -14.0101 H         1 MOL     0.0342
     16 H         -27.7569  -51.3971  -15.7852 H         1 MOL     0.0342
     17 H         -28.8766  -54.4019  -17.7870 H         1 MOL     0.0654
     18 H         -30.0640  -56.3664  -18.6943 H         1 MOL     0.0619
     19 H         -31.3507  -57.8395  -17.1745 H         1 MOL     0.0618
     20 H         -31.4362  -57.3426  -14.7616 H         1 MOL     0.0625
@<TRIPOS>BOND
     1    1    2 1 
     2    1   14 1 
     3    1   15 1 
     4    1   16 1 
     5    2   10 2 
     6    2   11 1 
     7    3    4 ar
     8    3    8 ar
     9    3   11 1 
    10    4    5 ar
    11    4   17 1 
    12    5    6 ar
    13    5   18 1 
    14    6    7 ar
    15    6   19 1 
    16    7    8 ar
    17    7   20 1 
    18    8    9 1 
    19    9   12 ar
    20    9   13 ar
@<TRIPOS>SUBSTRUCTURE
1 MOL         1
@<TRIPOS>MOLECULE
query molecule
   20    20     1     0     0
SMALL
NO_CHARGE

@<TRIPOS>ATOM
      1 C         -18.3520  -53.6583   -6.0324 C.3       1 MOL     0.1362
      2 C         -19.0889  -52.3700   -6.3916 C.2       1 MOL     0.3092
      3 C         -18.7138  -50.4916   -7.7725 C.ar      1 MOL     0.1404
      4 C         -18.3202  -49.3361   -7.0684 C.ar      1 MOL     0.0468
      5 C         -18.7023  -48.0735   -7.5131 C.ar      1 MOL     0.0037
      6 C         -19.5068  -47.9500   -8.6450 C.ar      1 MOL     0.0009
      7 C         -19.8809  -49.0880   -9.3590 C.ar      1 MOL     0.0131
      8 C         -19.4572  -50.3715   -8.9589 C.ar      1 MOL     0.0397
      9 C         -19.8289  -51.5406   -9.8595 C.2       1 MOL     0.0752
     10 O         -20.1704  -52.0312   -5.9412 O.2       1 MOL    -0.2507
     11 O         -18.3500  -51.7208   -7.2697 O.3       1 MOL    -0.4254
     12 O         -20.5819  -51.2866  -10.8548 O.co2     1 MOL    -0.5445
     13 O         -19.3781  -52.6827   -9.5463 O.co2     1 MOL    -0.5445
     14 H         -18.9644  -54.2722   -5.3418 H         1 MOL     0.0342
     15 H         -17.3849  -53.4220   -5.5404 H         1 MOL     0.0342
     16 H         -18.1371  -54.2581   -6.9422 H         1 MOL     0.0342
     17 H         -17.7176  -49.4262   -6.1747 H         1 MOL     0.0654
     18 H         -18.3851  -47.1895   -6.9790 H         1 MOL     0.0619
     19 H         -19.8355  -46.9746   -8.9725 H         1 MOL     0.0618
     20 H         -20.5014  -48.9823  -10.2386 H         1 MOL     0.0625
@<TRIPOS>BOND
     1    1    2 1 
     2    1   14 1 
     3    1   15 1 
     4    1   16 1 
     5    2   10 2 
     6    2   11 1 
     7    3    4 ar
     8    3    8 ar
     9    3   11 1 
    10    4    5 ar
    11    4   17 1 
    12    5    6 ar
    13    5   18 1 
    14    6    7 ar
    15    6   19 1 
    16    7    8 ar
    17    7   20 1 
    18    8    9 1 
    19    9   12 ar
    20    9   13 ar
@<TRIPOS>SUBSTRUCTURE
1 MOL         1
@<TRIPOS>MOLECULE
query molecule
   20    20     1     0     0
SMALL
NO_CHARGE

@<TRIPOS>ATOM
      1 C         -54.0083  -49.4054   22.8197 C.3       1 MOL     0.1362
      2 C         -52.8266  -49.9017   22.0092 C.2       1 MOL     0.3092
      3 C         -50.5698  -49.2811   21.9273 C.ar      1 MOL     0.1404
      4 C         -49.8075  -50.4653   21.9591 C.ar      1 MOL     0.0468
      5 C         -48.5138  -50.4801   21.4500 C.ar      1 MOL     0.0037
      6 C         -47.9725  -49.3134   20.9242 C.ar      1 MOL     0.0009
      7 C         -48.7112  -48.1377   20.8959 C.ar      1 MOL     0.0131
      8 C         -50.0367  -48.1062   21.3632 C.ar      1 MOL     0.0397
      9 C         -50.8004  -46.7979   21.1773 C.2       1 MOL     0.0752
     10 O         -52.8666  -50.7179   21.1075 O.2       1 MOL    -0.2507
     11 O         -51.8140  -49.2815   22.4758 O.3       1 MOL    -0.4254
     12 O         -50.1741  -45.8441   20.6066 O.co2     1 MOL    -0.5445
     13 O         -52.0112  -46.7668   21.5556 O.co2     1 MOL    -0.5445
     14 H         -54.9045  -50.0237   22.6108 H         1 MOL     0.0342
     15 H         -54.2326  -48.3497   22.5600 H         1 MOL     0.0342
     16 H         -53.7769  -49.4655   23.9033 H         1 MOL     0.0342
     17 H         -50.2292  -51.3689   22.3748 H         1 MOL     0.0654
     18 H         -47.9334  -51.3908   21.4595 H         1 MOL     0.0619
     19 H         -46.9655  -49.3181   20.5319 H         1 MOL     0.0618
     20 H         -48.2639  -47.2376   20.4977 H         1 MOL     0.0625
@<TRIPOS>BOND
     1    1    2 1 
     2    1   14 1 
     3    1   15 1 
     4    1   16 1 
     5    2   10 2 
     6    2   11 1 
     7    3    4 ar
     8    3    8 ar
     9    3   11 1 
    10    4    5 ar
    11    4   17 1 
    12    5    6 ar
    13    5   18 1 
    14    6    7 ar
    15    6   19 1 
    16    7    8 ar
    17    7   20 1 
    18    8    9 1 
    19    9   12 ar
    20    9   13 ar
@<TRIPOS>SUBSTRUCTURE
1 MOL         1
@<TRIPOS>MOLECULE
query molecule
   20    20     1     0     0
SMALL
NO_CHARGE

@<TRIPOS>ATOM
      1 C         -11.9989  -43.1442    6.4985 C.3       1 MOL     0.1362
      2 C         -11.6409  -44.4632    5.8136 C.2       1 MOL     0.3092
      3 C         -12.2892  -46.7306    6.0457 C.ar      1 MOL     0.1404
      4 C         -11.3004  -47.5346    6.6471 C.ar      1 MOL     0.0468
      5 C         -11.1899  -48.8857    6.3248 C.ar      1 MOL     0.0037
      6 C         -12.0668  -49.4531    5.4026 C.ar      1 MOL     0.0009
      7 C         -13.0606  -48.6716    4.8225 C.ar      1 MOL     0.0131
      8 C         -13.1946  -47.3061    5.1395 C.ar      1 MOL     0.0397
      9 C         -14.3383  -46.5571    4.4817 C.2       1 MOL     0.0752
     10 O         -10.8222  -44.5675    4.9157 O.2       1 MOL    -0.2507
     11 O         -12.3503  -45.4017    6.3782 O.3       1 MOL    -0.4254
     12 O         -14.5984  -45.3946    4.9090 O.co2     1 MOL    -0.5445
     13 O         -14.9694  -47.1553    3.5582 O.co2     1 MOL    -0.5445
     14 H         -11.3800  -42.3179    6.0916 H         1 MOL     0.0342
     15 H         -11.8239  -43.2166    7.5913 H         1 MOL     0.0342
     16 H         -13.0685  -42.9055    6.3237 H         1 MOL     0.0342
     17 H         -10.6191  -47.0973    7.3644 H         1 MOL     0.0654
     18 H         -10.4283  -49.4939    6.7889 H         1 MOL     0.0619
     19 H         -11.9887  -50.4988    5.1447 H         1 MOL     0.0618
     20 H         -13.7543  -49.1177    4.1223 H         1 MOL     0.0625
@<TRIPOS>BOND
     1    1    2 1 
     2    1   14 1 
     3    1   15 1 
     4    1   16 1 
     5    2   10 2 
     6    2   11 1 
     7    3    4 ar
     8    3    8 ar
     9    3   11 1 
    10    4    5 ar
    11    4   17 1 
    12    5    6 ar
    13    5   18 1 
    14    6    7 ar
    15    6   19 1 
    16    7    8 ar
    17    7   20 1 
    18    8    9 1 
    19    9   12 ar
    20    9   13 ar
@<TRIPOS>SUBSTRUCTURE
1 MOL         1
@<TRIPOS>MOLECULE
query molecule
   20    20     1     0     0
SMALL
NO_CHARGE

@<TRIPOS>ATOM
      1 C         -27.9251  -58.4036   27.7337 C.3       1 MOL     0.1362
      2 C         -28.1856  -57.1157   28.5157 C.2       1 MOL     0.3092
      3 C         -27.3127  -58.1433   30.4999 C.ar      1 MOL     0.1404
      4 C         -26.0727  -58.7766   30.3020 C.ar      1 MOL     0.0468
      5 C         -25.6884  -59.8496   31.1030 C.ar      1 MOL     0.0037
      6 C         -26.5289  -60.2838   32.1276 C.ar      1 MOL     0.0009
      7 C         -27.7643  -59.6665   32.3260 C.ar      1 MOL     0.0131
      8 C         -28.1875  -58.6004   31.5070 C.ar      1 MOL     0.0397
      9 C         -29.5808  -58.0309   31.7441 C.2       1 MOL     0.0752
     10 O         -28.8306  -56.1857   28.0324 O.2       1 MOL    -0.2507
     11 O         -27.6666  -57.0857   29.7204 O.3       1 MOL    -0.4254
     12 O         -29.9599  -57.0056   31.1103 O.co2     1 MOL    -0.5445
     13 O         -30.3087  -58.6940   32.5522 O.co2     1 MOL    -0.5445
     14 H         -28.5134  -58.4231   26.7969 H         1 MOL     0.0342
     15 H         -28.1797  -59.2843   28.3542 H         1 MOL     0.0342
     16 H         -26.8417  -58.4303   27.4912 H         1 MOL     0.0342
     17 H         -25.4073  -58.4299   29.5225 H         1 MOL     0.0654
     18 H         -24.7396  -60.3390   30.9401 H         1 MOL     0.0619
     19 H         -26.2196  -61.0943   32.7711 H         1 MOL     0.0618
     20 H         -28.4064  -60.0128   33.1262 H         1 MOL     0.0625
@<TRIPOS>BOND
     1    1    2 1 
     2    1   14 1 
     3    1   15 1 
     4    1   16 1 
     5    2   10 2 
     6    2   11 1 
     7    3    4 ar
     8    3    8 ar
     9    3   11 1 
    10    4    5 ar
    11    4   17 1 
    12    5    6 ar
    13    5   18 1 
    14    6    7 ar
    15    6   19 1 
    16    7    8 ar
    17    7   20 1 
    18    8    9 1 
    19    9   12 ar
    20    9   13 ar
@<TRIPOS>SUBSTRUCTURE
1 MOL         1
@<TRIPOS>MOLECULE
query molecule
   20    20     1     0     0
SMALL
NO_CHARGE

@<TRIPOS>ATOM
      1 C         -18.3328  -43.0446   12.1146 C.3       1 MOL     0.1362
      2 C         -17.5789  -44.3250   12.4211 C.2       1 MOL     0.3092
      3 C         -16.4500  -45.2243   14.2777 C.ar      1 MOL     0.1404
      4 C         -16.8986  -46.5473   14.4413 C.ar      1 MOL     0.0468
      5 C         -16.0567  -47.5132   14.9844 C.ar      1 MOL     0.0037
      6 C         -14.7679  -47.1601   15.3910 C.ar      1 MOL     0.0009
      7 C         -14.3391  -45.8472   15.2883 C.ar      1 MOL     0.0131
      8 C         -15.1672  -44.8598   14.7181 C.ar      1 MOL     0.0397
      9 C         -14.5787  -43.4640   14.6173 C.2       1 MOL     0.0752
     10 O         -17.3031  -45.1924   11.6103 O.2       1 MOL    -0.2507
     11 O         -17.2849  -44.3008   13.6972 O.3       1 MOL    -0.4254
     12 O         -15.1938  -42.5979   13.9280 O.co2     1 MOL    -0.5445
     13 O         -13.4742  -43.2910   15.2268 O.co2     1 MOL    -0.5445
     14 H         -18.7468  -43.0766   11.0874 H         1 MOL     0.0342
     15 H         -17.6389  -42.1812   12.1943 H         1 MOL     0.0342
     16 H         -19.1623  -42.8983   12.8362 H         1 MOL     0.0342
     17 H         -17.8969  -46.8208   14.1315 H         1 MOL     0.0654
     18 H         -16.3945  -48.5334   15.0836 H         1 MOL     0.0619
     19 H         -14.1063  -47.9144   15.7986 H         1 MOL     0.0618
     20 H         -13.3511  -45.5787   15.6380 H         1 MOL     0.0625
@<TRIPOS>BOND
     1    1    2 1 
     2    1   14 1 
     3    1   15 1 
     4    1   16 1 
     5    2   10 2 
     6    2   11 1 
     7    3    4 ar
     8    3    8 ar
     9    3   11 1 
    10    4    5 ar
    11    4   17 1 
    12    5    6 ar
    13    5   18 1 
    14    6    7 ar
    15    6   19 1 
    16    7    8 ar
    17    7   20 1 
    18    8    9 1 
    19    9   12 ar
    20    9   13 ar
@<TRIPOS>SUBSTRUCTURE
1 MOL         1
@<TRIPOS>MOLECULE
query molecule
   20    20     1     0     0
SMALL
NO_CHARGE

@<TRIPOS>ATOM
      1 C         -21.6635  -73.0721   11.1423 C.3       1 MOL     0.1362
      2 C         -20.2304  -73.1249   11.6576 C.2       1 MOL     0.3092
      3 C         -18.1204  -73.8135   10.8283 C.ar      1 MOL     0.1404
      4 C         -17.5193  -74.4865   11.9120 C.ar      1 MOL     0.0468
      5 C         -16.1344  -74.5686   12.0245 C.ar      1 MOL     0.0037
      6 C         -15.3355  -73.9705   11.0544 C.ar      1 MOL     0.0009
      7 C         -15.9132  -73.2962    9.9775 C.ar      1 MOL     0.0131
      8 C         -17.3142  -73.2335    9.8278 C.ar      1 MOL     0.0397
      9 C         -17.8644  -72.5690    8.5717 C.2       1 MOL     0.0752
     10 O         -19.8712  -72.6652   12.7270 O.2       1 MOL    -0.2507
     11 O         -19.4941  -73.7364   10.7622 O.3       1 MOL    -0.4254
     12 O         -19.0937  -72.7195    8.2934 O.co2     1 MOL    -0.5445
     13 O         -17.0350  -71.9139    7.8610 O.co2     1 MOL    -0.5445
     14 H         -22.3342  -72.6871   11.9367 H         1 MOL     0.0342
     15 H         -21.9967  -74.0878   10.8474 H         1 MOL     0.0342
     16 H         -21.7270  -72.4016   10.2608 H         1 MOL     0.0342
     17 H         -18.1422  -74.9425   12.6694 H         1 MOL     0.0654
     18 H         -15.6839  -75.0916   12.8556 H         1 MOL     0.0619
     19 H         -14.2587  -74.0324   11.1399 H         1 MOL     0.0618
     20 H         -15.2696  -72.8291    9.2445 H         1 MOL     0.0625
@<TRIPOS>BOND
     1    1    2 1 
     2    1   14 1 
     3    1   15 1 
     4    1   16 1 
     5    2   10 2 
     6    2   11 1 
     7    3    4 ar
     8    3    8 ar
     9    3   11 1 
    10    4    5 ar
    11    4   17 1 
    12    5    6 ar
    13    5   18 1 
    14    6    7 ar
    15    6   19 1 
    16    7    8 ar
    17    7   20 1 
    18    8    9 1 
    19    9   12 ar
    20    9   13 ar
@<TRIPOS>SUBSTRUCTURE
1 MOL         1
@<TRIPOS>MOLECULE
query molecule
   20    20     1     0     0
SMALL
NO_CHARGE

@<TRIPOS>ATOM
      1 C         -37.0791  -24.3575   17.2473 C.3       1 MOL     0.1362
      2 C         -36.1248  -23.2345   16.8686 C.2       1 MOL     0.3092
      3 C         -33.9502  -22.5378   17.4314 C.ar      1 MOL     0.1404
      4 C         -33.8514  -21.5803   18.4566 C.ar      1 MOL     0.0468
      5 C         -32.8278  -20.6363   18.4558 C.ar      1 MOL     0.0037
      6 C         -31.8856  -20.6408   17.4279 C.ar      1 MOL     0.0009
      7 C         -31.9828  -21.5817   16.4002 C.ar      1 MOL     0.0131
      8 C         -33.0156  -22.5415   16.3901 C.ar      1 MOL     0.0397
      9 C         -33.0622  -23.5212   15.2406 C.2       1 MOL     0.0752
     10 O         -36.4095  -22.3145   16.1221 O.2       1 MOL    -0.2507
     11 O         -34.9831  -23.4429   17.4813 O.3       1 MOL    -0.4254
     12 O         -32.4380  -23.1567   14.1969 O.co2     1 MOL    -0.5445
     13 O         -33.7086  -24.6000   15.3801 O.co2     1 MOL    -0.5445
     14 H         -38.0514  -24.2175   16.7325 H         1 MOL     0.0342
     15 H         -37.2496  -24.3426   18.3442 H         1 MOL     0.0342
     16 H         -36.6531  -25.3395   16.9606 H         1 MOL     0.0342
     17 H         -34.5827  -21.5796   19.2520 H         1 MOL     0.0654
     18 H         -32.7691  -19.9081   19.2508 H         1 MOL     0.0619
     19 H         -31.0881  -19.9129   17.4310 H         1 MOL     0.0618
     20 H         -31.2460  -21.5726   15.6076 H         1 MOL     0.0625
@<TRIPOS>BOND
     1    1    2 1 
     2    1   14 1 
     3    1   15 1 
     4    1   16 1 
     5    2   10 2 
     6    2   11 1 
     7    3    4 ar
     8    3    8 ar
     9    3   11 1 
    10    4    5 ar
    11    4   17 1 
    12    5    6 ar
    13    5   18 1 
    14    6    7 ar
    15    6   19 1 
    16    7    8 ar
    17    7   20 1 
    18    8    9 1 
    19    9   12 ar
    20    9   13 ar
@<TRIPOS>SUBSTRUCTURE
1 MOL         1
@<TRIPOS>MOLECULE
query molecule
   20    20     1     0     0
SMALL
NO_CHARGE

@<TRIPOS>ATOM
      1 C          -5.9332  -77.3199   -0.7136 C.3       1 MOL     0.1362
      2 C          -5.9642  -76.9710    0.7715 C.2       1 MOL     0.3092
      3 C          -7.6131  -76.2758    2.3176 C.ar      1 MOL     0.1404
      4 C          -7.9025  -77.2013    3.3385 C.ar      1 MOL     0.0468
      5 C          -8.3371  -76.7688    4.5923 C.ar      1 MOL     0.0037
      6 C          -8.4906  -75.4063    4.8396 C.ar      1 MOL     0.0009
      7 C          -8.2106  -74.4845    3.8329 C.ar      1 MOL     0.0131
      8 C          -7.7821  -74.9041    2.5592 C.ar      1 MOL     0.0397
      9 C          -7.5366  -73.8282    1.5267 C.2       1 MOL     0.0752
     10 O          -4.9822  -76.9041    1.4854 O.2       1 MOL    -0.2507
     11 O          -7.2031  -76.7410    1.0954 O.3       1 MOL    -0.4254
     12 O          -7.0659  -74.1656    0.4042 O.co2     1 MOL    -0.5445
     13 O          -7.8332  -72.6404    1.8594 O.co2     1 MOL    -0.5445
     14 H          -4.8931  -77.5065   -1.0481 H         1 MOL     0.0342
     15 H          -6.3527  -76.4788   -1.3055 H         1 MOL     0.0342
     16 H          -6.5410  -78.2275   -0.9084 H         1 MOL     0.0342
     17 H          -7.7849  -78.2601    3.1573 H         1 MOL     0.0654
     18 H          -8.5503  -77.4879    5.3704 H         1 MOL     0.0619
     19 H          -8.8286  -75.0690    5.8072 H         1 MOL     0.0618
     20 H          -8.3330  -73.4293    4.0355 H         1 MOL     0.0625
@<TRIPOS>BOND
     1    1    2 1 
     2    1   14 1 
     3    1   15 1 
     4    1   16 1 
     5    2   10 2 
     6    2   11 1 
     7    3    4 ar
     8    3    8 ar
     9    3   11 1 
    10    4    5 ar
    11    4   17 1 
    12    5    6 ar
    13    5   18 1 
    14    6    7 ar
    15    6   19 1 
    16    7    8 ar
    17    7   20 1 
    18    8    9 1 
    19    9   12 ar
    20    9   13 ar
@<TRIPOS>SUBSTRUCTURE
1 MOL         1
@<TRIPOS>MOLECULE
query molecule
   20    20     1     0     0
SMALL
NO_CHARGE

@<TRIPOS>ATOM
      1 C         -25.0813  -40.7737   19.8342 C.3       1 MOL     0.1362
      2 C         -25.1489  -42.2882   19.7009 C.2       1 MOL     0.3092
      3 C         -24.1131  -43.9246   18.3708 C.ar      1 MOL     0.1404
      4 C         -24.7226  -44.1314   17.1178 C.ar      1 MOL     0.0468
      5 C         -24.6534  -45.3626   16.4846 C.ar      1 MOL     0.0037
      6 C         -23.9693  -46.4078   17.0950 C.ar      1 MOL     0.0009
      7 C         -23.3605  -46.2193   18.3364 C.ar      1 MOL     0.0131
      8 C         -23.4343  -44.9739   19.0008 C.ar      1 MOL     0.0397
      9 C         -22.7721  -44.8640   20.3611 C.2       1 MOL     0.0752
     10 O         -25.9853  -42.9997   20.2309 O.2       1 MOL    -0.2507
     11 O         -24.1827  -42.6621   18.9057 O.3       1 MOL    -0.4254
     12 O         -22.6733  -43.7143   20.8824 O.co2     1 MOL    -0.5445
     13 O         -22.3902  -45.9517   20.8902 O.co2     1 MOL    -0.5445
     14 H         -25.9362  -40.3965   20.4309 H         1 MOL     0.0342
     15 H         -25.1418  -40.3154   18.8226 H         1 MOL     0.0342
     16 H         -24.1322  -40.4564   20.3102 H         1 MOL     0.0342
     17 H         -25.2411  -43.3088   16.6467 H         1 MOL     0.0654
     18 H         -25.1257  -45.4975   15.5246 H         1 MOL     0.0619
     19 H         -23.9096  -47.3643   16.5969 H         1 MOL     0.0618
     20 H         -22.8264  -47.0454   18.7888 H         1 MOL     0.0625
@<TRIPOS>BOND
     1    1    2 1 
     2    1   14 1 
     3    1   15 1 
     4    1   16 1 
     5    2   10 2 
     6    2   11 1 
     7    3    4 ar
     8    3    8 ar
     9    3   11 1 
    10    4    5 ar
    11    4   17 1 
    12    5    6 ar
    13    5   18 1 
    14    6    7 ar
    15    6   19 1 
    16    7    8 ar
    17    7   20 1 
    18    8    9 1 
    19    9   12 ar
    20    9   13 ar
@<TRIPOS>SUBSTRUCTURE
1 MOL         1
@<TRIPOS>MOLECULE
query molecule
   20    20     1     0     0
SMALL
NO_CHARGE

@<TRIPOS>ATOM
      1 C         -59.9499  -71.5176    0.6089 C.3       1 MOL     0.1362
      2 C         -60.2153  -71.7024   -0.8843 C.2       1 MOL     0.3092
      3 C         -60.4267  -70.3608   -2.8221 C.ar      1 MOL     0.1404
      4 C         -61.6660  -70.5679   -3.4634 C.ar      1 MOL     0.0468
      5 C         -61.7885  -70.4317   -4.8475 C.ar      1 MOL     0.0037
      6 C         -60.6714  -70.0879   -5.6099 C.ar      1 MOL     0.0009
      7 C         -59.4437  -69.8718   -4.9786 C.ar      1 MOL     0.0131
      8 C         -59.2944  -69.9881   -3.5755 C.ar      1 MOL     0.0397
      9 C         -57.9176  -69.6735   -2.9807 C.2       1 MOL     0.0752
     10 O         -60.2408  -72.7840   -1.4484 O.2       1 MOL    -0.2507
     11 O         -60.3572  -70.5078   -1.4473 O.3       1 MOL    -0.4254
     12 O         -57.7416  -69.8142   -1.7335 O.co2     1 MOL    -0.5445
     13 O         -57.0302  -69.2838   -3.8033 O.co2     1 MOL    -0.5445
     14 H         -59.7981  -72.5080    1.0864 H         1 MOL     0.0342
     15 H         -60.8018  -71.0014    1.0936 H         1 MOL     0.0342
     16 H         -59.0309  -70.9127    0.7553 H         1 MOL     0.0342
     17 H         -62.5360  -70.8356   -2.8784 H         1 MOL     0.0654
     18 H         -62.7422  -70.5944   -5.3280 H         1 MOL     0.0619
     19 H         -60.7606  -69.9890   -6.6832 H         1 MOL     0.0618
     20 H         -58.5832  -69.5998   -5.5781 H         1 MOL     0.0625
@<TRIPOS>BOND
     1    1    2 1 
     2    1   14 1 
     3    1   15 1 
     4    1   16 1 
     5    2   10 2 
     6    2   11 1 
     7    3    4 ar
     8    3    8 ar
     9    3   11 1 
    10    4    5 ar
    11    4   17 1 
    12    5    6 ar
    13    5   18 1 
    14    6    7 ar
    15    6   19 1 
    16    7    8 ar
    17    7   20 1 
    18    8    9 1 
    19    9   12 ar
    20    9   13 ar
@<TRIPOS>SUBSTRUCTURE
1 MOL         1
@<TRIPOS>MOLECULE
query molecule
   20    20     1     0     0
SMALL
NO_CHARGE

@<TRIPOS>ATOM
      1 C         -15.8779  -73.1336    8.9099 C.3       1 MOL     0.1362
      2 C         -16.2289  -72.5404    7.5451 C.2       1 MOL     0.3092
      3 C         -17.7532  -74.3593    7.1111 C.ar      1 MOL     0.1404
      4 C         -17.1977  -75.4850    6.4657 C.ar      1 MOL     0.0468
      5 C         -17.7715  -76.7441    6.5513 C.ar      1 MOL     0.0037
      6 C         -18.9279  -76.9108    7.3228 C.ar      1 MOL     0.0009
      7 C         -19.4892  -75.8136    7.9854 C.ar      1 MOL     0.0131
      8 C         -18.8974  -74.5191    7.8882 C.ar      1 MOL     0.0397
      9 C         -19.6116  -73.4066    8.6526 C.2       1 MOL     0.0752
     10 O         -15.6936  -71.5274    7.1186 O.2       1 MOL    -0.2507
     11 O         -17.1735  -73.1601    6.9038 O.3       1 MOL    -0.4254
     12 O         -19.0975  -72.2512    8.6032 O.co2     1 MOL    -0.5445
     13 O         -20.6760  -73.7229    9.2595 O.co2     1 MOL    -0.5445
     14 H         -14.9290  -72.6781    9.2739 H         1 MOL     0.0342
     15 H         -15.7481  -74.2288    8.8545 H         1 MOL     0.0342
     16 H         -16.6784  -72.8909    9.6401 H         1 MOL     0.0342
     17 H         -16.2965  -75.3297    5.8685 H         1 MOL     0.0654
     18 H         -17.3262  -77.5822    6.0339 H         1 MOL     0.0619
     19 H         -19.3894  -77.8904    7.3927 H         1 MOL     0.0618
     20 H         -20.3681  -75.9624    8.5789 H         1 MOL     0.0625
@<TRIPOS>BOND
     1    1    2 1 
     2    1   14 1 
     3    1   15 1 
     4    1   16 1 
     5    2   10 2 
     6    2   11 1 
     7    3    4 ar
     8    3    8 ar
     9    3   11 1 
    10    4    5 ar
    11    4   17 1 
    12    5    6 ar
    13    5   18 1 
    14    6    7 ar
    15    6   19 1 
    16    7    8 ar
    17    7   20 1 
    18    8    9 1 
    19    9   12 ar
    20    9   13 ar
@<TRIPOS>SUBSTRUCTURE
1 MOL         1
@<TRIPOS>MOLECULE
query molecule
   20    20     1     0     0
SMALL
NO_CHARGE

@<TRIPOS>ATOM
      1 C         -65.1164  -43.6006   17.8535 C.3       1 MOL     0.1362
      2 C         -63.8913  -44.1555   17.1374 C.2       1 MOL     0.3092
      3 C         -63.4378  -45.5177   15.2661 C.ar      1 MOL     0.1404
      4 C         -62.6592  -44.8591   14.2929 C.ar      1 MOL     0.0468
      5 C         -61.7745  -45.5738   13.4879 C.ar      1 MOL     0.0037
      6 C         -61.6678  -46.9552   13.6374 C.ar      1 MOL     0.0009
      7 C         -62.4446  -47.6074   14.5907 C.ar      1 MOL     0.0131
      8 C         -63.3318  -46.9089   15.4272 C.ar      1 MOL     0.0397
      9 C         -64.0767  -47.7018   16.4854 C.2       1 MOL     0.0752
     10 O         -62.7447  -44.0360   17.5337 O.2       1 MOL    -0.2507
     11 O         -64.2985  -44.7739   16.0461 O.3       1 MOL    -0.4254
     12 O         -64.9009  -47.0853   17.2269 O.co2     1 MOL    -0.5445
     13 O         -63.7570  -48.9223   16.6302 O.co2     1 MOL    -0.5445
     14 H         -64.8142  -43.0924   18.7919 H         1 MOL     0.0342
     15 H         -65.8146  -44.4258   18.1036 H         1 MOL     0.0342
     16 H         -65.6428  -42.8716   17.2036 H         1 MOL     0.0342
     17 H         -62.7418  -43.7876   14.1714 H         1 MOL     0.0654
     18 H         -61.1747  -45.0618   12.7503 H         1 MOL     0.0619
     19 H         -60.9904  -47.5175   13.0122 H         1 MOL     0.0618
     20 H         -62.3592  -48.6825   14.6922 H         1 MOL     0.0625
@<TRIPOS>BOND
     1    1    2 1 
     2    1   14 1 
     3    1   15 1 
     4    1   16 1 
     5    2   10 2 
     6    2   11 1 
     7    3    4 ar
     8    3    8 ar
     9    3   11 1 
    10    4    5 ar
    11    4   17 1 
    12    5    6 ar
    13    5   18 1 
    14    6    7 ar
    15    6   19 1 
    16    7    8 ar
    17    7   20 1 
    18    8    9 1 
    19    9   12 ar
    20    9   13 ar
@<TRIPOS>SUBSTRUCTURE
1 MOL         1
@<TRIPOS>MOLECULE
query molecule
   20    20     1     0     0
SMALL
NO_CHARGE

@<TRIPOS>ATOM
      1 C         -48.1105  -61.4116    7.7911 C.3       1 MOL     0.1362
      2 C         -48.0301  -61.2742    9.3042 C.2       1 MOL     0.3092
      3 C         -47.6131  -59.5595   10.8652 C.ar      1 MOL     0.1404
      4 C         -48.8015  -59.2909   11.5717 C.ar      1 MOL     0.0468
      5 C         -48.7680  -58.7527   12.8503 C.ar      1 MOL     0.0037
      6 C         -47.5378  -58.4835   13.4445 C.ar      1 MOL     0.0009
      7 C         -46.3587  -58.7743   12.7654 C.ar      1 MOL     0.0131
      8 C         -46.3730  -59.3266   11.4708 C.ar      1 MOL     0.0397
      9 C         -45.0425  -59.6296   10.8188 C.2       1 MOL     0.0752
     10 O         -48.2517  -62.1713   10.0985 O.2       1 MOL    -0.2507
     11 O         -47.7049  -60.0278    9.5752 O.3       1 MOL    -0.4254
     12 O         -45.0144  -59.8174    9.5689 O.co2     1 MOL    -0.5445
     13 O         -44.0543  -59.6708   11.6112 O.co2     1 MOL    -0.5445
     14 H         -48.5818  -62.3740    7.5102 H         1 MOL     0.0342
     15 H         -47.0865  -61.3658    7.3691 H         1 MOL     0.0342
     16 H         -48.7110  -60.5780    7.3698 H         1 MOL     0.0342
     17 H         -49.7548  -59.5022   11.1058 H         1 MOL     0.0654
     18 H         -49.6871  -58.5471   13.3769 H         1 MOL     0.0619
     19 H         -47.5060  -58.0556   14.4350 H         1 MOL     0.0618
     20 H         -45.4124  -58.5699   13.2490 H         1 MOL     0.0625
@<TRIPOS>BOND
     1    1    2 1 
     2    1   14 1 
     3    1   15 1 
     4    1   16 1 
     5    2   10 2 
     6    2   11 1 
     7    3    4 ar
     8    3    8 ar
     9    3   11 1 
    10    4    5 ar
    11    4   17 1 
    12    5    6 ar
    13    5   18 1 
    14    6    7 ar
    15    6   19 1 
    16    7    8 ar
    17    7   20 1 
    18    8    9 1 
    19    9   12 ar
    20    9   13 ar
@<TRIPOS>SUBSTRUCTURE
1 MOL         1
@<TRIPOS>MOLECULE
query molecule
   20    20     1     0     0
SMALL
NO_CHARGE

@<TRIPOS>ATOM
      1 C         -16.0006  -54.3666  -11.0193 C.3       1 MOL     0.1362
      2 C         -16.1521  -53.5282  -12.2991 C.2       1 MOL     0.3092
      3 C         -18.3205  -54.4222  -12.7626 C.ar      1 MOL     0.1404
      4 C         -18.2244  -55.7075  -13.3422 C.ar      1 MOL     0.0468
      5 C         -19.2870  -56.5996  -13.2854 C.ar      1 MOL     0.0037
      6 C         -20.4679  -56.2326  -12.6489 C.ar      1 MOL     0.0009
      7 C         -20.5822  -54.9597  -12.0896 C.ar      1 MOL     0.0131
      8 C         -19.5111  -54.0270  -12.1387 C.ar      1 MOL     0.0397
      9 C         -19.7583  -52.6493  -11.5386 C.2       1 MOL     0.0752
     10 O         -15.2297  -52.8042  -12.6860 O.2       1 MOL    -0.2507
     11 O         -17.2735  -53.6161  -12.9085 O.3       1 MOL    -0.4254
     12 O         -18.7552  -51.8933  -11.3781 O.co2     1 MOL    -0.5445
     13 O         -20.9562  -52.3610  -11.2643 O.co2     1 MOL    -0.5445
     14 H         -14.9440  -54.2585  -10.6746 H         1 MOL     0.0342
     15 H         -16.2042  -55.4396  -11.1841 H         1 MOL     0.0342
     16 H         -16.6524  -53.9799  -10.2092 H         1 MOL     0.0342
     17 H         -17.3061  -55.9894  -13.8428 H         1 MOL     0.0654
     18 H         -19.1853  -57.5796  -13.7262 H         1 MOL     0.0619
     19 H         -21.2889  -56.9317  -12.5964 H         1 MOL     0.0618
     20 H         -21.5106  -54.6804  -11.6205 H         1 MOL     0.0625
@<TRIPOS>BOND
     1    1    2 1 
     2    1   14 1 
     3    1   15 1 
     4    1   16 1 
     5    2   10 2 
     6    2   11 1 
     7    3    4 ar
     8    3    8 ar
     9    3   11 1 
    10    4    5 ar
    11    4   17 1 
    12    5    6 ar
    13    5   18 1 
    14    6    7 ar
    15    6   19 1 
    16    7    8 ar
    17    7   20 1 
    18    8    9 1 
    19    9   12 ar
    20    9   13 ar
@<TRIPOS>SUBSTRUCTURE
1 MOL         1
@<TRIPOS>MOLECULE
query molecule
   20    20     1     0     0
SMALL
NO_CHARGE

@<TRIPOS>ATOM
      1 C         -33.0295  -31.9908   17.7288 C.3       1 MOL     0.1362
      2 C         -34.0983  -31.3263   16.8713 C.2       1 MOL     0.3092
      3 C         -35.3139  -29.3088   16.8191 C.ar      1 MOL     0.1404
      4 C         -36.6775  -29.6548   16.9233 C.ar      1 MOL     0.0468
      5 C         -37.6659  -28.8388   16.3754 C.ar      1 MOL     0.0037
      6 C         -37.3059  -27.6584   15.7314 C.ar      1 MOL     0.0009
      7 C         -35.9616  -27.3062   15.6354 C.ar      1 MOL     0.0131
      8 C         -34.9444  -28.1229   16.1692 C.ar      1 MOL     0.0397
      9 C         -33.5166  -27.6404   16.0042 C.2       1 MOL     0.0752
     10 O         -34.6017  -31.8411   15.8867 O.2       1 MOL    -0.2507
     11 O         -34.3725  -30.1441   17.3806 O.3       1 MOL    -0.4254
     12 O         -32.5730  -28.3502   16.4645 O.co2     1 MOL    -0.5445
     13 O         -33.3823  -26.5287   15.3982 O.co2     1 MOL    -0.5445
     14 H         -32.7405  -32.9666   17.2871 H         1 MOL     0.0342
     15 H         -33.4124  -32.1606   18.7557 H         1 MOL     0.0342
     16 H         -32.1306  -31.3427   17.7835 H         1 MOL     0.0342
     17 H         -36.9631  -30.5654   17.4334 H         1 MOL     0.0654
     18 H         -38.7063  -29.1165   16.4521 H         1 MOL     0.0619
     19 H         -38.0652  -27.0173   15.3085 H         1 MOL     0.0618
     20 H         -35.6918  -26.3834   15.1369 H         1 MOL     0.0625
@<TRIPOS>BOND
     1    1    2 1 
     2    1   14 1 
     3    1   15 1 
     4    1   16 1 
     5    2   10 2 
     6    2   11 1 
     7    3    4 ar
     8    3    8 ar
     9    3   11 1 
    10    4    5 ar
    11    4   17 1 
    12    5    6 ar
    13    5   18 1 
    14    6    7 ar
    15    6   19 1 
    16    7    8 ar
    17    7   20 1 
    18    8    9 1 
    19    9   12 ar
    20    9   13 ar
@<TRIPOS>SUBSTRUCTURE
1 MOL         1
@<TRIPOS>MOLECULE
query molecule
   20    20     1     0     0
SMALL
NO_CHARGE

@<TRIPOS>ATOM
      1 C         -24.6696  -49.5161   33.4770 C.3       1 MOL     0.1362
      2 C         -24.5383  -50.0664   32.0551 C.2       1 MOL     0.3092
      3 C         -25.1359  -47.9653   31.0780 C.ar      1 MOL     0.1404
      4 C         -26.5081  -47.7390   31.3034 C.ar      1 MOL     0.0468
      5 C         -27.0389  -46.4508   31.2702 C.ar      1 MOL     0.0037
      6 C         -26.2058  -45.3659   31.0019 C.ar      1 MOL     0.0009
      7 C         -24.8445  -45.5756   30.7654 C.ar      1 MOL     0.0131
      8 C         -24.2996  -46.8777   30.7891 C.ar      1 MOL     0.0397
      9 C         -22.8339  -47.0335   30.4671 C.2       1 MOL     0.0752
     10 O         -24.3222  -51.2605   31.8469 O.2       1 MOL    -0.2507
     11 O         -24.6804  -49.2214   31.1073 O.3       1 MOL    -0.4254
     12 O         -22.0996  -46.0256   30.7153 O.co2     1 MOL    -0.5445
     13 O         -22.4635  -48.1414   29.9909 O.co2     1 MOL    -0.5445
     14 H         -24.5767  -50.3533   34.2048 H         1 MOL     0.0342
     15 H         -25.6642  -49.0474   33.6069 H         1 MOL     0.0342
     16 H         -23.8832  -48.7688   33.7013 H         1 MOL     0.0342
     17 H         -27.1555  -48.5795   31.5107 H         1 MOL     0.0654
     18 H         -28.0906  -46.2959   31.4556 H         1 MOL     0.0619
     19 H         -26.6180  -44.3671   30.9708 H         1 MOL     0.0618
     20 H         -24.2117  -44.7251   30.5448 H         1 MOL     0.0625
@<TRIPOS>BOND
     1    1    2 1 
     2    1   14 1 
     3    1   15 1 
     4    1   16 1 
     5    2   10 2 
     6    2   11 1 
     7    3    4 ar
     8    3    8 ar
     9    3   11 1 
    10    4    5 ar
    11    4   17 1 
    12    5    6 ar
    13    5   18 1 
    14    6    7 ar
    15    6   19 1 
    16    7    8 ar
    17    7   20 1 
    18    8    9 1 
    19    9   12 ar
    20    9   13 ar
@<TRIPOS>SUBSTRUCTURE
1 MOL         1
@<TRIPOS>MOLECULE
query molecule
   20    20     1     0     0
SMALL
NO_CHARGE

@<TRIPOS>ATOM
      1 C         -14.2683  -43.4900   -9.8313 C.3       1 MOL     0.1362
      2 C         -12.8142  -43.6954   -9.4305 C.2       1 MOL     0.3092
      3 C         -10.7149  -42.7432   -9.9032 C.ar      1 MOL     0.1404
      4 C         -10.0239  -43.5803  -10.8043 C.ar      1 MOL     0.0468
      5 C          -8.6347  -43.6280  -10.8101 C.ar      1 MOL     0.0037
      6 C          -7.9156  -42.8392   -9.9137 C.ar      1 MOL     0.0009
      7 C          -8.5915  -42.0167   -9.0104 C.ar      1 MOL     0.0131
      8 C         -10.0035  -41.9576   -8.9868 C.ar      1 MOL     0.0397
      9 C         -10.6387  -41.0329   -7.9668 C.2       1 MOL     0.0752
     10 O         -12.4040  -44.6170   -8.7453 O.2       1 MOL    -0.2507
     11 O         -12.0932  -42.7240   -9.9717 O.3       1 MOL    -0.4254
     12 O          -9.8511  -40.4628   -7.1455 O.co2     1 MOL    -0.5445
     13 O         -11.8972  -40.8788   -7.9809 O.co2     1 MOL    -0.5445
     14 H         -14.9160  -44.2800   -9.4014 H         1 MOL     0.0342
     15 H         -14.3482  -43.5331  -10.9388 H         1 MOL     0.0342
     16 H         -14.6292  -42.4984   -9.4912 H         1 MOL     0.0342
     17 H         -10.5879  -44.1918  -11.4955 H         1 MOL     0.0654
     18 H          -8.1250  -44.2717  -11.5106 H         1 MOL     0.0619
     19 H          -6.8362  -42.8698   -9.9271 H         1 MOL     0.0618
     20 H          -8.0173  -41.4093   -8.3240 H         1 MOL     0.0625
@<TRIPOS>BOND
     1    1    2 1 
     2    1   14 1 
     3    1   15 1 
     4    1   16 1 
     5    2   10 2 
     6    2   11 1 
     7    3    4 ar
     8    3    8 ar
     9    3   11 1 
    10    4    5 ar
    11    4   17 1 
    12    5    6 ar
    13    5   18 1 
    14    6    7 ar
    15    6   19 1 
    16    7    8 ar
    17    7   20 1 
    18    8    9 1 
    19    9   12 ar
    20    9   13 ar
@<TRIPOS>SUBSTRUCTURE
1 MOL         1
@<TRIPOS>MOLECULE
query molecule
   20    20     1     0     0
SMALL
NO_CHARGE

@<TRIPOS>ATOM
      1 C         -34.8821  -48.5137  -23.9107 C.3       1 MOL     0.1362
      2 C         -35.9485  -48.9934  -22.9315 C.2       1 MOL     0.3092
      3 C         -36.0600  -50.4778  -21.0911 C.ar      1 MOL     0.1404
      4 C         -37.1629  -51.3283  -21.2875 C.ar      1 MOL     0.0468
      5 C         -37.8438  -51.8806  -20.2015 C.ar      1 MOL     0.0037
      6 C         -37.4301  -51.5752  -18.9040 C.ar      1 MOL     0.0009
      7 C         -36.3370  -50.7317  -18.7025 C.ar      1 MOL     0.0131
      8 C         -35.6172  -50.1841  -19.7876 C.ar      1 MOL     0.0397
      9 C         -34.3848  -49.3485  -19.4706 C.2       1 MOL     0.0752
     10 O         -37.0787  -48.5528  -22.8815 O.2       1 MOL    -0.2507
     11 O         -35.4266  -49.9351  -22.1851 O.3       1 MOL    -0.4254
     12 O         -33.5865  -49.0863  -20.4199 O.co2     1 MOL    -0.5445
     13 O         -34.2117  -49.0321  -18.2538 O.co2     1 MOL    -0.5445
     14 H         -35.3323  -47.8154  -24.6464 H         1 MOL     0.0342
     15 H         -34.4476  -49.3780  -24.4509 H         1 MOL     0.0342
     16 H         -34.0737  -47.9862  -23.3636 H         1 MOL     0.0342
     17 H         -37.4968  -51.5573  -22.2899 H         1 MOL     0.0654
     18 H         -38.6882  -52.5363  -20.3613 H         1 MOL     0.0619
     19 H         -37.9534  -52.0011  -18.0661 H         1 MOL     0.0618
     20 H         -36.0395  -50.5002  -17.6847 H         1 MOL     0.0625
@<TRIPOS>BOND
     1    1    2 1 
     2    1   14 1 
     3    1   15 1 
     4    1   16 1 
     5    2   10 2 
     6    2   11 1 
     7    3    4 ar
     8    3    8 ar
     9    3   11 1 
    10    4    5 ar
    11    4   17 1 
    12    5    6 ar
    13    5   18 1 
    14    6    7 ar
    15    6   19 1 
    16    7    8 ar
    17    7   20 1 
    18    8    9 1 
    19    9   12 ar
    20    9   13 ar
@<TRIPOS>SUBSTRUCTURE
1 MOL         1
@<TRIPOS>MOLECULE
query molecule
   20    20     1     0     0
SMALL
NO_CHARGE

@<TRIPOS>ATOM
      1 C         -11.9590  -35.8198    8.2388 C.3       1 MOL     0.1362
      2 C         -12.4978  -34.4080    8.4293 C.2       1 MOL     0.3092
      3 C         -14.5675  -33.2885    8.5017 C.ar      1 MOL     0.1404
      4 C         -14.4843  -32.1849    7.6315 C.ar      1 MOL     0.0468
      5 C         -15.2042  -31.0214    7.8958 C.ar      1 MOL     0.0037
      6 C         -16.0210  -30.9523    9.0243 C.ar      1 MOL     0.0009
      7 C         -16.1441  -32.0596    9.8630 C.ar      1 MOL     0.0131
      8 C         -15.4380  -33.2493    9.6091 C.ar      1 MOL     0.0397
      9 C         -15.7118  -34.4452   10.5093 C.2       1 MOL     0.0752
     10 O         -11.8078  -33.4442    8.7237 O.2       1 MOL    -0.2507
     11 O         -13.8098  -34.4178    8.2384 O.3       1 MOL    -0.4254
     12 O         -16.7962  -34.4202   11.1749 O.co2     1 MOL    -0.5445
     13 O         -14.8956  -35.4147   10.4857 O.co2     1 MOL    -0.5445
     14 H         -10.8495  -35.8006    8.2346 H         1 MOL     0.0342
     15 H         -12.3191  -36.2567    7.2874 H         1 MOL     0.0342
     16 H         -12.2998  -36.4597    9.0799 H         1 MOL     0.0342
     17 H         -13.8550  -32.2354    6.7534 H         1 MOL     0.0654
     18 H         -15.1286  -30.1729    7.2317 H         1 MOL     0.0619
     19 H         -16.5606  -30.0430    9.2458 H         1 MOL     0.0618
     20 H         -16.7975  -32.0036   10.7229 H         1 MOL     0.0625
@<TRIPOS>BOND
     1    1    2 1 
     2    1   14 1 
     3    1   15 1 
     4    1   16 1 
     5    2   10 2 
     6    2   11 1 
     7    3    4 ar
     8    3    8 ar
     9    3   11 1 
    10    4    5 ar
    11    4   17 1 
    12    5    6 ar
    13    5   18 1 
    14    6    7 ar
    15    6   19 1 
    16    7    8 ar
    17    7   20 1 
    18    8    9 1 
    19    9   12 ar
    20    9   13 ar
@<TRIPOS>SUBSTRUCTURE
1 MOL         1
@<TRIPOS>MOLECULE
query molecule
   20    20     1     0     0
SMALL
NO_CHARGE

@<TRIPOS>ATOM
      1 C          -8.1087  -75.2723    2.1249 C.3       1 MOL     0.1362
      2 C          -7.4648  -74.0024    1.5457 C.2       1 MOL     0.3092
      3 C          -5.9037  -75.2702    0.2492 C.ar      1 MOL     0.1404
      4 C          -5.1765  -76.1135    1.0994 C.ar      1 MOL     0.0468
      5 C          -4.5285  -77.2428    0.6161 C.ar      1 MOL     0.0037
      6 C          -4.5951  -77.5496   -0.7385 C.ar      1 MOL     0.0009
      7 C          -5.3000  -76.7101   -1.6027 C.ar      1 MOL     0.0131
      8 C          -5.9640  -75.5535   -1.1266 C.ar      1 MOL     0.0397
      9 C          -6.6723  -74.7028   -2.1701 C.2       1 MOL     0.0752
     10 O          -7.8846  -72.8873    1.8320 O.2       1 MOL    -0.2507
     11 O          -6.4664  -74.1770    0.7607 O.3       1 MOL    -0.4254
     12 O          -7.4588  -73.7887   -1.7464 O.co2     1 MOL    -0.5445
     13 O          -6.4269  -74.9634   -3.3752 O.co2     1 MOL    -0.5445
     14 H          -8.8745  -74.9579    2.8660 H         1 MOL     0.0342
     15 H          -7.3733  -75.9257    2.6351 H         1 MOL     0.0342
     16 H          -8.6150  -75.8452    1.3246 H         1 MOL     0.0342
     17 H          -5.1159  -75.8646    2.1467 H         1 MOL     0.0654
     18 H          -3.9748  -77.8726    1.2950 H         1 MOL     0.0619
     19 H          -4.0993  -78.4334   -1.1112 H         1 MOL     0.0618
     20 H          -5.3355  -76.9628   -2.6543 H         1 MOL     0.0625
@<TRIPOS>BOND
     1    1    2 1 
     2    1   14 1 
     3    1   15 1 
     4    1   16 1 
     5    2   10 2 
     6    2   11 1 
     7    3    4 ar
     8    3    8 ar
     9    3   11 1 
    10    4    5 ar
    11    4   17 1 
    12    5    6 ar
    13    5   18 1 
    14    6    7 ar
    15    6   19 1 
    16    7    8 ar
    17    7   20 1 
    18    8    9 1 
    19    9   12 ar
    20    9   13 ar
@<TRIPOS>SUBSTRUCTURE
1 MOL         1
@<TRIPOS>MOLECULE
query molecule
   20    20     1     0     0
SMALL
NO_CHARGE

@<TRIPOS>ATOM
      1 C         -27.1389  -33.0640    1.7804 C.3       1 MOL     0.1362
      2 C         -27.3314  -31.8940    2.7414 C.2       1 MOL     0.3092
      3 C         -25.9251  -30.5728    4.1108 C.ar      1 MOL     0.1404
      4 C         -25.9808  -29.2156    3.7597 C.ar      1 MOL     0.0468
      5 C         -25.7414  -28.2185    4.7058 C.ar      1 MOL     0.0037
      6 C         -25.4400  -28.5709    6.0186 C.ar      1 MOL     0.0009
      7 C         -25.3806  -29.9162    6.3782 C.ar      1 MOL     0.0131
      8 C         -25.6064  -30.9370    5.4332 C.ar      1 MOL     0.0397
      9 C         -25.4843  -32.3602    5.9185 C.2       1 MOL     0.0752
     10 O         -28.4114  -31.4346    3.0652 O.2       1 MOL    -0.2507
     11 O         -26.1532  -31.5250    3.1520 O.3       1 MOL    -0.4254
     12 O         -25.7679  -33.2943    5.1139 O.co2     1 MOL    -0.5445
     13 O         -25.0866  -32.5280    7.1082 O.co2     1 MOL    -0.5445
     14 H         -28.1182  -33.4330    1.4163 H         1 MOL     0.0342
     15 H         -26.6157  -33.8954    2.3004 H         1 MOL     0.0342
     16 H         -26.5273  -32.7501    0.9104 H         1 MOL     0.0342
     17 H         -26.2164  -28.9308    2.7416 H         1 MOL     0.0654
     18 H         -25.7942  -27.1762    4.4225 H         1 MOL     0.0619
     19 H         -25.2526  -27.8033    6.7535 H         1 MOL     0.0618
     20 H         -25.1441  -30.1783    7.4010 H         1 MOL     0.0625
@<TRIPOS>BOND
     1    1    2 1 
     2    1   14 1 
     3    1   15 1 
     4    1   16 1 
     5    2   10 2 
     6    2   11 1 
     7    3    4 ar
     8    3    8 ar
     9    3   11 1 
    10    4    5 ar
    11    4   17 1 
    12    5    6 ar
    13    5   18 1 
    14    6    7 ar
    15    6   19 1 
    16    7    8 ar
    17    7   20 1 
    18    8    9 1 
    19    9   12 ar
    20    9   13 ar
@<TRIPOS>SUBSTRUCTURE
1 MOL         1
@<TRIPOS>MOLECULE
query molecule
   20    20     1     0     0
SMALL
NO_CHARGE

@<TRIPOS>ATOM
      1 C         -49.1842  -43.7740  -22.8216 C.3       1 MOL     0.1362
      2 C         -48.7223  -45.2005  -23.1302 C.2       1 MOL     0.3092
      3 C         -47.5348  -46.9193  -22.0283 C.ar      1 MOL     0.1404
      4 C         -46.1624  -46.6935  -21.7702 C.ar      1 MOL     0.0468
      5 C         -45.2359  -47.7305  -21.8633 C.ar      1 MOL     0.0037
      6 C         -45.6639  -49.0034  -22.2327 C.ar      1 MOL     0.0009
      7 C         -47.0138  -49.2319  -22.4753 C.ar      1 MOL     0.0131
      8 C         -47.9709  -48.2057  -22.3346 C.ar      1 MOL     0.0397
      9 C         -49.3954  -48.6529  -22.5155 C.2       1 MOL     0.0752
     10 O         -48.6904  -45.6593  -24.2621 O.2       1 MOL    -0.2507
     11 O         -48.3694  -45.8242  -22.0016 O.3       1 MOL    -0.4254
     12 O         -49.5809  -49.7750  -23.0794 O.co2     1 MOL    -0.5445
     13 O         -50.3034  -47.9060  -22.0639 O.co2     1 MOL    -0.5445
     14 H         -49.2442  -43.1917  -23.7669 H         1 MOL     0.0342
     15 H         -48.4536  -43.2754  -22.1516 H         1 MOL     0.0342
     16 H         -50.1802  -43.7727  -22.3388 H         1 MOL     0.0342
     17 H         -45.8235  -45.7015  -21.5036 H         1 MOL     0.0654
     18 H         -44.1923  -47.5501  -21.6567 H         1 MOL     0.0619
     19 H         -44.9561  -49.8123  -22.3275 H         1 MOL     0.0618
     20 H         -47.3461  -50.2210  -22.7621 H         1 MOL     0.0625
@<TRIPOS>BOND
     1    1    2 1 
     2    1   14 1 
     3    1   15 1 
     4    1   16 1 
     5    2   10 2 
     6    2   11 1 
     7    3    4 ar
     8    3    8 ar
     9    3   11 1 
    10    4    5 ar
    11    4   17 1 
    12    5    6 ar
    13    5   18 1 
    14    6    7 ar
    15    6   19 1 
    16    7    8 ar
    17    7   20 1 
    18    8    9 1 
    19    9   12 ar
    20    9   13 ar
@<TRIPOS>SUBSTRUCTURE
1 MOL         1
@<TRIPOS>MOLECULE
query molecule
   20    20     1     0     0
SMALL
NO_CHARGE

@<TRIPOS>ATOM
      1 C         -27.3020  -24.6268  -11.9850 C.3       1 MOL     0.1362
      2 C         -28.4992  -24.3344  -11.0849 C.2       1 MOL     0.3092
      3 C         -30.6137  -25.2860  -10.6343 C.ar      1 MOL     0.1404
      4 C         -31.6719  -24.3924  -10.8863 C.ar      1 MOL     0.0468
      5 C         -32.8575  -24.4667  -10.1533 C.ar      1 MOL     0.0037
      6 C         -33.0031  -25.4433   -9.1705 C.ar      1 MOL     0.0009
      7 C         -31.9608  -26.3330   -8.9243 C.ar      1 MOL     0.0131
      8 C         -30.7529  -26.2694   -9.6384 C.ar      1 MOL     0.0397
      9 C         -29.6800  -27.2810   -9.2817 C.2       1 MOL     0.0752
     10 O         -28.5260  -23.4501  -10.2466 O.2       1 MOL    -0.2507
     11 O         -29.4537  -25.1902  -11.3708 O.3       1 MOL    -0.4254
     12 O         -29.8919  -28.0253   -8.2738 O.co2     1 MOL    -0.5445
     13 O         -28.6628  -27.3415  -10.0336 O.co2     1 MOL    -0.5445
     14 H         -26.4599  -23.9517  -11.7259 H         1 MOL     0.0342
     15 H         -27.5713  -24.4722  -13.0492 H         1 MOL     0.0342
     16 H         -26.9691  -25.6766  -11.8471 H         1 MOL     0.0342
     17 H         -31.5693  -23.6362  -11.6522 H         1 MOL     0.0654
     18 H         -33.6618  -23.7719  -10.3461 H         1 MOL     0.0619
     19 H         -33.9182  -25.5095   -8.6018 H         1 MOL     0.0618
     20 H         -32.0861  -27.0945   -8.1647 H         1 MOL     0.0625
@<TRIPOS>BOND
     1    1    2 1 
     2    1   14 1 
     3    1   15 1 
     4    1   16 1 
     5    2   10 2 
     6    2   11 1 
     7    3    4 ar
     8    3    8 ar
     9    3   11 1 
    10    4    5 ar
    11    4   17 1 
    12    5    6 ar
    13    5   18 1 
    14    6    7 ar
    15    6   19 1 
    16    7    8 ar
    17    7   20 1 
    18    8    9 1 
    19    9   12 ar
    20    9   13 ar
@<TRIPOS>SUBSTRUCTURE
1 MOL         1
@<TRIPOS>MOLECULE
query molecule
   20    20     1     0     0
SMALL
NO_CHARGE

@<TRIPOS>ATOM
      1 C         -20.8282  -71.3136   -2.2792 C.3       1 MOL     0.1362
      2 C         -20.3441  -72.4411   -1.3585 C.2       1 MOL     0.3092
      3 C         -18.3675  -71.1625   -0.8521 C.ar      1 MOL     0.1404
      4 C         -17.3391  -71.1423   -1.8141 C.ar      1 MOL     0.0468
      5 C         -16.4847  -70.0455   -1.9201 C.ar      1 MOL     0.0037
      6 C         -16.6633  -68.9490   -1.0785 C.ar      1 MOL     0.0009
      7 C         -17.6879  -68.9623   -0.1267 C.ar      1 MOL     0.0131
      8 C         -18.5307  -70.0756    0.0087 C.ar      1 MOL     0.0397
      9 C         -19.5886  -70.0507    1.0991 C.2       1 MOL     0.0752
     10 O         -21.0296  -73.4329   -1.1396 O.2       1 MOL    -0.2507
     11 O         -19.1784  -72.2512   -0.7955 O.3       1 MOL    -0.4254
     12 O         -20.1626  -71.1520    1.3573 O.co2     1 MOL    -0.5445
     13 O         -19.8316  -68.9385    1.6687 O.co2     1 MOL    -0.5445
     14 H         -21.7950  -71.6075   -2.7340 H         1 MOL     0.0342
     15 H         -20.0888  -71.1299   -3.0812 H         1 MOL     0.0342
     16 H         -20.9755  -70.3830   -1.6931 H         1 MOL     0.0342
     17 H         -17.2070  -71.9872   -2.4813 H         1 MOL     0.0654
     18 H         -15.6930  -70.0439   -2.6540 H         1 MOL     0.0619
     19 H         -16.0051  -68.0937   -1.1632 H         1 MOL     0.0618
     20 H         -17.8140  -68.1032    0.5169 H         1 MOL     0.0625
@<TRIPOS>BOND
     1    1    2 1 
     2    1   14 1 
     3    1   15 1 
     4    1   16 1 
     5    2   10 2 
     6    2   11 1 
     7    3    4 ar
     8    3    8 ar
     9    3   11 1 
    10    4    5 ar
    11    4   17 1 
    12    5    6 ar
    13    5   18 1 
    14    6    7 ar
    15    6   19 1 
    16    7    8 ar
    17    7   20 1 
    18    8    9 1 
    19    9   12 ar
    20    9   13 ar
@<TRIPOS>SUBSTRUCTURE
1 MOL         1
@<TRIPOS>MOLECULE
query molecule
   20    20     1     0     0
SMALL
NO_CHARGE

@<TRIPOS>ATOM
      1 C          -4.0808  -37.7167    6.3985 C.3       1 MOL     0.1362
      2 C          -3.4420  -39.0405    5.9934 C.2       1 MOL     0.3092
      3 C          -4.1501  -41.2427    5.5630 C.ar      1 MOL     0.1404
      4 C          -3.2037  -42.1077    6.1396 C.ar      1 MOL     0.0468
      5 C          -2.9794  -43.3764    5.6076 C.ar      1 MOL     0.0037
      6 C          -3.7143  -43.8079    4.5066 C.ar      1 MOL     0.0009
      7 C          -4.6769  -42.9673    3.9511 C.ar      1 MOL     0.0131
      8 C          -4.9042  -41.6698    4.4575 C.ar      1 MOL     0.0397
      9 C          -5.9586  -40.8256    3.7686 C.2       1 MOL     0.0752
     10 O          -2.2893  -39.1576    5.6114 O.2       1 MOL    -0.2507
     11 O          -4.3400  -39.9892    6.1036 O.3       1 MOL    -0.4254
     12 O          -6.1268  -39.6257    4.1239 O.co2     1 MOL    -0.5445
     13 O          -6.5948  -41.4284    2.8526 O.co2     1 MOL    -0.5445
     14 H          -3.3102  -36.9181    6.4299 H         1 MOL     0.0342
     15 H          -4.5625  -37.7891    7.3933 H         1 MOL     0.0342
     16 H          -4.8495  -37.4357    5.6469 H         1 MOL     0.0342
     17 H          -2.6390  -41.7799    7.0018 H         1 MOL     0.0654
     18 H          -2.2346  -44.0213    6.0491 H         1 MOL     0.0619
     19 H          -3.5349  -44.7870    4.0879 H         1 MOL     0.0618
     20 H          -5.2526  -43.3175    3.1034 H         1 MOL     0.0625
@<TRIPOS>BOND
     1    1    2 1 
     2    1   14 1 
     3    1   15 1 
     4    1   16 1 
     5    2   10 2 
     6    2   11 1 
     7    3    4 ar
     8    3    8 ar
     9    3   11 1 
    10    4    5 ar
    11    4   17 1 
    12    5    6 ar
    13    5   18 1 
    14    6    7 ar
    15    6   19 1 
    16    7    8 ar
    17    7   20 1 
    18    8    9 1 
    19    9   12 ar
    20    9   13 ar
@<TRIPOS>SUBSTRUCTURE
1 MOL         1
@<TRIPOS>MOLECULE
query molecule
   20    20     1     0     0
SMALL
NO_CHARGE

@<TRIPOS>ATOM
      1 C          -3.3384  -56.1223   -9.0028 C.3       1 MOL     0.1362
      2 C          -4.1015  -54.8228   -8.7965 C.2       1 MOL     0.3092
      3 C          -3.8049  -52.5191   -9.0963 C.ar      1 MOL     0.1404
      4 C          -4.8000  -52.0051   -9.9464 C.ar      1 MOL     0.0468
      5 C          -5.2436  -50.6910   -9.8055 C.ar      1 MOL     0.0037
      6 C          -4.6965  -49.8760   -8.8159 C.ar      1 MOL     0.0009
      7 C          -3.7045  -50.3812   -7.9746 C.ar      1 MOL     0.0131
      8 C          -3.2483  -51.7094   -8.0959 C.ar      1 MOL     0.0397
      9 C          -2.1719  -52.1809   -7.1372 C.2       1 MOL     0.0752
     10 O          -5.1979  -54.7295   -8.2678 O.2       1 MOL    -0.2507
     11 O          -3.3733  -53.8220   -9.2755 O.3       1 MOL    -0.4254
     12 O          -1.8356  -53.4078   -7.1276 O.co2     1 MOL    -0.5445
     13 O          -1.6734  -51.2862   -6.3922 O.co2     1 MOL    -0.5445
     14 H          -3.9895  -56.9932   -8.7887 H         1 MOL     0.0342
     15 H          -2.4603  -56.1568   -8.3252 H         1 MOL     0.0342
     16 H          -2.9795  -56.1901  -10.0507 H         1 MOL     0.0342
     17 H          -5.2222  -52.6364  -10.7145 H         1 MOL     0.0654
     18 H          -6.0100  -50.3095  -10.4642 H         1 MOL     0.0619
     19 H          -5.0399  -48.8578   -8.7069 H         1 MOL     0.0618
     20 H          -3.2802  -49.7365   -7.2156 H         1 MOL     0.0625
@<TRIPOS>BOND
     1    1    2 1 
     2    1   14 1 
     3    1   15 1 
     4    1   16 1 
     5    2   10 2 
     6    2   11 1 
     7    3    4 ar
     8    3    8 ar
     9    3   11 1 
    10    4    5 ar
    11    4   17 1 
    12    5    6 ar
    13    5   18 1 
    14    6    7 ar
    15    6   19 1 
    16    7    8 ar
    17    7   20 1 
    18    8    9 1 
    19    9   12 ar
    20    9   13 ar
@<TRIPOS>SUBSTRUCTURE
1 MOL         1
@<TRIPOS>MOLECULE
query molecule
   20    20     1     0     0
SMALL
NO_CHARGE

@<TRIPOS>ATOM
      1 C         -25.8096  -59.8084   34.4150 C.3       1 MOL     0.1362
      2 C         -26.0156  -58.8702   33.2334 C.2       1 MOL     0.3092
      3 C         -26.9847  -58.9393   31.0959 C.ar      1 MOL     0.1404
      4 C         -26.0191  -58.9970   30.0787 C.ar      1 MOL     0.0468
      5 C         -26.2623  -58.4040   28.8446 C.ar      1 MOL     0.0037
      6 C         -27.4568  -57.7343   28.6121 C.ar      1 MOL     0.0009
      7 C         -28.4184  -57.6834   29.6146 C.ar      1 MOL     0.0131
      8 C         -28.2118  -58.3011   30.8650 C.ar      1 MOL     0.0397
      9 C         -29.3587  -58.2825   31.8639 C.2       1 MOL     0.0752
     10 O         -25.5997  -57.7260   33.1778 O.2       1 MOL    -0.2507
     11 O         -26.6952  -59.5247   32.3092 O.3       1 MOL    -0.4254
     12 O         -30.4001  -57.6560   31.4866 O.co2     1 MOL    -0.5445
     13 O         -29.2497  -58.9728   32.9196 O.co2     1 MOL    -0.5445
     14 H         -25.2864  -59.2892   35.2430 H         1 MOL     0.0342
     15 H         -25.1968  -60.6785   34.0987 H         1 MOL     0.0342
     16 H         -26.7883  -60.1784   34.7815 H         1 MOL     0.0342
     17 H         -25.0814  -59.5042   30.2559 H         1 MOL     0.0654
     18 H         -25.5120  -58.4621   28.0686 H         1 MOL     0.0619
     19 H         -27.6226  -57.2531   27.6591 H         1 MOL     0.0618
     20 H         -29.3482  -57.1681   29.4153 H         1 MOL     0.0625
@<TRIPOS>BOND
     1    1    2 1 
     2    1   14 1 
     3    1   15 1 
     4    1   16 1 
     5    2   10 2 
     6    2   11 1 
     7    3    4 ar
     8    3    8 ar
     9    3   11 1 
    10    4    5 ar
    11    4   17 1 
    12    5    6 ar
    13    5   18 1 
    14    6    7 ar
    15    6   19 1 
    16    7    8 ar
    17    7   20 1 
    18    8    9 1 
    19    9   12 ar
    20    9   13 ar
@<TRIPOS>SUBSTRUCTURE
1 MOL         1
@<TRIPOS>MOLECULE
query molecule
   20    20     1     0     0
SMALL
NO_CHARGE

@<TRIPOS>ATOM
      1 C          -1.3798  -42.1698    5.6869 C.3       1 MOL     0.1362
      2 C          -2.1795  -43.1545    4.8424 C.2       1 MOL     0.3092
      3 C          -4.2761  -44.2473    4.9961 C.ar      1 MOL     0.1404
      4 C          -4.3002  -45.6480    5.1572 C.ar      1 MOL     0.0468
      5 C          -5.3285  -46.4136    4.6150 C.ar      1 MOL     0.0037
      6 C          -6.3416  -45.7835    3.8986 C.ar      1 MOL     0.0009
      7 C          -6.3315  -44.3987    3.7252 C.ar      1 MOL     0.0131
      8 C          -5.3174  -43.6031    4.2976 C.ar      1 MOL     0.0397
      9 C          -5.4340  -42.0907    4.1505 C.2       1 MOL     0.0752
     10 O          -1.8604  -43.5105    3.7221 O.2       1 MOL    -0.2507
     11 O          -3.2313  -43.5261    5.5305 O.3       1 MOL    -0.4254
     12 O          -4.6585  -41.3523    4.8320 O.co2     1 MOL    -0.5445
     13 O          -6.3319  -41.6612    3.3560 O.co2     1 MOL    -0.5445
     14 H          -0.4144  -41.9463    5.1896 H         1 MOL     0.0342
     15 H          -1.1800  -42.6050    6.6871 H         1 MOL     0.0342
     16 H          -1.9481  -41.2253    5.8116 H         1 MOL     0.0342
     17 H          -3.5067  -46.1363    5.7064 H         1 MOL     0.0654
     18 H          -5.3406  -47.4855    4.7491 H         1 MOL     0.0619
     19 H          -7.1419  -46.3764    3.4755 H         1 MOL     0.0618
     20 H          -7.1240  -43.9355    3.1530 H         1 MOL     0.0625
@<TRIPOS>BOND
     1    1    2 1 
     2    1   14 1 
     3    1   15 1 
     4    1   16 1 
     5    2   10 2 
     6    2   11 1 
     7    3    4 ar
     8    3    8 ar
     9    3   11 1 
    10    4    5 ar
    11    4   17 1 
    12    5    6 ar
    13    5   18 1 
    14    6    7 ar
    15    6   19 1 
    16    7    8 ar
    17    7   20 1 
    18    8    9 1 
    19    9   12 ar
    20    9   13 ar
@<TRIPOS>SUBSTRUCTURE
1 MOL         1
@<TRIPOS>MOLECULE
query molecule
   20    20     1     0     0
SMALL
NO_CHARGE

@<TRIPOS>ATOM
      1 C         -60.0104  -69.1303   10.2216 C.3       1 MOL     0.1362
      2 C         -59.5439  -67.7198   10.5743 C.2       1 MOL     0.3092
      3 C         -60.0449  -66.0321   12.1617 C.ar      1 MOL     0.1404
      4 C         -59.1390  -65.9634   13.2397 C.ar      1 MOL     0.0468
      5 C         -58.8759  -64.7463   13.8701 C.ar      1 MOL     0.0037
      6 C         -59.5127  -63.5839   13.4343 C.ar      1 MOL     0.0009
      7 C         -60.4059  -63.6430   12.3674 C.ar      1 MOL     0.0131
      8 C         -60.6781  -64.8606   11.7174 C.ar      1 MOL     0.0397
      9 C         -61.6453  -64.8075   10.5594 C.2       1 MOL     0.0752
     10 O         -58.6646  -67.1205    9.9852 O.2       1 MOL    -0.2507
     11 O         -60.2794  -67.2631   11.5813 O.3       1 MOL    -0.4254
     12 O         -62.1372  -65.9020   10.1394 O.co2     1 MOL    -0.5445
     13 O         -61.9187  -63.6568   10.1134 O.co2     1 MOL    -0.5445
     14 H         -59.3988  -69.5413    9.3917 H         1 MOL     0.0342
     15 H         -61.0724  -69.1044    9.9003 H         1 MOL     0.0342
     16 H         -59.9186  -69.8010   11.0998 H         1 MOL     0.0342
     17 H         -58.6444  -66.8630   13.5792 H         1 MOL     0.0654
     18 H         -58.1801  -64.7044   14.6943 H         1 MOL     0.0619
     19 H         -59.3174  -62.6403   13.9203 H         1 MOL     0.0618
     20 H         -60.9062  -62.7434   12.0339 H         1 MOL     0.0625
@<TRIPOS>BOND
     1    1    2 1 
     2    1   14 1 
     3    1   15 1 
     4    1   16 1 
     5    2   10 2 
     6    2   11 1 
     7    3    4 ar
     8    3    8 ar
     9    3   11 1 
    10    4    5 ar
    11    4   17 1 
    12    5    6 ar
    13    5   18 1 
    14    6    7 ar
    15    6   19 1 
    16    7    8 ar
    17    7   20 1 
    18    8    9 1 
    19    9   12 ar
    20    9   13 ar
@<TRIPOS>SUBSTRUCTURE
1 MOL         1
@<TRIPOS>MOLECULE
query molecule
   20    20     1     0     0
SMALL
NO_CHARGE

@<TRIPOS>ATOM
      1 C         -24.2240  -32.8096   -7.3815 C.3       1 MOL     0.1362
      2 C         -24.6010  -31.4812   -6.7359 C.2       1 MOL     0.3092
      3 C         -23.8263  -30.2552   -4.8806 C.ar      1 MOL     0.1404
      4 C         -24.6454  -30.2807   -3.7339 C.ar      1 MOL     0.0468
      5 C         -24.7069  -29.1794   -2.8800 C.ar      1 MOL     0.0037
      6 C         -23.9501  -28.0427   -3.1549 C.ar      1 MOL     0.0009
      7 C         -23.1184  -28.0230   -4.2725 C.ar      1 MOL     0.0131
      8 C         -23.0321  -29.1314   -5.1384 C.ar      1 MOL     0.0397
      9 C         -22.0501  -29.0292   -6.2931 C.2       1 MOL     0.0752
     10 O         -25.4583  -30.7283   -7.1442 O.2       1 MOL    -0.2507
     11 O         -23.8227  -31.3417   -5.7078 O.3       1 MOL    -0.4254
     12 O         -21.7805  -30.0821   -6.9454 O.co2     1 MOL    -0.5445
     13 O         -21.5574  -27.8781   -6.5012 O.co2     1 MOL    -0.5445
     14 H         -25.0029  -33.1279   -8.1029 H         1 MOL     0.0342
     15 H         -24.0934  -33.6025   -6.6158 H         1 MOL     0.0342
     16 H         -23.2651  -32.6789   -7.9234 H         1 MOL     0.0342
     17 H         -25.2411  -31.1560   -3.5141 H         1 MOL     0.0654
     18 H         -25.3382  -29.2028   -2.0049 H         1 MOL     0.0619
     19 H         -23.9990  -27.1835   -2.5034 H         1 MOL     0.0618
     20 H         -22.5185  -27.1449   -4.4750 H         1 MOL     0.0625
@<TRIPOS>BOND
     1    1    2 1 
     2    1   14 1 
     3    1   15 1 
     4    1   16 1 
     5    2   10 2 
     6    2   11 1 
     7    3    4 ar
     8    3    8 ar
     9    3   11 1 
    10    4    5 ar
    11    4   17 1 
    12    5    6 ar
    13    5   18 1 
    14    6    7 ar
    15    6   19 1 
    16    7    8 ar
    17    7   20 1 
    18    8    9 1 
    19    9   12 ar
    20    9   13 ar
@<TRIPOS>SUBSTRUCTURE
1 MOL         1
@<TRIPOS>MOLECULE
query molecule
   20    20     1     0     0
SMALL
NO_CHARGE

@<TRIPOS>ATOM
      1 C         -29.5304  -25.7658  -10.5561 C.3       1 MOL     0.1362
      2 C         -30.3677  -27.0116  -10.3325 C.2       1 MOL     0.3092
      3 C         -32.2410  -27.9961  -11.3754 C.ar      1 MOL     0.1404
      4 C         -33.3822  -27.5267  -10.6989 C.ar      1 MOL     0.0468
      5 C         -34.5397  -28.2889  -10.6362 C.ar      1 MOL     0.0037
      6 C         -34.5766  -29.5313  -11.2577 C.ar      1 MOL     0.0009
      7 C         -33.4519  -30.0167  -11.9294 C.ar      1 MOL     0.0131
      8 C         -32.2699  -29.2498  -12.0029 C.ar      1 MOL     0.0397
      9 C         -31.0932  -29.8401  -12.7645 C.2       1 MOL     0.0752
     10 O         -30.3277  -27.6929   -9.3272 O.2       1 MOL    -0.2507
     11 O         -31.1192  -27.1986  -11.3914 O.3       1 MOL    -0.4254
     12 O         -31.0904  -31.1039  -12.8454 O.co2     1 MOL    -0.5445
     13 O         -30.1702  -29.0600  -13.1268 O.co2     1 MOL    -0.5445
     14 H         -28.8787  -25.5910   -9.6750 H         1 MOL     0.0342
     15 H         -30.1976  -24.8904  -10.6906 H         1 MOL     0.0342
     16 H         -28.8975  -25.8859  -11.4577 H         1 MOL     0.0342
     17 H         -33.3371  -26.5600  -10.2167 H         1 MOL     0.0654
     18 H         -35.3977  -27.9075  -10.1056 H         1 MOL     0.0619
     19 H         -35.4823  -30.1201  -11.2158 H         1 MOL     0.0618
     20 H         -33.4984  -30.9851  -12.4083 H         1 MOL     0.0625
@<TRIPOS>BOND
     1    1    2 1 
     2    1   14 1 
     3    1   15 1 
     4    1   16 1 
     5    2   10 2 
     6    2   11 1 
     7    3    4 ar
     8    3    8 ar
     9    3   11 1 
    10    4    5 ar
    11    4   17 1 
    12    5    6 ar
    13    5   18 1 
    14    6    7 ar
    15    6   19 1 
    16    7    8 ar
    17    7   20 1 
    18    8    9 1 
    19    9   12 ar
    20    9   13 ar
@<TRIPOS>SUBSTRUCTURE
1 MOL         1
@<TRIPOS>MOLECULE
query molecule
   20    20     1     0     0
SMALL
NO_CHARGE

@<TRIPOS>ATOM
      1 C          -5.6664  -44.2531    3.4982 C.3       1 MOL     0.1362
      2 C          -5.8446  -42.7429    3.6135 C.2       1 MOL     0.3092
      3 C          -5.4231  -41.0966    5.2443 C.ar      1 MOL     0.1404
      4 C          -6.6516  -40.5101    5.6120 C.ar      1 MOL     0.0468
      5 C          -6.7008  -39.2242    6.1380 C.ar      1 MOL     0.0037
      6 C          -5.5193  -38.5123    6.3255 C.ar      1 MOL     0.0009
      7 C          -4.2957  -39.0803    5.9660 C.ar      1 MOL     0.0131
      8 C          -4.2335  -40.3683    5.3848 C.ar      1 MOL     0.0397
      9 C          -2.8675  -40.8609    4.9406 C.2       1 MOL     0.0752
     10 O          -6.3322  -42.0231    2.7600 O.2       1 MOL    -0.2507
     11 O          -5.4272  -42.3931    4.7969 O.3       1 MOL    -0.4254
     12 O          -1.9150  -40.0436    5.1101 O.co2     1 MOL    -0.5445
     13 O          -2.7787  -42.0024    4.4155 O.co2     1 MOL    -0.5445
     14 H          -5.9815  -44.5998    2.4934 H         1 MOL     0.0342
     15 H          -6.2885  -44.7640    4.2628 H         1 MOL     0.0342
     16 H          -4.6050  -44.5292    3.6583 H         1 MOL     0.0342
     17 H          -7.5664  -41.0732    5.4836 H         1 MOL     0.0654
     18 H          -7.6521  -38.7872    6.4022 H         1 MOL     0.0619
     19 H          -5.5519  -37.5203    6.7454 H         1 MOL     0.0618
     20 H          -3.3842  -38.5203    6.1275 H         1 MOL     0.0625
@<TRIPOS>BOND
     1    1    2 1 
     2    1   14 1 
     3    1   15 1 
     4    1   16 1 
     5    2   10 2 
     6    2   11 1 
     7    3    4 ar
     8    3    8 ar
     9    3   11 1 
    10    4    5 ar
    11    4   17 1 
    12    5    6 ar
    13    5   18 1 
    14    6    7 ar
    15    6   19 1 
    16    7    8 ar
    17    7   20 1 
    18    8    9 1 
    19    9   12 ar
    20    9   13 ar
@<TRIPOS>SUBSTRUCTURE
1 MOL         1
@<TRIPOS>MOLECULE
query molecule
   20    20     1     0     0
SMALL
NO_CHARGE

@<TRIPOS>ATOM
      1 C         -68.0371  -60.2465    5.3256 C.3       1 MOL     0.1362
      2 C         -67.0017  -61.3494    5.5093 C.2       1 MOL     0.3092
      3 C         -66.7638  -63.2532    6.8922 C.ar      1 MOL     0.1404
      4 C         -65.5408  -63.0792    7.5671 C.ar      1 MOL     0.0468
      5 C         -64.8391  -64.1726    8.0722 C.ar      1 MOL     0.0037
      6 C         -65.3633  -65.4557    7.9314 C.ar      1 MOL     0.0009
      7 C         -66.5855  -65.6380    7.2842 C.ar      1 MOL     0.0131
      8 C         -67.2945  -64.5487    6.7375 C.ar      1 MOL     0.0397
      9 C         -68.5823  -64.8491    5.9855 C.2       1 MOL     0.0752
     10 O         -65.9531  -61.4080    4.8930 O.2       1 MOL    -0.2507
     11 O         -67.4262  -62.1573    6.4175 O.3       1 MOL    -0.4254
     12 O         -68.9523  -66.0646    5.9458 O.co2     1 MOL    -0.5445
     13 O         -69.1783  -63.8825    5.4226 O.co2     1 MOL    -0.5445
     14 H         -67.6806  -59.5113    4.5756 H         1 MOL     0.0342
     15 H         -68.2068  -59.7223    6.2892 H         1 MOL     0.0342
     16 H         -68.9962  -60.6797    4.9779 H         1 MOL     0.0342
     17 H         -65.1352  -62.0841    7.6898 H         1 MOL     0.0654
     18 H         -63.8924  -64.0265    8.5716 H         1 MOL     0.0619
     19 H         -64.8240  -66.3054    8.3243 H         1 MOL     0.0618
     20 H         -66.9905  -66.6380    7.1982 H         1 MOL     0.0625
@<TRIPOS>BOND
     1    1    2 1 
     2    1   14 1 
     3    1   15 1 
     4    1   16 1 
     5    2   10 2 
     6    2   11 1 
     7    3    4 ar
     8    3    8 ar
     9    3   11 1 
    10    4    5 ar
    11    4   17 1 
    12    5    6 ar
    13    5   18 1 
    14    6    7 ar
    15    6   19 1 
    16    7    8 ar
    17    7   20 1 
    18    8    9 1 
    19    9   12 ar
    20    9   13 ar
@<TRIPOS>SUBSTRUCTURE
1 MOL         1
@<TRIPOS>MOLECULE
query molecule
   20    20     1     0     0
SMALL
NO_CHARGE

@<TRIPOS>ATOM
      1 C         -67.3698  -59.1347  -12.9833 C.3       1 MOL     0.1362
      2 C         -67.3413  -59.2655  -14.5052 C.2       1 MOL     0.3092
      3 C         -66.1106  -58.4220  -16.3419 C.ar      1 MOL     0.1404
      4 C         -66.8710  -57.5688  -17.1689 C.ar      1 MOL     0.0468
      5 C         -66.6203  -57.4893  -18.5402 C.ar      1 MOL     0.0037
      6 C         -65.6058  -58.2643  -19.1036 C.ar      1 MOL     0.0009
      7 C         -64.8431  -59.1035  -18.2874 C.ar      1 MOL     0.0131
      8 C         -65.0653  -59.1924  -16.8920 C.ar      1 MOL     0.0397
      9 C         -64.1338  -60.1006  -16.0821 C.2       1 MOL     0.0752
     10 O         -68.0512  -60.0262  -15.1423 O.2       1 MOL    -0.2507
     11 O         -66.3981  -58.4649  -14.9884 O.3       1 MOL    -0.4254
     12 O         -64.3348  -60.2322  -14.8377 O.co2     1 MOL    -0.5445
     13 O         -63.2033  -60.6697  -16.7350 O.co2     1 MOL    -0.5445
     14 H         -68.1332  -59.8226  -12.5637 H         1 MOL     0.0342
     15 H         -67.6090  -58.0943  -12.6876 H         1 MOL     0.0342
     16 H         -66.3800  -59.4106  -12.5636 H         1 MOL     0.0342
     17 H         -67.6598  -56.9659  -16.7387 H         1 MOL     0.0654
     18 H         -67.2102  -56.8336  -19.1640 H         1 MOL     0.0619
     19 H         -65.4138  -58.2112  -20.1666 H         1 MOL     0.0618
     20 H         -64.0539  -59.6973  -18.7328 H         1 MOL     0.0625
@<TRIPOS>BOND
     1    1    2 1 
     2    1   14 1 
     3    1   15 1 
     4    1   16 1 
     5    2   10 2 
     6    2   11 1 
     7    3    4 ar
     8    3    8 ar
     9    3   11 1 
    10    4    5 ar
    11    4   17 1 
    12    5    6 ar
    13    5   18 1 
    14    6    7 ar
    15    6   19 1 
    16    7    8 ar
    17    7   20 1 
    18    8    9 1 
    19    9   12 ar
    20    9   13 ar
@<TRIPOS>SUBSTRUCTURE
1 MOL         1
@<TRIPOS>MOLECULE
query molecule
   20    20     1     0     0
SMALL
NO_CHARGE

@<TRIPOS>ATOM
      1 C         -10.9437  -71.8674   15.3028 C.3       1 MOL     0.1362
      2 C         -11.6800  -70.9614   16.2795 C.2       1 MOL     0.3092
      3 C         -11.2522  -69.8896   18.3423 C.ar      1 MOL     0.1404
      4 C         -10.5471  -68.6694   18.3823 C.ar      1 MOL     0.0468
      5 C         -10.8430  -67.7085   19.3502 C.ar      1 MOL     0.0037
      6 C         -11.8559  -67.9510   20.2796 C.ar      1 MOL     0.0009
      7 C         -12.5705  -69.1496   20.2358 C.ar      1 MOL     0.0131
      8 C         -12.2708  -70.1361   19.2763 C.ar      1 MOL     0.0397
      9 C         -13.0777  -71.4152   19.3109 C.2       1 MOL     0.0752
     10 O         -12.7878  -70.4902   16.0899 O.2       1 MOL    -0.2507
     11 O         -10.9228  -70.8034   17.3599 O.3       1 MOL    -0.4254
     12 O         -14.2145  -71.3709   19.8742 O.co2     1 MOL    -0.5445
     13 O         -12.5666  -72.4327   18.7567 O.co2     1 MOL    -0.5445
     14 H         -11.5460  -72.0054   14.3811 H         1 MOL     0.0342
     15 H         -10.7662  -72.8603   15.7658 H         1 MOL     0.0342
     16 H          -9.9647  -71.4199   15.0289 H         1 MOL     0.0342
     17 H          -9.7729  -68.4724   17.6540 H         1 MOL     0.0654
     18 H         -10.2951  -66.7787   19.3763 H         1 MOL     0.0619
     19 H         -12.0835  -67.2139   21.0353 H         1 MOL     0.0618
     20 H         -13.3553  -69.3288   20.9561 H         1 MOL     0.0625
@<TRIPOS>BOND
     1    1    2 1 
     2    1   14 1 
     3    1   15 1 
     4    1   16 1 
     5    2   10 2 
     6    2   11 1 
     7    3    4 ar
     8    3    8 ar
     9    3   11 1 
    10    4    5 ar
    11    4   17 1 
    12    5    6 ar
    13    5   18 1 
    14    6    7 ar
    15    6   19 1 
    16    7    8 ar
    17    7   20 1 
    18    8    9 1 
    19    9   12 ar
    20    9   13 ar
@<TRIPOS>SUBSTRUCTURE
1 MOL         1
@<TRIPOS>MOLECULE
query molecule
   20    20     1     0     0
SMALL
NO_CHARGE

@<TRIPOS>ATOM
      1 C         -16.0544  -34.3339   -2.7974 C.3       1 MOL     0.1362
      2 C         -14.6269  -34.0598   -2.3439 C.2       1 MOL     0.3092
      3 C         -12.7146  -32.9630   -3.1505 C.ar      1 MOL     0.1404
      4 C         -12.3894  -31.9103   -2.2686 C.ar      1 MOL     0.0468
      5 C         -11.0687  -31.4961   -2.1091 C.ar      1 MOL     0.0037
      6 C         -10.0647  -32.1320   -2.8324 C.ar      1 MOL     0.0009
      7 C         -10.3797  -33.1764   -3.7007 C.ar      1 MOL     0.0131
      8 C         -11.7085  -33.6099   -3.8778 C.ar      1 MOL     0.0397
      9 C         -11.9119  -34.7540   -4.8813 C.2       1 MOL     0.0752
     10 O         -14.1411  -34.4633   -1.3012 O.2       1 MOL    -0.2507
     11 O         -14.0325  -33.3440   -3.2769 O.3       1 MOL    -0.4254
     12 O         -10.8667  -35.3413   -5.3155 O.co2     1 MOL    -0.5445
     13 O         -13.0945  -35.0704   -5.2212 O.co2     1 MOL    -0.5445
     14 H         -16.6001  -34.9115   -2.0244 H         1 MOL     0.0342
     15 H         -16.0424  -34.9207   -3.7398 H         1 MOL     0.0342
     16 H         -16.5863  -33.3788   -2.9792 H         1 MOL     0.0342
     17 H         -13.1691  -31.4189   -1.7052 H         1 MOL     0.0654
     18 H         -10.8227  -30.6889   -1.4341 H         1 MOL     0.0619
     19 H          -9.0386  -31.8115   -2.7212 H         1 MOL     0.0618
     20 H          -9.5832  -33.6549   -4.2555 H         1 MOL     0.0625
@<TRIPOS>BOND
     1    1    2 1 
     2    1   14 1 
     3    1   15 1 
     4    1   16 1 
     5    2   10 2 
     6    2   11 1 
     7    3    4 ar
     8    3    8 ar
     9    3   11 1 
    10    4    5 ar
    11    4   17 1 
    12    5    6 ar
    13    5   18 1 
    14    6    7 ar
    15    6   19 1 
    16    7    8 ar
    17    7   20 1 
    18    8    9 1 
    19    9   12 ar
    20    9   13 ar
@<TRIPOS>SUBSTRUCTURE
1 MOL         1
@<TRIPOS>MOLECULE
query molecule
   20    20     1     0     0
SMALL
NO_CHARGE

@<TRIPOS>ATOM
      1 C         -10.4401  -67.9577   16.1072 C.3       1 MOL     0.1362
      2 C         -10.2223  -67.0551   17.3108 C.2       1 MOL     0.3092
      3 C         -10.4386  -64.7780   17.8532 C.ar      1 MOL     0.1404
      4 C         -11.4716  -64.6562   18.8013 C.ar      1 MOL     0.0468
      5 C         -11.4891  -63.5933   19.6967 C.ar      1 MOL     0.0037
      6 C         -10.4788  -62.6335   19.6541 C.ar      1 MOL     0.0009
      7 C          -9.4462  -62.7551   18.7254 C.ar      1 MOL     0.0131
      8 C          -9.4031  -63.8359   17.8225 C.ar      1 MOL     0.0397
      9 C          -8.2315  -63.8916   16.8668 C.2       1 MOL     0.0752
     10 O          -9.8681  -67.4417   18.4103 O.2       1 MOL    -0.2507
     11 O         -10.4968  -65.8153   16.9494 O.3       1 MOL    -0.4254
     12 O          -7.4341  -62.8999   16.8871 O.co2     1 MOL    -0.5445
     13 O          -8.1303  -64.8831   16.0835 O.co2     1 MOL    -0.5445
     14 H         -10.2364  -69.0147   16.3689 H         1 MOL     0.0342
     15 H          -9.7622  -67.6534   15.2834 H         1 MOL     0.0342
     16 H         -11.4901  -67.8663   15.7580 H         1 MOL     0.0342
     17 H         -12.2585  -65.3963   18.8316 H         1 MOL     0.0654
     18 H         -12.2836  -63.5094   20.4225 H         1 MOL     0.0619
     19 H         -10.4922  -61.7995   20.3398 H         1 MOL     0.0618
     20 H          -8.6631  -62.0084   18.6988 H         1 MOL     0.0625
@<TRIPOS>BOND
     1    1    2 1 
     2    1   14 1 
     3    1   15 1 
     4    1   16 1 
     5    2   10 2 
     6    2   11 1 
     7    3    4 ar
     8    3    8 ar
     9    3   11 1 
    10    4    5 ar
    11    4   17 1 
    12    5    6 ar
    13    5   18 1 
    14    6    7 ar
    15    6   19 1 
    16    7    8 ar
    17    7   20 1 
    18    8    9 1 
    19    9   12 ar
    20    9   13 ar
@<TRIPOS>SUBSTRUCTURE
1 MOL         1
@<TRIPOS>MOLECULE
query molecule
   20    20     1     0     0
SMALL
NO_CHARGE

@<TRIPOS>ATOM
      1 C         -31.0684  -74.2770   -3.2708 C.3       1 MOL     0.1362
      2 C         -30.7108  -73.0378   -2.4518 C.2       1 MOL     0.3092
      3 C         -28.8001  -72.0807   -1.4356 C.ar      1 MOL     0.1404
      4 C         -28.7390  -72.0427   -0.0267 C.ar      1 MOL     0.0468
      5 C         -28.0942  -70.9958    0.6348 C.ar      1 MOL     0.0037
      6 C         -27.5028  -69.9708   -0.1046 C.ar      1 MOL     0.0009
      7 C         -27.5517  -70.0087   -1.5005 C.ar      1 MOL     0.0131
      8 C         -28.1854  -71.0656   -2.1975 C.ar      1 MOL     0.0397
      9 C         -28.1311  -71.0381   -3.7287 C.2       1 MOL     0.0752
     10 O         -31.4673  -72.1000   -2.2597 O.2       1 MOL    -0.2507
     11 O         -29.4510  -73.1402   -2.0441 O.3       1 MOL    -0.4254
     12 O         -28.6491  -71.9952   -4.3782 O.co2     1 MOL    -0.5445
     13 O         -27.5549  -70.0312   -4.2485 O.co2     1 MOL    -0.5445
     14 H         -32.1099  -74.1897   -3.6446 H         1 MOL     0.0342
     15 H         -30.9741  -75.1913   -2.6526 H         1 MOL     0.0342
     16 H         -30.3880  -74.3599   -4.1438 H         1 MOL     0.0342
     17 H         -29.1963  -72.8338    0.5528 H         1 MOL     0.0654
     18 H         -28.0550  -70.9763    1.7142 H         1 MOL     0.0619
     19 H         -27.0091  -69.1542    0.4045 H         1 MOL     0.0618
     20 H         -27.0850  -69.2113   -2.0663 H         1 MOL     0.0625
@<TRIPOS>BOND
     1    1    2 1 
     2    1   14 1 
     3    1   15 1 
     4    1   16 1 
     5    2   10 2 
     6    2   11 1 
     7    3    4 ar
     8    3    8 ar
     9    3   11 1 
    10    4    5 ar
    11    4   17 1 
    12    5    6 ar
    13    5   18 1 
    14    6    7 ar
    15    6   19 1 
    16    7    8 ar
    17    7   20 1 
    18    8    9 1 
    19    9   12 ar
    20    9   13 ar
@<TRIPOS>SUBSTRUCTURE
1 MOL         1
@<TRIPOS>MOLECULE
query molecule
   20    20     1     0     0
SMALL
NO_CHARGE

@<TRIPOS>ATOM
      1 C         -43.3539  -63.2784    1.0960 C.3       1 MOL     0.1362
      2 C         -42.6938  -62.6173    2.3029 C.2       1 MOL     0.3092
      3 C         -40.6376  -61.5262    2.7274 C.ar      1 MOL     0.1404
      4 C         -40.8446  -60.2139    3.1786 C.ar      1 MOL     0.0468
      5 C         -39.9159  -59.5847    4.0081 C.ar      1 MOL     0.0037
      6 C         -38.7637  -60.2643    4.3944 C.ar      1 MOL     0.0009
      7 C         -38.5472  -61.5678    3.9509 C.ar      1 MOL     0.0131
      8 C         -39.4676  -62.2145    3.1020 C.ar      1 MOL     0.0397
      9 C         -39.1211  -63.6122    2.6525 C.2       1 MOL     0.0752
     10 O         -43.1561  -62.6134    3.4292 O.2       1 MOL    -0.2507
     11 O         -41.5652  -62.1078    1.9032 O.3       1 MOL    -0.4254
     12 O         -39.9700  -64.2478    1.9628 O.co2     1 MOL    -0.5445
     13 O         -37.9839  -64.0563    2.9860 O.co2     1 MOL    -0.5445
     14 H         -44.3133  -63.7498    1.3877 H         1 MOL     0.0342
     15 H         -42.6828  -64.0622    0.6830 H         1 MOL     0.0342
     16 H         -43.5490  -62.5265    0.3049 H         1 MOL     0.0342
     17 H         -41.7385  -59.6772    2.8855 H         1 MOL     0.0654
     18 H         -40.0916  -58.5752    4.3536 H         1 MOL     0.0619
     19 H         -38.0418  -59.7812    5.0347 H         1 MOL     0.0618
     20 H         -37.6476  -62.0857    4.2564 H         1 MOL     0.0625
@<TRIPOS>BOND
     1    1    2 1 
     2    1   14 1 
     3    1   15 1 
     4    1   16 1 
     5    2   10 2 
     6    2   11 1 
     7    3    4 ar
     8    3    8 ar
     9    3   11 1 
    10    4    5 ar
    11    4   17 1 
    12    5    6 ar
    13    5   18 1 
    14    6    7 ar
    15    6   19 1 
    16    7    8 ar
    17    7   20 1 
    18    8    9 1 
    19    9   12 ar
    20    9   13 ar
@<TRIPOS>SUBSTRUCTURE
1 MOL         1
@<TRIPOS>MOLECULE
query molecule
   20    20     1     0     0
SMALL
NO_CHARGE

@<TRIPOS>ATOM
      1 C         -32.9329  -30.6180  -14.6527 C.3       1 MOL     0.1362
      2 C         -31.6435  -31.2167  -15.1975 C.2       1 MOL     0.3092
      3 C         -29.3307  -30.8539  -14.9717 C.ar      1 MOL     0.1404
      4 C         -28.8068  -30.1307  -16.0583 C.ar      1 MOL     0.0468
      5 C         -27.4954  -30.3295  -16.4793 C.ar      1 MOL     0.0037
      6 C         -26.6900  -31.2544  -15.8159 C.ar      1 MOL     0.0009
      7 C         -27.2101  -31.9871  -14.7434 C.ar      1 MOL     0.0131
      8 C         -28.5387  -31.7977  -14.3106 C.ar      1 MOL     0.0397
      9 C         -29.0406  -32.6074  -13.1335 C.2       1 MOL     0.0752
     10 O         -31.5823  -32.0814  -16.0549 O.2       1 MOL    -0.2507
     11 O         -30.6323  -30.6144  -14.5906 O.3       1 MOL    -0.4254
     12 O         -30.0450  -32.1672  -12.4912 O.co2     1 MOL    -0.5445
     13 O         -28.3747  -33.6473  -12.8628 O.co2     1 MOL    -0.5445
     14 H         -33.8107  -31.0960  -15.1316 H         1 MOL     0.0342
     15 H         -32.9603  -29.5279  -14.8718 H         1 MOL     0.0342
     16 H         -32.9926  -30.7591  -13.5547 H         1 MOL     0.0342
     17 H         -29.4365  -29.4160  -16.5720 H         1 MOL     0.0654
     18 H         -27.1092  -29.7667  -17.3161 H         1 MOL     0.0619
     19 H         -25.6683  -31.3960  -16.1324 H         1 MOL     0.0618
     20 H         -26.5666  -32.6935  -14.2315 H         1 MOL     0.0625
@<TRIPOS>BOND
     1    1    2 1 
     2    1   14 1 
     3    1   15 1 
     4    1   16 1 
     5    2   10 2 
     6    2   11 1 
     7    3    4 ar
     8    3    8 ar
     9    3   11 1 
    10    4    5 ar
    11    4   17 1 
    12    5    6 ar
    13    5   18 1 
    14    6    7 ar
    15    6   19 1 
    16    7    8 ar
    17    7   20 1 
    18    8    9 1 
    19    9   12 ar
    20    9   13 ar
@<TRIPOS>SUBSTRUCTURE
1 MOL         1
@<TRIPOS>MOLECULE
query molecule
   20    20     1     0     0
SMALL
NO_CHARGE

@<TRIPOS>ATOM
      1 C          -6.5830  -75.7002    7.9481 C.3       1 MOL     0.1362
      2 C          -6.0869  -74.2667    8.0274 C.2       1 MOL     0.3092
      3 C          -4.9379  -72.8617    9.5271 C.ar      1 MOL     0.1404
      4 C          -5.6903  -72.2585   10.5561 C.ar      1 MOL     0.0468
      5 C          -5.4304  -70.9506   10.9582 C.ar      1 MOL     0.0037
      6 C          -4.4221  -70.2233   10.3289 C.ar      1 MOL     0.0009
      7 C          -3.6578  -70.8244    9.3287 C.ar      1 MOL     0.0131
      8 C          -3.8810  -72.1609    8.9308 C.ar      1 MOL     0.0397
      9 C          -2.9687  -72.7484    7.8615 C.2       1 MOL     0.0752
     10 O          -6.3860  -73.4050    7.2175 O.2       1 MOL    -0.2507
     11 O          -5.3106  -74.1306    9.1150 O.3       1 MOL    -0.4254
     12 O          -2.3418  -71.9120    7.1374 O.co2     1 MOL    -0.5445
     13 O          -2.9185  -74.0098    7.7505 O.co2     1 MOL    -0.5445
     14 H          -7.4470  -75.7576    7.2533 H         1 MOL     0.0342
     15 H          -6.9142  -76.0309    8.9538 H         1 MOL     0.0342
     16 H          -5.7841  -76.3766    7.5877 H         1 MOL     0.0342
     17 H          -6.4843  -72.8144   11.0352 H         1 MOL     0.0654
     18 H          -6.0092  -70.5010   11.7512 H         1 MOL     0.0619
     19 H          -4.2341  -69.2002   10.6184 H         1 MOL     0.0618
     20 H          -2.8770  -70.2480    8.8492 H         1 MOL     0.0625
@<TRIPOS>BOND
     1    1    2 1 
     2    1   14 1 
     3    1   15 1 
     4    1   16 1 
     5    2   10 2 
     6    2   11 1 
     7    3    4 ar
     8    3    8 ar
     9    3   11 1 
    10    4    5 ar
    11    4   17 1 
    12    5    6 ar
    13    5   18 1 
    14    6    7 ar
    15    6   19 1 
    16    7    8 ar
    17    7   20 1 
    18    8    9 1 
    19    9   12 ar
    20    9   13 ar
@<TRIPOS>SUBSTRUCTURE
1 MOL         1
@<TRIPOS>MOLECULE
query molecule
   20    20     1     0     0
SMALL
NO_CHARGE

@<TRIPOS>ATOM
      1 C         -22.9624  -72.3259   12.6305 C.3       1 MOL     0.1362
      2 C         -21.5119  -72.5419   13.0508 C.2       1 MOL     0.3092
      3 C         -19.7870  -74.0802   12.5707 C.ar      1 MOL     0.1404
      4 C         -18.7294  -73.4971   11.8493 C.ar      1 MOL     0.0468
      5 C         -17.4284  -73.9891   11.9580 C.ar      1 MOL     0.0037
      6 C         -17.1702  -75.0893   12.7742 C.ar      1 MOL     0.0009
      7 C         -18.2147  -75.6839   13.4839 C.ar      1 MOL     0.0131
      8 C         -19.5314  -75.1796   13.4071 C.ar      1 MOL     0.0397
      9 C         -20.5856  -75.8636   14.2597 C.2       1 MOL     0.0752
     10 O         -20.9273  -71.8508   13.8605 O.2       1 MOL    -0.2507
     11 O         -21.0582  -73.5847   12.4163 O.3       1 MOL    -0.4254
     12 O         -21.7562  -75.3802   14.2675 O.co2     1 MOL    -0.5445
     13 O         -20.1946  -76.8796   14.9153 O.co2     1 MOL    -0.5445
     14 H         -23.3313  -71.3554   13.0194 H         1 MOL     0.0342
     15 H         -23.5836  -73.1417   13.0573 H         1 MOL     0.0342
     16 H         -23.0623  -72.3378   11.5273 H         1 MOL     0.0342
     17 H         -18.9288  -72.6560   11.2001 H         1 MOL     0.0654
     18 H         -16.6244  -73.5235   11.4088 H         1 MOL     0.0619
     19 H         -16.1668  -75.4792   12.8590 H         1 MOL     0.0618
     20 H         -18.0068  -76.5421   14.1082 H         1 MOL     0.0625
@<TRIPOS>BOND
     1    1    2 1 
     2    1   14 1 
     3    1   15 1 
     4    1   16 1 
     5    2   10 2 
     6    2   11 1 
     7    3    4 ar
     8    3    8 ar
     9    3   11 1 
    10    4    5 ar
    11    4   17 1 
    12    5    6 ar
    13    5   18 1 
    14    6    7 ar
    15    6   19 1 
    16    7    8 ar
    17    7   20 1 
    18    8    9 1 
    19    9   12 ar
    20    9   13 ar
@<TRIPOS>SUBSTRUCTURE
1 MOL         1
@<TRIPOS>MOLECULE
query molecule
   20    20     1     0     0
SMALL
NO_CHARGE

@<TRIPOS>ATOM
      1 C         -45.3036  -34.1253   -1.2200 C.3       1 MOL     0.1362
      2 C         -46.1066  -33.3473   -2.2529 C.2       1 MOL     0.3092
      3 C         -46.2584  -31.1231   -3.0419 C.ar      1 MOL     0.1404
      4 C         -47.1420  -30.2129   -2.4329 C.ar      1 MOL     0.0468
      5 C         -47.7686  -29.2201   -3.1878 C.ar      1 MOL     0.0037
      6 C         -47.5270  -29.1335   -4.5585 C.ar      1 MOL     0.0009
      7 C         -46.6672  -30.0404   -5.1686 C.ar      1 MOL     0.0131
      8 C         -46.0205  -31.0323   -4.4209 C.ar      1 MOL     0.0397
      9 C         -45.1114  -31.9743   -5.1605 C.2       1 MOL     0.0752
     10 O         -46.9858  -33.8184   -2.9552 O.2       1 MOL    -0.2507
     11 O         -45.6706  -32.0930   -2.2575 O.3       1 MOL    -0.4254
     12 O         -44.1942  -32.5325   -4.4897 O.co2     1 MOL    -0.5445
     13 O         -45.3320  -32.1561   -6.3922 O.co2     1 MOL    -0.5445
     14 H         -45.6339  -35.1838   -1.2019 H         1 MOL     0.0342
     15 H         -45.4768  -33.6785   -0.2177 H         1 MOL     0.0342
     16 H         -44.2269  -34.0771   -1.4555 H         1 MOL     0.0342
     17 H         -47.3346  -30.2778   -1.3716 H         1 MOL     0.0654
     18 H         -48.4376  -28.5187   -2.7121 H         1 MOL     0.0619
     19 H         -47.9983  -28.3605   -5.1458 H         1 MOL     0.0618
     20 H         -46.4791  -29.9762   -6.2299 H         1 MOL     0.0625
@<TRIPOS>BOND
     1    1    2 1 
     2    1   14 1 
     3    1   15 1 
     4    1   16 1 
     5    2   10 2 
     6    2   11 1 
     7    3    4 ar
     8    3    8 ar
     9    3   11 1 
    10    4    5 ar
    11    4   17 1 
    12    5    6 ar
    13    5   18 1 
    14    6    7 ar
    15    6   19 1 
    16    7    8 ar
    17    7   20 1 
    18    8    9 1 
    19    9   12 ar
    20    9   13 ar
@<TRIPOS>SUBSTRUCTURE
1 MOL         1
@<TRIPOS>MOLECULE
query molecule
   20    20     1     0     0
SMALL
NO_CHARGE

@<TRIPOS>ATOM
      1 C         -24.7051  -29.9122   -3.3698 C.3       1 MOL     0.1362
      2 C         -23.7549  -30.3674   -4.4741 C.2       1 MOL     0.3092
      3 C         -22.9254  -29.4333   -6.4805 C.ar      1 MOL     0.1404
      4 C         -21.6217  -28.9266   -6.2858 C.ar      1 MOL     0.0468
      5 C         -20.7164  -28.8575   -7.3435 C.ar      1 MOL     0.0037
      6 C         -21.1028  -29.2857   -8.6114 C.ar      1 MOL     0.0009
      7 C         -22.3903  -29.7790   -8.8159 C.ar      1 MOL     0.0131
      8 C         -23.3229  -29.8529   -7.7595 C.ar      1 MOL     0.0397
      9 C         -24.7071  -30.3754   -8.0940 C.2       1 MOL     0.0752
     10 O         -23.0963  -31.3903   -4.4405 O.2       1 MOL    -0.2507
     11 O         -23.7775  -29.4643   -5.4085 O.3       1 MOL    -0.4254
     12 O         -25.4900  -30.6366   -7.1392 O.co2     1 MOL    -0.5445
     13 O         -24.9819  -30.5025   -9.3282 O.co2     1 MOL    -0.5445
     14 H         -24.7225  -30.6535   -2.5442 H         1 MOL     0.0342
     15 H         -25.7305  -29.8147   -3.7801 H         1 MOL     0.0342
     16 H         -24.3894  -28.9300   -2.9607 H         1 MOL     0.0342
     17 H         -21.3132  -28.5940   -5.3036 H         1 MOL     0.0654
     18 H         -19.7183  -28.4786   -7.1812 H         1 MOL     0.0619
     19 H         -20.4056  -29.2349   -9.4336 H         1 MOL     0.0618
     20 H         -22.6767  -30.1143   -9.8038 H         1 MOL     0.0625
@<TRIPOS>BOND
     1    1    2 1 
     2    1   14 1 
     3    1   15 1 
     4    1   16 1 
     5    2   10 2 
     6    2   11 1 
     7    3    4 ar
     8    3    8 ar
     9    3   11 1 
    10    4    5 ar
    11    4   17 1 
    12    5    6 ar
    13    5   18 1 
    14    6    7 ar
    15    6   19 1 
    16    7    8 ar
    17    7   20 1 
    18    8    9 1 
    19    9   12 ar
    20    9   13 ar
@<TRIPOS>SUBSTRUCTURE
1 MOL         1
@<TRIPOS>MOLECULE
query molecule
   20    20     1     0     0
SMALL
NO_CHARGE

@<TRIPOS>ATOM
      1 C         -30.1167  -61.1909  -21.4783 C.3       1 MOL     0.1362
      2 C         -29.8489  -60.6786  -20.0715 C.2       1 MOL     0.3092
      3 C         -30.9426  -59.2388  -18.5566 C.ar      1 MOL     0.1404
      4 C         -30.9563  -59.8883  -17.3100 C.ar      1 MOL     0.0468
      5 C         -31.0714  -59.1528  -16.1373 C.ar      1 MOL     0.0037
      6 C         -31.1846  -57.7643  -16.1812 C.ar      1 MOL     0.0009
      7 C         -31.1655  -57.1142  -17.4133 C.ar      1 MOL     0.0131
      8 C         -31.0305  -57.8355  -18.6161 C.ar      1 MOL     0.0397
      9 C         -31.0161  -57.0390  -19.9105 C.2       1 MOL     0.0752
     10 O         -28.8311  -60.8894  -19.4369 O.2       1 MOL    -0.2507
     11 O         -30.8897  -59.9919  -19.7023 O.3       1 MOL    -0.4254
     12 O         -31.1665  -55.7790  -19.8067 O.co2     1 MOL    -0.5445
     13 O         -30.8615  -57.6753  -20.9936 O.co2     1 MOL    -0.5445
     14 H         -29.3417  -61.9217  -21.7836 H         1 MOL     0.0342
     15 H         -30.1071  -60.3340  -22.1844 H         1 MOL     0.0342
     16 H         -31.1140  -61.6767  -21.5134 H         1 MOL     0.0342
     17 H         -30.8875  -60.9658  -17.2616 H         1 MOL     0.0654
     18 H         -31.0809  -59.6611  -15.1829 H         1 MOL     0.0619
     19 H         -31.2999  -57.1941  -15.2712 H         1 MOL     0.0618
     20 H         -31.2676  -56.0386  -17.4614 H         1 MOL     0.0625
@<TRIPOS>BOND
     1    1    2 1 
     2    1   14 1 
     3    1   15 1 
     4    1   16 1 
     5    2   10 2 
     6    2   11 1 
     7    3    4 ar
     8    3    8 ar
     9    3   11 1 
    10    4    5 ar
    11    4   17 1 
    12    5    6 ar
    13    5   18 1 
    14    6    7 ar
    15    6   19 1 
    16    7    8 ar
    17    7   20 1 
    18    8    9 1 
    19    9   12 ar
    20    9   13 ar
@<TRIPOS>SUBSTRUCTURE
1 MOL         1
@<TRIPOS>MOLECULE
query molecule
   20    20     1     0     0
SMALL
NO_CHARGE

@<TRIPOS>ATOM
      1 C          -8.9768  -74.2424    7.5860 C.3       1 MOL     0.1362
      2 C          -8.1198  -74.1390    6.3277 C.2       1 MOL     0.3092
      3 C          -8.3927  -74.6695    4.0397 C.ar      1 MOL     0.1404
      4 C          -8.2077  -73.5301    3.2336 C.ar      1 MOL     0.0468
      5 C          -7.7546  -73.6507    1.9193 C.ar      1 MOL     0.0037
      6 C          -7.4827  -74.9120    1.3939 C.ar      1 MOL     0.0009
      7 C          -7.6674  -76.0449    2.1836 C.ar      1 MOL     0.0131
      8 C          -8.1347  -75.9420    3.5077 C.ar      1 MOL     0.0397
      9 C          -8.3333  -77.2321    4.2698 C.2       1 MOL     0.0752
     10 O          -6.9544  -73.7918    6.3131 O.2       1 MOL    -0.2507
     11 O          -8.8541  -74.5106    5.3203 O.3       1 MOL    -0.4254
     12 O          -8.6653  -77.1685    5.4871 O.co2     1 MOL    -0.5445
     13 O          -8.1585  -78.3093    3.6221 O.co2     1 MOL    -0.5445
     14 H          -8.3903  -73.9547    8.4813 H         1 MOL     0.0342
     15 H          -9.3319  -75.2872    7.7129 H         1 MOL     0.0342
     16 H          -9.8599  -73.5756    7.5059 H         1 MOL     0.0342
     17 H          -8.4147  -72.5470    3.6324 H         1 MOL     0.0654
     18 H          -7.6107  -72.7684    1.3119 H         1 MOL     0.0619
     19 H          -7.1340  -75.0088    0.3773 H         1 MOL     0.0618
     20 H          -7.4531  -77.0194    1.7662 H         1 MOL     0.0625
@<TRIPOS>BOND
     1    1    2 1 
     2    1   14 1 
     3    1   15 1 
     4    1   16 1 
     5    2   10 2 
     6    2   11 1 
     7    3    4 ar
     8    3    8 ar
     9    3   11 1 
    10    4    5 ar
    11    4   17 1 
    12    5    6 ar
    13    5   18 1 
    14    6    7 ar
    15    6   19 1 
    16    7    8 ar
    17    7   20 1 
    18    8    9 1 
    19    9   12 ar
    20    9   13 ar
@<TRIPOS>SUBSTRUCTURE
1 MOL         1
@<TRIPOS>MOLECULE
query molecule
   20    20     1     0     0
SMALL
NO_CHARGE

@<TRIPOS>ATOM
      1 C         -19.3781  -60.0633  -16.9507 C.3       1 MOL     0.1362
      2 C         -19.9551  -61.3623  -17.4888 C.2       1 MOL     0.3092
      3 C         -19.3598  -62.9902  -19.0798 C.ar      1 MOL     0.1404
      4 C         -19.6591  -62.6784  -20.4223 C.ar      1 MOL     0.0468
      5 C         -20.0543  -63.6713  -21.3154 C.ar      1 MOL     0.0037
      6 C         -20.1490  -64.9916  -20.8796 C.ar      1 MOL     0.0009
      7 C         -19.8322  -65.3103  -19.5590 C.ar      1 MOL     0.0131
      8 C         -19.4243  -64.3170  -18.6447 C.ar      1 MOL     0.0397
      9 C         -19.0937  -64.7650  -17.2379 C.2       1 MOL     0.0752
     10 O         -21.0903  -61.7606  -17.2643 O.2       1 MOL    -0.2507
     11 O         -19.0332  -61.9511  -18.2345 O.3       1 MOL    -0.4254
     12 O         -18.5158  -63.9454  -16.4698 O.co2     1 MOL    -0.5445
     13 O         -19.4929  -65.9286  -16.9208 O.co2     1 MOL    -0.5445
     14 H         -20.1774  -59.4403  -16.5000 H         1 MOL     0.0342
     15 H         -18.9117  -59.4920  -17.7817 H         1 MOL     0.0342
     16 H         -18.6057  -60.2729  -16.1842 H         1 MOL     0.0342
     17 H         -19.5866  -61.6537  -20.7601 H         1 MOL     0.0654
     18 H         -20.2863  -63.4175  -22.3386 H         1 MOL     0.0619
     19 H         -20.4622  -65.7653  -21.5638 H         1 MOL     0.0618
     20 H         -19.8918  -66.3406  -19.2344 H         1 MOL     0.0625
@<TRIPOS>BOND
     1    1    2 1 
     2    1   14 1 
     3    1   15 1 
     4    1   16 1 
     5    2   10 2 
     6    2   11 1 
     7    3    4 ar
     8    3    8 ar
     9    3   11 1 
    10    4    5 ar
    11    4   17 1 
    12    5    6 ar
    13    5   18 1 
    14    6    7 ar
    15    6   19 1 
    16    7    8 ar
    17    7   20 1 
    18    8    9 1 
    19    9   12 ar
    20    9   13 ar
@<TRIPOS>SUBSTRUCTURE
1 MOL         1
@<TRIPOS>MOLECULE
query molecule
   20    20     1     0     0
SMALL
NO_CHARGE

@<TRIPOS>ATOM
      1 C         -27.9934  -72.1935   -6.2494 C.3       1 MOL     0.1362
      2 C         -27.9919  -71.2154   -5.0758 C.2       1 MOL     0.3092
      3 C         -28.1971  -71.2807   -2.7192 C.ar      1 MOL     0.1404
      4 C         -29.2608  -70.4735   -2.2643 C.ar      1 MOL     0.0468
      5 C         -29.2055  -69.8518   -1.0153 C.ar      1 MOL     0.0037
      6 C         -28.0835  -70.0279   -0.2045 C.ar      1 MOL     0.0009
      7 C         -27.0315  -70.8345   -0.6460 C.ar      1 MOL     0.0131
      8 C         -27.0676  -71.4890   -1.9009 C.ar      1 MOL     0.0397
      9 C         -25.8861  -72.3956   -2.2619 C.2       1 MOL     0.0752
     10 O         -27.7043  -70.0333   -5.1676 O.2       1 MOL    -0.2507
     11 O         -28.3000  -71.8754   -3.9651 O.3       1 MOL    -0.4254
     12 O         -24.9867  -72.6060   -1.3941 O.co2     1 MOL    -0.5445
     13 O         -25.8947  -72.8823   -3.4363 O.co2     1 MOL    -0.5445
     14 H         -27.7064  -71.6606   -7.1798 H         1 MOL     0.0342
     15 H         -28.9970  -72.6445   -6.3776 H         1 MOL     0.0342
     16 H         -27.2554  -73.0020   -6.0660 H         1 MOL     0.0342
     17 H         -30.1333  -70.3319   -2.8883 H         1 MOL     0.0654
     18 H         -30.0253  -69.2345   -0.6780 H         1 MOL     0.0619
     19 H         -28.0337  -69.5417    0.7603 H         1 MOL     0.0618
     20 H         -26.1669  -70.9698   -0.0073 H         1 MOL     0.0625
@<TRIPOS>BOND
     1    1    2 1 
     2    1   14 1 
     3    1   15 1 
     4    1   16 1 
     5    2   10 2 
     6    2   11 1 
     7    3    4 ar
     8    3    8 ar
     9    3   11 1 
    10    4    5 ar
    11    4   17 1 
    12    5    6 ar
    13    5   18 1 
    14    6    7 ar
    15    6   19 1 
    16    7    8 ar
    17    7   20 1 
    18    8    9 1 
    19    9   12 ar
    20    9   13 ar
@<TRIPOS>SUBSTRUCTURE
1 MOL         1
@<TRIPOS>MOLECULE
query molecule
   20    20     1     0     0
SMALL
NO_CHARGE

@<TRIPOS>ATOM
      1 C         -17.7900  -69.9265  -13.1700 C.3       1 MOL     0.1362
      2 C         -19.2442  -69.5494  -13.4295 C.2       1 MOL     0.3092
      3 C         -20.7211  -69.5811  -15.2728 C.ar      1 MOL     0.1404
      4 C         -21.7571  -70.5298  -15.1965 C.ar      1 MOL     0.0468
      5 C         -22.9829  -70.2982  -15.8248 C.ar      1 MOL     0.0037
      6 C         -23.1855  -69.1143  -16.5320 C.ar      1 MOL     0.0009
      7 C         -22.1620  -68.1710  -16.6106 C.ar      1 MOL     0.0131
      8 C         -20.9190  -68.3899  -15.9894 C.ar      1 MOL     0.0397
      9 C         -19.8611  -67.3140  -16.1469 C.2       1 MOL     0.0752
     10 O         -19.9836  -69.0398  -12.6074 O.2       1 MOL    -0.2507
     11 O         -19.5215  -69.8541  -14.6649 O.3       1 MOL    -0.4254
     12 O         -18.7287  -67.4994  -15.6178 O.co2     1 MOL    -0.5445
     13 O         -20.2025  -66.2862  -16.8068 O.co2     1 MOL    -0.5445
     14 H         -17.5080  -69.6845  -12.1256 H         1 MOL     0.0342
     15 H         -17.1261  -69.3674  -13.8626 H         1 MOL     0.0342
     16 H         -17.6501  -71.0131  -13.3377 H         1 MOL     0.0342
     17 H         -21.6047  -71.4522  -14.6554 H         1 MOL     0.0654
     18 H         -23.7706  -71.0348  -15.7643 H         1 MOL     0.0619
     19 H         -24.1336  -68.9276  -17.0138 H         1 MOL     0.0618
     20 H         -22.3290  -67.2537  -17.1604 H         1 MOL     0.0625
@<TRIPOS>BOND
     1    1    2 1 
     2    1   14 1 
     3    1   15 1 
     4    1   16 1 
     5    2   10 2 
     6    2   11 1 
     7    3    4 ar
     8    3    8 ar
     9    3   11 1 
    10    4    5 ar
    11    4   17 1 
    12    5    6 ar
    13    5   18 1 
    14    6    7 ar
    15    6   19 1 
    16    7    8 ar
    17    7   20 1 
    18    8    9 1 
    19    9   12 ar
    20    9   13 ar
@<TRIPOS>SUBSTRUCTURE
1 MOL         1
@<TRIPOS>MOLECULE
query molecule
   20    20     1     0     0
SMALL
NO_CHARGE

@<TRIPOS>ATOM
      1 C         -47.0202  -68.1450  -15.2163 C.3       1 MOL     0.1362
      2 C         -46.9196  -66.7484  -15.8218 C.2       1 MOL     0.3092
      3 C         -45.3282  -65.4728  -16.9965 C.ar      1 MOL     0.1404
      4 C         -45.7648  -65.1931  -18.3068 C.ar      1 MOL     0.0468
      5 C         -45.3650  -64.0252  -18.9557 C.ar      1 MOL     0.0037
      6 C         -44.5365  -63.1163  -18.2999 C.ar      1 MOL     0.0009
      7 C         -44.0929  -63.3937  -17.0083 C.ar      1 MOL     0.0131
      8 C         -44.4640  -64.5800  -16.3437 C.ar      1 MOL     0.0397
      9 C         -43.8710  -64.8134  -14.9643 C.2       1 MOL     0.0752
     10 O         -47.7988  -65.9058  -15.7679 O.2       1 MOL    -0.2507
     11 O         -45.7456  -66.6340  -16.3921 O.3       1 MOL    -0.4254
     12 O         -44.1789  -65.8791  -14.3528 O.co2     1 MOL    -0.5445
     13 O         -43.0987  -63.9023  -14.5327 O.co2     1 MOL    -0.5445
     14 H         -48.0303  -68.3030  -14.7860 H         1 MOL     0.0342
     15 H         -46.2651  -68.2594  -14.4139 H         1 MOL     0.0342
     16 H         -46.8366  -68.9091  -15.9968 H         1 MOL     0.0342
     17 H         -46.4164  -65.8901  -18.8153 H         1 MOL     0.0654
     18 H         -45.6991  -63.8217  -19.9626 H         1 MOL     0.0619
     19 H         -44.2343  -62.2040  -18.7920 H         1 MOL     0.0618
     20 H         -43.4421  -62.6884  -16.5093 H         1 MOL     0.0625
@<TRIPOS>BOND
     1    1    2 1 
     2    1   14 1 
     3    1   15 1 
     4    1   16 1 
     5    2   10 2 
     6    2   11 1 
     7    3    4 ar
     8    3    8 ar
     9    3   11 1 
    10    4    5 ar
    11    4   17 1 
    12    5    6 ar
    13    5   18 1 
    14    6    7 ar
    15    6   19 1 
    16    7    8 ar
    17    7   20 1 
    18    8    9 1 
    19    9   12 ar
    20    9   13 ar
@<TRIPOS>SUBSTRUCTURE
1 MOL         1
@<TRIPOS>MOLECULE
query molecule
   20    20     1     0     0
SMALL
NO_CHARGE

@<TRIPOS>ATOM
      1 C         -11.7941  -54.2473   15.6715 C.3       1 MOL     0.1362
      2 C         -11.6559  -53.0864   14.6891 C.2       1 MOL     0.3092
      3 C         -10.0943  -52.3107   13.0842 C.ar      1 MOL     0.1404
      4 C          -9.6320  -51.1450   13.7385 C.ar      1 MOL     0.0468
      5 C          -9.0458  -50.1045   13.0308 C.ar      1 MOL     0.0037
      6 C          -8.8974  -50.2111   11.6509 C.ar      1 MOL     0.0009
      7 C          -9.3495  -51.3521   10.9910 C.ar      1 MOL     0.0131
      8 C          -9.9614  -52.4167   11.6940 C.ar      1 MOL     0.0397
      9 C         -10.4441  -53.5841   10.8571 C.2       1 MOL     0.0752
     10 O         -12.3431  -52.0805   14.7228 O.2       1 MOL    -0.2507
     11 O         -10.6309  -53.3248   13.8624 O.3       1 MOL    -0.4254
     12 O         -10.0890  -53.5675    9.6337 O.co2     1 MOL    -0.5445
     13 O         -11.1698  -54.4516   11.4169 O.co2     1 MOL    -0.5445
     14 H         -12.3917  -53.9189   16.5480 H         1 MOL     0.0342
     15 H         -10.7868  -54.5529   16.0266 H         1 MOL     0.0342
     16 H         -12.2917  -55.1139   15.1950 H         1 MOL     0.0342
     17 H          -9.7349  -51.0742   14.8128 H         1 MOL     0.0654
     18 H          -8.7067  -49.2243   13.5546 H         1 MOL     0.0619
     19 H          -8.4388  -49.4056   11.0981 H         1 MOL     0.0618
     20 H          -9.2346  -51.4178    9.9153 H         1 MOL     0.0625
@<TRIPOS>BOND
     1    1    2 1 
     2    1   14 1 
     3    1   15 1 
     4    1   16 1 
     5    2   10 2 
     6    2   11 1 
     7    3    4 ar
     8    3    8 ar
     9    3   11 1 
    10    4    5 ar
    11    4   17 1 
    12    5    6 ar
    13    5   18 1 
    14    6    7 ar
    15    6   19 1 
    16    7    8 ar
    17    7   20 1 
    18    8    9 1 
    19    9   12 ar
    20    9   13 ar
@<TRIPOS>SUBSTRUCTURE
1 MOL         1
@<TRIPOS>MOLECULE
query molecule
   20    20     1     0     0
SMALL
NO_CHARGE

@<TRIPOS>ATOM
      1 C          -6.5751  -60.9034   10.7184 C.3       1 MOL     0.1362
      2 C          -5.5694  -61.4706   11.7052 C.2       1 MOL     0.3092
      3 C          -4.0936  -63.2824   11.6704 C.ar      1 MOL     0.1404
      4 C          -2.7681  -62.8137   11.6321 C.ar      1 MOL     0.0468
      5 C          -1.7255  -63.6111   12.1037 C.ar      1 MOL     0.0037
      6 C          -1.9988  -64.8884   12.5896 C.ar      1 MOL     0.0009
      7 C          -3.3099  -65.3591   12.6211 C.ar      1 MOL     0.0131
      8 C          -4.3844  -64.5557   12.2018 C.ar      1 MOL     0.0397
      9 C          -5.7856  -65.1249   12.3785 C.2       1 MOL     0.0752
     10 O          -5.3339  -61.0318   12.8147 O.2       1 MOL    -0.2507
     11 O          -5.0833  -62.5052   11.1604 O.3       1 MOL    -0.4254
     12 O          -5.8667  -66.2754   12.9035 O.co2     1 MOL    -0.5445
     13 O          -6.7620  -64.4018   12.0315 O.co2     1 MOL    -0.5445
     14 H          -6.9236  -59.9109   11.0473 H         1 MOL     0.0342
     15 H          -7.4492  -61.5889   10.6394 H         1 MOL     0.0342
     16 H          -6.1001  -60.8204    9.7218 H         1 MOL     0.0342
     17 H          -2.5483  -61.8299   11.2424 H         1 MOL     0.0654
     18 H          -0.7095  -63.2476   12.0901 H         1 MOL     0.0619
     19 H          -1.2005  -65.5097   12.9527 H         1 MOL     0.0618
     20 H          -3.5051  -66.3556   12.9906 H         1 MOL     0.0625
@<TRIPOS>BOND
     1    1    2 1 
     2    1   14 1 
     3    1   15 1 
     4    1   16 1 
     5    2   10 2 
     6    2   11 1 
     7    3    4 ar
     8    3    8 ar
     9    3   11 1 
    10    4    5 ar
    11    4   17 1 
    12    5    6 ar
    13    5   18 1 
    14    6    7 ar
    15    6   19 1 
    16    7    8 ar
    17    7   20 1 
    18    8    9 1 
    19    9   12 ar
    20    9   13 ar
@<TRIPOS>SUBSTRUCTURE
1 MOL         1
@<TRIPOS>MOLECULE
query molecule
   20    20     1     0     0
SMALL
NO_CHARGE

@<TRIPOS>ATOM
      1 C         -66.8790  -45.7486  -11.8697 C.3       1 MOL     0.1362
      2 C         -67.6062  -46.2568  -13.1135 C.2       1 MOL     0.3092
      3 C         -67.0761  -47.3103  -15.1651 C.ar      1 MOL     0.1404
      4 C         -67.4193  -46.5565  -16.3071 C.ar      1 MOL     0.0468
      5 C         -67.7991  -47.1862  -17.4940 C.ar      1 MOL     0.0037
      6 C         -67.8427  -48.5796  -17.5541 C.ar      1 MOL     0.0009
      7 C         -67.4942  -49.3312  -16.4288 C.ar      1 MOL     0.0131
      8 C         -67.0907  -48.7194  -15.2175 C.ar      1 MOL     0.0397
      9 C         -66.6750  -49.6380  -14.0635 C.2       1 MOL     0.0752
     10 O         -68.8197  -46.3312  -13.2170 O.2       1 MOL    -0.2507
     11 O         -66.7061  -46.6388  -14.0123 O.3       1 MOL    -0.4254
     12 O         -66.3489  -49.1198  -12.9538 O.co2     1 MOL    -0.5445
     13 O         -66.6876  -50.8849  -14.3106 O.co2     1 MOL    -0.5445
     14 H         -67.6204  -45.4552  -11.0976 H         1 MOL     0.0342
     15 H         -66.2435  -44.8767  -12.1207 H         1 MOL     0.0342
     16 H         -66.2386  -46.5538  -11.4533 H         1 MOL     0.0342
     17 H         -67.3886  -45.4757  -16.2671 H         1 MOL     0.0654
     18 H         -68.0614  -46.5987  -18.3618 H         1 MOL     0.0619
     19 H         -68.1439  -49.0708  -18.4694 H         1 MOL     0.0618
     20 H         -67.5256  -50.4126  -16.4866 H         1 MOL     0.0625
@<TRIPOS>BOND
     1    1    2 1 
     2    1   14 1 
     3    1   15 1 
     4    1   16 1 
     5    2   10 2 
     6    2   11 1 
     7    3    4 ar
     8    3    8 ar
     9    3   11 1 
    10    4    5 ar
    11    4   17 1 
    12    5    6 ar
    13    5   18 1 
    14    6    7 ar
    15    6   19 1 
    16    7    8 ar
    17    7   20 1 
    18    8    9 1 
    19    9   12 ar
    20    9   13 ar
@<TRIPOS>SUBSTRUCTURE
1 MOL         1
@<TRIPOS>MOLECULE
query molecule
   20    20     1     0     0
SMALL
NO_CHARGE

@<TRIPOS>ATOM
      1 C         -33.2089  -63.9454  -18.2634 C.3       1 MOL     0.1362
      2 C         -32.6655  -62.7775  -19.0849 C.2       1 MOL     0.3092
      3 C         -30.6068  -61.6611  -19.4247 C.ar      1 MOL     0.1404
      4 C         -30.7307  -60.2801  -19.1648 C.ar      1 MOL     0.0468
      5 C         -29.9444  -59.3491  -19.8463 C.ar      1 MOL     0.0037
      6 C         -29.0240  -59.7872  -20.7992 C.ar      1 MOL     0.0009
      7 C         -28.8902  -61.1547  -21.0533 C.ar      1 MOL     0.0131
      8 C         -29.6634  -62.1214  -20.3664 C.ar      1 MOL     0.0397
      9 C         -29.3960  -63.5972  -20.6811 C.2       1 MOL     0.0752
     10 O         -33.2930  -62.2022  -19.9589 O.2       1 MOL    -0.2507
     11 O         -31.4093  -62.5440  -18.7224 O.3       1 MOL    -0.4254
     12 O         -30.1013  -64.4833  -20.1123 O.co2     1 MOL    -0.5445
     13 O         -28.4615  -63.8302  -21.5107 O.co2     1 MOL    -0.5445
     14 H         -34.2488  -64.1717  -18.5787 H         1 MOL     0.0342
     15 H         -33.1965  -63.6992  -17.1834 H         1 MOL     0.0342
     16 H         -32.5858  -64.8478  -18.4349 H         1 MOL     0.0342
     17 H         -31.4431  -59.9335  -18.4279 H         1 MOL     0.0654
     18 H         -30.0490  -58.2938  -19.6402 H         1 MOL     0.0619
     19 H         -28.4186  -59.0685  -21.3347 H         1 MOL     0.0618
     20 H         -28.1690  -61.4858  -21.7910 H         1 MOL     0.0625
@<TRIPOS>BOND
     1    1    2 1 
     2    1   14 1 
     3    1   15 1 
     4    1   16 1 
     5    2   10 2 
     6    2   11 1 
     7    3    4 ar
     8    3    8 ar
     9    3   11 1 
    10    4    5 ar
    11    4   17 1 
    12    5    6 ar
    13    5   18 1 
    14    6    7 ar
    15    6   19 1 
    16    7    8 ar
    17    7   20 1 
    18    8    9 1 
    19    9   12 ar
    20    9   13 ar
@<TRIPOS>SUBSTRUCTURE
1 MOL         1
@<TRIPOS>MOLECULE
query molecule
   20    20     1     0     0
SMALL
NO_CHARGE

@<TRIPOS>ATOM
      1 C         -24.4431  -36.5253   16.8246 C.3       1 MOL     0.1362
      2 C         -22.9255  -36.5544   16.9426 C.2       1 MOL     0.3092
      3 C         -21.0577  -35.7715   15.7378 C.ar      1 MOL     0.1404
      4 C         -20.2509  -36.8628   15.3606 C.ar      1 MOL     0.0468
      5 C         -18.8773  -36.7083   15.1819 C.ar      1 MOL     0.0037
      6 C         -18.2946  -35.4563   15.3697 C.ar      1 MOL     0.0009
      7 C         -19.0883  -34.3696   15.7371 C.ar      1 MOL     0.0131
      8 C         -20.4775  -34.5082   15.9355 C.ar      1 MOL     0.0397
      9 C         -21.2547  -33.2714   16.3503 C.2       1 MOL     0.0752
     10 O         -22.3132  -37.0479   17.8779 O.2       1 MOL    -0.2507
     11 O         -22.4153  -35.9615   15.8828 O.3       1 MOL    -0.4254
     12 O         -20.6213  -32.1725   16.3080 O.co2     1 MOL    -0.5445
     13 O         -22.4549  -33.4179   16.7140 O.co2     1 MOL    -0.5445
     14 H         -24.9080  -36.9941   17.7154 H         1 MOL     0.0342
     15 H         -24.7695  -37.0709   15.9164 H         1 MOL     0.0342
     16 H         -24.7891  -35.4727   16.7536 H         1 MOL     0.0342
     17 H         -20.6994  -37.8344   15.2075 H         1 MOL     0.0654
     18 H         -18.2655  -37.5525   14.9004 H         1 MOL     0.0619
     19 H         -17.2309  -35.3285   15.2346 H         1 MOL     0.0618
     20 H         -18.6241  -33.4018   15.8757 H         1 MOL     0.0625
@<TRIPOS>BOND
     1    1    2 1 
     2    1   14 1 
     3    1   15 1 
     4    1   16 1 
     5    2   10 2 
     6    2   11 1 
     7    3    4 ar
     8    3    8 ar
     9    3   11 1 
    10    4    5 ar
    11    4   17 1 
    12    5    6 ar
    13    5   18 1 
    14    6    7 ar
    15    6   19 1 
    16    7    8 ar
    17    7   20 1 
    18    8    9 1 
    19    9   12 ar
    20    9   13 ar
@<TRIPOS>SUBSTRUCTURE
1 MOL         1
@<TRIPOS>MOLECULE
query molecule
   20    20     1     0     0
SMALL
NO_CHARGE

@<TRIPOS>ATOM
      1 C         -38.5316  -69.6454   13.8665 C.3       1 MOL     0.1362
      2 C         -38.4342  -71.1383   13.6174 C.2       1 MOL     0.3092
      3 C         -39.2308  -73.1059   14.6382 C.ar      1 MOL     0.1404
      4 C         -40.3302  -73.6942   13.9847 C.ar      1 MOL     0.0468
      5 C         -40.5462  -75.0719   14.0580 C.ar      1 MOL     0.0037
      6 C         -39.6634  -75.8758   14.7811 C.ar      1 MOL     0.0009
      7 C         -38.5554  -75.3015   15.4063 C.ar      1 MOL     0.0131
      8 C         -38.3191  -73.9124   15.3398 C.ar      1 MOL     0.0397
      9 C         -37.0819  -73.3726   16.0234 C.2       1 MOL     0.0752
     10 O         -37.8329  -71.6600   12.6950 O.2       1 MOL    -0.2507
     11 O         -39.0771  -71.7409   14.5868 O.3       1 MOL    -0.4254
     12 O         -36.8788  -72.1208   16.0650 O.co2     1 MOL    -0.5445
     13 O         -36.2877  -74.2446   16.4970 O.co2     1 MOL    -0.5445
     14 H         -38.1650  -69.0759   12.9899 H         1 MOL     0.0342
     15 H         -37.9121  -69.3856   14.7510 H         1 MOL     0.0342
     16 H         -39.5825  -69.3596   14.0782 H         1 MOL     0.0342
     17 H         -41.0179  -73.0772   13.4235 H         1 MOL     0.0654
     18 H         -41.3985  -75.5150   13.5626 H         1 MOL     0.0619
     19 H         -39.8383  -76.9402   14.8519 H         1 MOL     0.0618
     20 H         -37.8683  -75.9377   15.9492 H         1 MOL     0.0625
@<TRIPOS>BOND
     1    1    2 1 
     2    1   14 1 
     3    1   15 1 
     4    1   16 1 
     5    2   10 2 
     6    2   11 1 
     7    3    4 ar
     8    3    8 ar
     9    3   11 1 
    10    4    5 ar
    11    4   17 1 
    12    5    6 ar
    13    5   18 1 
    14    6    7 ar
    15    6   19 1 
    16    7    8 ar
    17    7   20 1 
    18    8    9 1 
    19    9   12 ar
    20    9   13 ar
@<TRIPOS>SUBSTRUCTURE
1 MOL         1
@<TRIPOS>MOLECULE
query molecule
   20    20     1     0     0
SMALL
NO_CHARGE

@<TRIPOS>ATOM
      1 C         -65.9946  -44.5514    8.1134 C.3       1 MOL     0.1362
      2 C         -65.8510  -45.8560    7.3384 C.2       1 MOL     0.3092
      3 C         -67.3459  -47.5103    6.5602 C.ar      1 MOL     0.1404
      4 C         -67.1314  -47.8473    5.2182 C.ar      1 MOL     0.0468
      5 C         -67.4524  -49.1201    4.7415 C.ar      1 MOL     0.0037
      6 C         -67.9901  -50.0735    5.5991 C.ar      1 MOL     0.0009
      7 C         -68.2091  -49.7481    6.9354 C.ar      1 MOL     0.0131
      8 C         -67.9038  -48.4654    7.4374 C.ar      1 MOL     0.0397
      9 C         -68.2116  -48.2022    8.9018 C.2       1 MOL     0.0752
     10 O         -64.7836  -46.4093    7.1250 O.2       1 MOL    -0.2507
     11 O         -67.0402  -46.2524    7.0085 O.3       1 MOL    -0.4254
     12 O         -67.9452  -47.0585    9.3703 O.co2     1 MOL    -0.5445
     13 O         -68.7281  -49.1673    9.5457 O.co2     1 MOL    -0.5445
     14 H         -65.0037  -44.1828    8.4429 H         1 MOL     0.0342
     15 H         -66.6293  -44.7196    9.0117 H         1 MOL     0.0342
     16 H         -66.4740  -43.7800    7.4797 H         1 MOL     0.0342
     17 H         -66.7164  -47.1146    4.5412 H         1 MOL     0.0654
     18 H         -67.2798  -49.3647    3.7028 H         1 MOL     0.0619
     19 H         -68.2381  -51.0567    5.2313 H         1 MOL     0.0618
     20 H         -68.6276  -50.4927    7.6000 H         1 MOL     0.0625
@<TRIPOS>BOND
     1    1    2 1 
     2    1   14 1 
     3    1   15 1 
     4    1   16 1 
     5    2   10 2 
     6    2   11 1 
     7    3    4 ar
     8    3    8 ar
     9    3   11 1 
    10    4    5 ar
    11    4   17 1 
    12    5    6 ar
    13    5   18 1 
    14    6    7 ar
    15    6   19 1 
    16    7    8 ar
    17    7   20 1 
    18    8    9 1 
    19    9   12 ar
    20    9   13 ar
@<TRIPOS>SUBSTRUCTURE
1 MOL         1
@<TRIPOS>MOLECULE
query molecule
   20    20     1     0     0
SMALL
NO_CHARGE

@<TRIPOS>ATOM
      1 C         -20.9460  -66.6024  -22.3651 C.3       1 MOL     0.1362
      2 C         -21.0718  -65.2773  -21.6371 C.2       1 MOL     0.3092
      3 C         -19.7451  -64.1037  -20.0938 C.ar      1 MOL     0.1404
      4 C         -19.6417  -62.7727  -20.5349 C.ar      1 MOL     0.0468
      5 C         -19.3569  -61.7496  -19.6323 C.ar      1 MOL     0.0037
      6 C         -19.1585  -62.0477  -18.2844 C.ar      1 MOL     0.0009
      7 C         -19.2743  -63.3630  -17.8392 C.ar      1 MOL     0.0131
      8 C         -19.5920  -64.4068  -18.7280 C.ar      1 MOL     0.0397
      9 C         -19.7570  -65.8051  -18.1543 C.2       1 MOL     0.0752
     10 O         -22.0517  -64.5534  -21.6606 O.2       1 MOL    -0.2507
     11 O         -19.9688  -65.0921  -21.0083 O.3       1 MOL    -0.4254
     12 O         -19.8662  -66.7682  -18.9678 O.co2     1 MOL    -0.5445
     13 O         -19.8265  -65.8921  -16.8901 O.co2     1 MOL    -0.5445
     14 H         -21.7792  -66.7435  -23.0795 H         1 MOL     0.0342
     15 H         -20.9571  -67.4271  -21.6213 H         1 MOL     0.0342
     16 H         -19.9816  -66.6309  -22.9138 H         1 MOL     0.0342
     17 H         -19.7867  -62.5415  -21.5811 H         1 MOL     0.0654
     18 H         -19.2873  -60.7289  -19.9778 H         1 MOL     0.0619
     19 H         -18.9130  -61.2616  -17.5866 H         1 MOL     0.0618
     20 H         -19.1030  -63.5920  -16.7967 H         1 MOL     0.0625
@<TRIPOS>BOND
     1    1    2 1 
     2    1   14 1 
     3    1   15 1 
     4    1   16 1 
     5    2   10 2 
     6    2   11 1 
     7    3    4 ar
     8    3    8 ar
     9    3   11 1 
    10    4    5 ar
    11    4   17 1 
    12    5    6 ar
    13    5   18 1 
    14    6    7 ar
    15    6   19 1 
    16    7    8 ar
    17    7   20 1 
    18    8    9 1 
    19    9   12 ar
    20    9   13 ar
@<TRIPOS>SUBSTRUCTURE
1 MOL         1
@<TRIPOS>MOLECULE
query molecule
   20    20     1     0     0
SMALL
NO_CHARGE

@<TRIPOS>ATOM
      1 C         -33.4337  -75.4293   -6.6917 C.3       1 MOL     0.1362
      2 C         -33.3171  -73.9694   -7.0557 C.2       1 MOL     0.3092
      3 C         -32.7030  -72.8176   -8.9975 C.ar      1 MOL     0.1404
      4 C         -33.7010  -71.9038   -9.3885 C.ar      1 MOL     0.0468
      5 C         -33.3711  -70.7822  -10.1474 C.ar      1 MOL     0.0037
      6 C         -32.0520  -70.5838  -10.5383 C.ar      1 MOL     0.0009
      7 C         -31.0639  -71.4894  -10.1626 C.ar      1 MOL     0.0131
      8 C         -31.3600  -72.5996   -9.3544 C.ar      1 MOL     0.0397
      9 C         -30.1903  -73.4588   -8.9009 C.2       1 MOL     0.0752
     10 O         -33.4324  -73.0283   -6.2775 O.2       1 MOL    -0.2507
     11 O         -33.0635  -73.9268   -8.2977 O.3       1 MOL    -0.4254
     12 O         -29.0360  -73.0995   -9.2975 O.co2     1 MOL    -0.5445
     13 O         -30.4365  -74.4472   -8.1515 O.co2     1 MOL    -0.5445
     14 H         -33.8280  -75.5541   -5.6693 H         1 MOL     0.0342
     15 H         -32.4339  -75.9130   -6.7592 H         1 MOL     0.0342
     16 H         -34.1139  -75.9349   -7.4109 H         1 MOL     0.0342
     17 H         -34.7300  -72.0629   -9.0954 H         1 MOL     0.0654
     18 H         -34.1327  -70.0750  -10.4373 H         1 MOL     0.0619
     19 H         -31.7888  -69.7245  -11.1337 H         1 MOL     0.0618
     20 H         -30.0440  -71.3257  -10.4873 H         1 MOL     0.0625
@<TRIPOS>BOND
     1    1    2 1 
     2    1   14 1 
     3    1   15 1 
     4    1   16 1 
     5    2   10 2 
     6    2   11 1 
     7    3    4 ar
     8    3    8 ar
     9    3   11 1 
    10    4    5 ar
    11    4   17 1 
    12    5    6 ar
    13    5   18 1 
    14    6    7 ar
    15    6   19 1 
    16    7    8 ar
    17    7   20 1 
    18    8    9 1 
    19    9   12 ar
    20    9   13 ar
@<TRIPOS>SUBSTRUCTURE
1 MOL         1
@<TRIPOS>MOLECULE
query molecule
   20    20     1     0     0
SMALL
NO_CHARGE

@<TRIPOS>ATOM
      1 C         -57.3733  -49.4031   25.3449 C.3       1 MOL     0.1362
      2 C         -58.6428  -48.9525   24.6440 C.2       1 MOL     0.3092
      3 C         -60.3553  -47.3750   24.9671 C.ar      1 MOL     0.1404
      4 C         -61.5471  -47.9667   25.4331 C.ar      1 MOL     0.0468
      5 C         -62.7862  -47.4163   25.1105 C.ar      1 MOL     0.0037
      6 C         -62.8489  -46.2698   24.3193 C.ar      1 MOL     0.0009
      7 C         -61.6737  -45.6887   23.8432 C.ar      1 MOL     0.0131
      8 C         -60.4113  -46.2269   24.1649 C.ar      1 MOL     0.0397
      9 C         -59.1992  -45.5062   23.6178 C.2       1 MOL     0.0752
     10 O         -59.0872  -49.4565   23.6196 O.2       1 MOL    -0.2507
     11 O         -59.1564  -47.9508   25.3265 O.3       1 MOL    -0.4254
     12 O         -58.0484  -45.9094   23.9747 O.co2     1 MOL    -0.5445
     13 O         -59.4070  -44.5332   22.8218 O.co2     1 MOL    -0.5445
     14 H         -56.9345  -50.2754   24.8207 H         1 MOL     0.0342
     15 H         -57.6047  -49.6892   26.3921 H         1 MOL     0.0342
     16 H         -56.6330  -48.5770   25.3557 H         1 MOL     0.0342
     17 H         -61.4969  -48.8573   26.0439 H         1 MOL     0.0654
     18 H         -63.6926  -47.8773   25.4739 H         1 MOL     0.0619
     19 H         -63.8059  -45.8328   24.0773 H         1 MOL     0.0618
     20 H         -61.7315  -44.8056   23.2211 H         1 MOL     0.0625
@<TRIPOS>BOND
     1    1    2 1 
     2    1   14 1 
     3    1   15 1 
     4    1   16 1 
     5    2   10 2 
     6    2   11 1 
     7    3    4 ar
     8    3    8 ar
     9    3   11 1 
    10    4    5 ar
    11    4   17 1 
    12    5    6 ar
    13    5   18 1 
    14    6    7 ar
    15    6   19 1 
    16    7    8 ar
    17    7   20 1 
    18    8    9 1 
    19    9   12 ar
    20    9   13 ar
@<TRIPOS>SUBSTRUCTURE
1 MOL         1
@<TRIPOS>MOLECULE
query molecule
   20    20     1     0     0
SMALL
NO_CHARGE

@<TRIPOS>ATOM
      1 C          -5.6091  -40.4058    5.4423 C.3       1 MOL     0.1362
      2 C          -5.2888  -38.9168    5.4232 C.2       1 MOL     0.3092
      3 C          -4.1018  -37.3632    6.7359 C.ar      1 MOL     0.1404
      4 C          -4.9402  -36.3463    7.2280 C.ar      1 MOL     0.0468
      5 C          -4.4457  -35.0610    7.4487 C.ar      1 MOL     0.0037
      6 C          -3.1030  -34.7816    7.1977 C.ar      1 MOL     0.0009
      7 C          -2.2606  -35.7945    6.7384 C.ar      1 MOL     0.0131
      8 C          -2.7450  -37.0976    6.4936 C.ar      1 MOL     0.0397
      9 C          -1.7531  -38.1304    5.9862 C.2       1 MOL     0.0752
     10 O          -5.5842  -38.1589    4.5147 O.2       1 MOL    -0.2507
     11 O          -4.6250  -38.6187    6.5256 O.3       1 MOL    -0.4254
     12 O          -2.1657  -39.2925    5.6954 O.co2     1 MOL    -0.5445
     13 O          -0.5572  -37.7186    5.8742 O.co2     1 MOL    -0.5445
     14 H          -6.1731  -40.6861    4.5302 H         1 MOL     0.0342
     15 H          -6.2138  -40.6638    6.3349 H         1 MOL     0.0342
     16 H          -4.6691  -40.9959    5.4716 H         1 MOL     0.0342
     17 H          -5.9786  -36.5615    7.4407 H         1 MOL     0.0654
     18 H          -5.0988  -34.2838    7.8173 H         1 MOL     0.0619
     19 H          -2.7188  -33.7852    7.3620 H         1 MOL     0.0618
     20 H          -1.2156  -35.5694    6.5656 H         1 MOL     0.0625
@<TRIPOS>BOND
     1    1    2 1 
     2    1   14 1 
     3    1   15 1 
     4    1   16 1 
     5    2   10 2 
     6    2   11 1 
     7    3    4 ar
     8    3    8 ar
     9    3   11 1 
    10    4    5 ar
    11    4   17 1 
    12    5    6 ar
    13    5   18 1 
    14    6    7 ar
    15    6   19 1 
    16    7    8 ar
    17    7   20 1 
    18    8    9 1 
    19    9   12 ar
    20    9   13 ar
@<TRIPOS>SUBSTRUCTURE
1 MOL         1
@<TRIPOS>MOLECULE
query molecule
   20    20     1     0     0
SMALL
NO_CHARGE

@<TRIPOS>ATOM
      1 C          -3.0585  -59.4372  -13.8334 C.3       1 MOL     0.1362
      2 C          -3.7946  -60.4595  -12.9739 C.2       1 MOL     0.3092
      3 C          -6.0345  -61.0342  -12.4850 C.ar      1 MOL     0.1404
      4 C          -6.2680  -62.2276  -13.2036 C.ar      1 MOL     0.0468
      5 C          -7.2286  -63.1400  -12.7768 C.ar      1 MOL     0.0037
      6 C          -7.9747  -62.8731  -11.6310 C.ar      1 MOL     0.0009
      7 C          -7.7467  -61.6997  -10.9114 C.ar      1 MOL     0.0131
      8 C          -6.7762  -60.7640  -11.3275 C.ar      1 MOL     0.0397
      9 C          -6.6016  -59.5234  -10.4733 C.2       1 MOL     0.0752
     10 O          -3.2529  -61.3889  -12.3985 O.2       1 MOL    -0.2507
     11 O          -5.0803  -60.1617  -12.9673 O.3       1 MOL    -0.4254
     12 O          -7.2560  -59.4998   -9.3861 O.co2     1 MOL    -0.5445
     13 O          -5.8011  -58.6259  -10.8726 O.co2     1 MOL    -0.5445
     14 H          -1.9813  -59.6986  -13.8941 H         1 MOL     0.0342
     15 H          -3.1546  -58.4271  -13.3876 H         1 MOL     0.0342
     16 H          -3.4802  -59.4188  -14.8598 H         1 MOL     0.0342
     17 H          -5.6897  -62.4340  -14.0952 H         1 MOL     0.0654
     18 H          -7.3954  -64.0486  -13.3356 H         1 MOL     0.0619
     19 H          -8.7288  -63.5739  -11.3030 H         1 MOL     0.0618
     20 H          -8.3274  -61.5047  -10.0188 H         1 MOL     0.0625
@<TRIPOS>BOND
     1    1    2 1 
     2    1   14 1 
     3    1   15 1 
     4    1   16 1 
     5    2   10 2 
     6    2   11 1 
     7    3    4 ar
     8    3    8 ar
     9    3   11 1 
    10    4    5 ar
    11    4   17 1 
    12    5    6 ar
    13    5   18 1 
    14    6    7 ar
    15    6   19 1 
    16    7    8 ar
    17    7   20 1 
    18    8    9 1 
    19    9   12 ar
    20    9   13 ar
@<TRIPOS>SUBSTRUCTURE
1 MOL         1
@<TRIPOS>MOLECULE
query molecule
   20    20     1     0     0
SMALL
NO_CHARGE

@<TRIPOS>ATOM
      1 C         -32.6055  -25.5480   17.5771 C.3       1 MOL     0.1362
      2 C         -31.5193  -26.6162   17.4771 C.2       1 MOL     0.3092
      3 C         -29.3806  -26.9550   18.4246 C.ar      1 MOL     0.1404
      4 C         -29.3820  -27.8113   19.5486 C.ar      1 MOL     0.0468
      5 C         -28.2657  -28.5851   19.8579 C.ar      1 MOL     0.0037
      6 C         -27.1301  -28.5104   19.0548 C.ar      1 MOL     0.0009
      7 C         -27.1167  -27.6644   17.9467 C.ar      1 MOL     0.0131
      8 C         -28.2342  -26.8692   17.6203 C.ar      1 MOL     0.0397
      9 C         -28.1035  -25.9572   16.4136 C.2       1 MOL     0.0752
     10 O         -31.6335  -27.6609   16.8604 O.2       1 MOL    -0.2507
     11 O         -30.5026  -26.2086   18.1779 O.3       1 MOL    -0.4254
     12 O         -29.0870  -25.2117   16.1297 O.co2     1 MOL    -0.5445
     13 O         -27.0022  -26.0070   15.7829 O.co2     1 MOL    -0.5445
     14 H         -33.5023  -25.8496   16.9992 H         1 MOL     0.0342
     15 H         -32.2237  -24.5894   17.1715 H         1 MOL     0.0342
     16 H         -32.9020  -25.3919   18.6372 H         1 MOL     0.0342
     17 H         -30.2613  -27.8752   20.1747 H         1 MOL     0.0654
     18 H         -28.2803  -29.2416   20.7153 H         1 MOL     0.0619
     19 H         -26.2612  -29.1070   19.2920 H         1 MOL     0.0618
     20 H         -26.2291  -27.6179   17.3290 H         1 MOL     0.0625
@<TRIPOS>BOND
     1    1    2 1 
     2    1   14 1 
     3    1   15 1 
     4    1   16 1 
     5    2   10 2 
     6    2   11 1 
     7    3    4 ar
     8    3    8 ar
     9    3   11 1 
    10    4    5 ar
    11    4   17 1 
    12    5    6 ar
    13    5   18 1 
    14    6    7 ar
    15    6   19 1 
    16    7    8 ar
    17    7   20 1 
    18    8    9 1 
    19    9   12 ar
    20    9   13 ar
@<TRIPOS>SUBSTRUCTURE
1 MOL         1
@<TRIPOS>MOLECULE
query molecule
   20    20     1     0     0
SMALL
NO_CHARGE

@<TRIPOS>ATOM
      1 C         -14.7092  -67.6839   27.1437 C.3       1 MOL     0.1362
      2 C         -15.9717  -67.6269   26.2759 C.2       1 MOL     0.3092
      3 C         -15.3633  -65.4838   25.4140 C.ar      1 MOL     0.1404
      4 C         -15.7085  -64.4419   26.2956 C.ar      1 MOL     0.0468
      5 C         -15.0970  -63.2011   26.2281 C.ar      1 MOL     0.0037
      6 C         -14.0981  -62.9779   25.2824 C.ar      1 MOL     0.0009
      7 C         -13.7302  -64.0050   24.4172 C.ar      1 MOL     0.0131
      8 C         -14.3540  -65.2721   24.4719 C.ar      1 MOL     0.0397
      9 C         -13.8434  -66.2940   23.4731 C.2       1 MOL     0.0752
     10 O         -16.8309  -68.5099   26.3199 O.2       1 MOL    -0.2507
     11 O         -16.0621  -66.6203   25.4851 O.3       1 MOL    -0.4254
     12 O         -14.3068  -67.4680   23.5270 O.co2     1 MOL    -0.5445
     13 O         -12.9654  -65.8815   22.6524 O.co2     1 MOL    -0.5445
     14 H         -14.8209  -68.4859   27.9057 H         1 MOL     0.0342
     15 H         -14.5186  -66.7243   27.6609 H         1 MOL     0.0342
     16 H         -13.8344  -67.9323   26.5068 H         1 MOL     0.0342
     17 H         -16.4866  -64.6204   27.0371 H         1 MOL     0.0654
     18 H         -15.3921  -62.4114   26.9046 H         1 MOL     0.0619
     19 H         -13.6137  -62.0149   25.2207 H         1 MOL     0.0618
     20 H         -12.9440  -63.8286   23.6945 H         1 MOL     0.0625
@<TRIPOS>BOND
     1    1    2 1 
     2    1   14 1 
     3    1   15 1 
     4    1   16 1 
     5    2   10 2 
     6    2   11 1 
     7    3    4 ar
     8    3    8 ar
     9    3   11 1 
    10    4    5 ar
    11    4   17 1 
    12    5    6 ar
    13    5   18 1 
    14    6    7 ar
    15    6   19 1 
    16    7    8 ar
    17    7   20 1 
    18    8    9 1 
    19    9   12 ar
    20    9   13 ar
@<TRIPOS>SUBSTRUCTURE
1 MOL         1
@<TRIPOS>MOLECULE
query molecule
   20    20     1     0     0
SMALL
NO_CHARGE

@<TRIPOS>ATOM
      1 C          -6.2886  -32.5336    4.0089 C.3       1 MOL     0.1362
      2 C          -6.6865  -32.3640    2.5436 C.2       1 MOL     0.3092
      3 C          -6.5484  -30.7142    0.8529 C.ar      1 MOL     0.1404
      4 C          -7.8107  -30.3326    0.3518 C.ar      1 MOL     0.0468
      5 C          -7.9620  -29.9257   -0.9752 C.ar      1 MOL     0.0037
      6 C          -6.8520  -29.8966   -1.8202 C.ar      1 MOL     0.0009
      7 C          -5.5976  -30.2638   -1.3263 C.ar      1 MOL     0.0131
      8 C          -5.4125  -30.6658    0.0185 C.ar      1 MOL     0.0397
      9 C          -3.9852  -30.9924    0.4709 C.2       1 MOL     0.0752
     10 O          -7.1068  -33.2659    1.8375 O.2       1 MOL    -0.2507
     11 O          -6.4506  -31.1097    2.1760 O.3       1 MOL    -0.4254
     12 O          -3.7998  -31.4362    1.6434 O.co2     1 MOL    -0.5445
     13 O          -3.0682  -30.7884   -0.3855 O.co2     1 MOL    -0.5445
     14 H          -6.4514  -33.5864    4.3205 H         1 MOL     0.0342
     15 H          -6.8876  -31.8614    4.6541 H         1 MOL     0.0342
     16 H          -5.2128  -32.2920    4.1367 H         1 MOL     0.0342
     17 H          -8.6758  -30.3539    1.0014 H         1 MOL     0.0654
     18 H          -8.9339  -29.6373   -1.3485 H         1 MOL     0.0619
     19 H          -6.9667  -29.5893   -2.8509 H         1 MOL     0.0618
     20 H          -4.7404  -30.2327   -1.9884 H         1 MOL     0.0625
@<TRIPOS>BOND
     1    1    2 1 
     2    1   14 1 
     3    1   15 1 
     4    1   16 1 
     5    2   10 2 
     6    2   11 1 
     7    3    4 ar
     8    3    8 ar
     9    3   11 1 
    10    4    5 ar
    11    4   17 1 
    12    5    6 ar
    13    5   18 1 
    14    6    7 ar
    15    6   19 1 
    16    7    8 ar
    17    7   20 1 
    18    8    9 1 
    19    9   12 ar
    20    9   13 ar
@<TRIPOS>SUBSTRUCTURE
1 MOL         1
@<TRIPOS>MOLECULE
query molecule
   20    20     1     0     0
SMALL
NO_CHARGE

@<TRIPOS>ATOM
      1 C         -33.2245  -18.4008   -6.9137 C.3       1 MOL     0.1362
      2 C         -33.7263  -19.6483   -6.1884 C.2       1 MOL     0.3092
      3 C         -35.4459  -21.2574   -6.4202 C.ar      1 MOL     0.1404
      4 C         -36.2678  -21.3167   -5.2752 C.ar      1 MOL     0.0468
      5 C         -36.8827  -22.5113   -4.8954 C.ar      1 MOL     0.0037
      6 C         -36.6822  -23.6642   -5.6555 C.ar      1 MOL     0.0009
      7 C         -35.8771  -23.6086   -6.7962 C.ar      1 MOL     0.0131
      8 C         -35.2538  -22.4077   -7.2130 C.ar      1 MOL     0.0397
      9 C         -34.4389  -22.4451   -8.5102 C.2       1 MOL     0.0752
     10 O         -33.1357  -20.1929   -5.2701 O.2       1 MOL    -0.2507
     11 O         -34.8588  -20.0491   -6.7548 O.3       1 MOL    -0.4254
     12 O         -33.9033  -21.3756   -8.9292 O.co2     1 MOL    -0.5445
     13 O         -34.3584  -23.5755   -9.0861 O.co2     1 MOL    -0.5445
     14 H         -32.2611  -18.0733   -6.4701 H         1 MOL     0.0342
     15 H         -33.9649  -17.5809   -6.8333 H         1 MOL     0.0342
     16 H         -33.0566  -18.6314   -7.9863 H         1 MOL     0.0342
     17 H         -36.4267  -20.4267   -4.6808 H         1 MOL     0.0654
     18 H         -37.5088  -22.5453   -4.0157 H         1 MOL     0.0619
     19 H         -37.1506  -24.5932   -5.3601 H         1 MOL     0.0618
     20 H         -35.7316  -24.5076   -7.3832 H         1 MOL     0.0625
@<TRIPOS>BOND
     1    1    2 1 
     2    1   14 1 
     3    1   15 1 
     4    1   16 1 
     5    2   10 2 
     6    2   11 1 
     7    3    4 ar
     8    3    8 ar
     9    3   11 1 
    10    4    5 ar
    11    4   17 1 
    12    5    6 ar
    13    5   18 1 
    14    6    7 ar
    15    6   19 1 
    16    7    8 ar
    17    7   20 1 
    18    8    9 1 
    19    9   12 ar
    20    9   13 ar
@<TRIPOS>SUBSTRUCTURE
1 MOL         1
@<TRIPOS>MOLECULE
query molecule
   20    20     1     0     0
SMALL
NO_CHARGE

@<TRIPOS>ATOM
      1 C         -13.2651  -47.5145  -18.0258 C.3       1 MOL     0.1362
      2 C         -11.8093  -47.1523  -17.7781 C.2       1 MOL     0.3092
      3 C         -10.3020  -47.1558  -15.9643 C.ar      1 MOL     0.1404
      4 C          -9.9922  -45.8426  -15.5478 C.ar      1 MOL     0.0468
      5 C          -8.7706  -45.5536  -14.9452 C.ar      1 MOL     0.0037
      6 C          -7.8504  -46.5779  -14.7333 C.ar      1 MOL     0.0009
      7 C          -8.1546  -47.8806  -15.1365 C.ar      1 MOL     0.0131
      8 C          -9.3745  -48.1938  -15.7734 C.ar      1 MOL     0.0397
      9 C          -9.6034  -49.6365  -16.2167 C.2       1 MOL     0.0752
     10 O         -11.0431  -46.7383  -18.6294 O.2       1 MOL    -0.2507
     11 O         -11.5449  -47.3791  -16.5167 O.3       1 MOL    -0.4254
     12 O         -10.6463  -49.8833  -16.8932 O.co2     1 MOL    -0.5445
     13 O          -8.7348  -50.5014  -15.8861 O.co2     1 MOL    -0.5445
     14 H         -13.5449  -47.2920  -19.0747 H         1 MOL     0.0342
     15 H         -13.9189  -46.9350  -17.3422 H         1 MOL     0.0342
     16 H         -13.4159  -48.5962  -17.8331 H         1 MOL     0.0342
     17 H         -10.7164  -45.0529  -15.6988 H         1 MOL     0.0654
     18 H          -8.5418  -44.5428  -14.6425 H         1 MOL     0.0619
     19 H          -6.9054  -46.3591  -14.2579 H         1 MOL     0.0618
     20 H          -7.4296  -48.6632  -14.9570 H         1 MOL     0.0625
@<TRIPOS>BOND
     1    1    2 1 
     2    1   14 1 
     3    1   15 1 
     4    1   16 1 
     5    2   10 2 
     6    2   11 1 
     7    3    4 ar
     8    3    8 ar
     9    3   11 1 
    10    4    5 ar
    11    4   17 1 
    12    5    6 ar
    13    5   18 1 
    14    6    7 ar
    15    6   19 1 
    16    7    8 ar
    17    7   20 1 
    18    8    9 1 
    19    9   12 ar
    20    9   13 ar
@<TRIPOS>SUBSTRUCTURE
1 MOL         1
@<TRIPOS>MOLECULE
query molecule
   20    20     1     0     0
SMALL
NO_CHARGE

@<TRIPOS>ATOM
      1 C         -37.8279  -69.9666    2.2473 C.3       1 MOL     0.1362
      2 C         -36.7165  -69.5866    3.2243 C.2       1 MOL     0.3092
      3 C         -35.6763  -70.4790    5.1533 C.ar      1 MOL     0.1404
      4 C         -35.8212  -69.7009    6.3211 C.ar      1 MOL     0.0468
      5 C         -34.8215  -69.6776    7.2955 C.ar      1 MOL     0.0037
      6 C         -33.6614  -70.4315    7.1140 C.ar      1 MOL     0.0009
      7 C         -33.5171  -71.2117    5.9639 C.ar      1 MOL     0.0131
      8 C         -34.5211  -71.2661    4.9671 C.ar      1 MOL     0.0397
      9 C         -34.2857  -72.1983    3.7738 C.2       1 MOL     0.0752
     10 O         -35.9561  -68.6455    3.0668 O.2       1 MOL    -0.2507
     11 O         -36.6961  -70.4685    4.2171 O.3       1 MOL    -0.4254
     12 O         -35.1479  -72.2364    2.8457 O.co2     1 MOL    -0.5445
     13 O         -33.2151  -72.8831    3.8036 O.co2     1 MOL    -0.5445
     14 H         -37.8356  -69.2549    1.3955 H         1 MOL     0.0342
     15 H         -38.8131  -69.9465    2.7533 H         1 MOL     0.0342
     16 H         -37.6469  -70.9872    1.8504 H         1 MOL     0.0342
     17 H         -36.7178  -69.1132    6.4677 H         1 MOL     0.0654
     18 H         -34.9426  -69.0767    8.1851 H         1 MOL     0.0619
     19 H         -32.8814  -70.4098    7.8629 H         1 MOL     0.0618
     20 H         -32.6154  -71.7981    5.8342 H         1 MOL     0.0625
@<TRIPOS>BOND
     1    1    2 1 
     2    1   14 1 
     3    1   15 1 
     4    1   16 1 
     5    2   10 2 
     6    2   11 1 
     7    3    4 ar
     8    3    8 ar
     9    3   11 1 
    10    4    5 ar
    11    4   17 1 
    12    5    6 ar
    13    5   18 1 
    14    6    7 ar
    15    6   19 1 
    16    7    8 ar
    17    7   20 1 
    18    8    9 1 
    19    9   12 ar
    20    9   13 ar
@<TRIPOS>SUBSTRUCTURE
1 MOL         1
@<TRIPOS>MOLECULE
query molecule
   20    20     1     0     0
SMALL
NO_CHARGE

@<TRIPOS>ATOM
      1 C         -62.6160  -57.9709   20.2207 C.3       1 MOL     0.1362
      2 C         -62.6989  -57.9522   21.7395 C.2       1 MOL     0.3092
      3 C         -63.5197  -56.5195   23.4125 C.ar      1 MOL     0.1404
      4 C         -64.4896  -57.1729   24.1965 C.ar      1 MOL     0.0468
      5 C         -64.6715  -56.8254   25.5365 C.ar      1 MOL     0.0037
      6 C         -63.9017  -55.8067   26.0998 C.ar      1 MOL     0.0009
      7 C         -62.9431  -55.1503   25.3268 C.ar      1 MOL     0.0131
      8 C         -62.7216  -55.5133   23.9827 C.ar      1 MOL     0.0397
      9 C         -61.6295  -54.7799   23.2355 C.2       1 MOL     0.0752
     10 O         -62.1982  -58.7845   22.4713 O.2       1 MOL    -0.2507
     11 O         -63.3778  -56.8773   22.0879 O.3       1 MOL    -0.4254
     12 O         -61.4631  -55.0329   22.0068 O.co2     1 MOL    -0.5445
     13 O         -60.9706  -53.9197   23.8970 O.co2     1 MOL    -0.5445
     14 H         -62.0196  -58.8480   19.8940 H         1 MOL     0.0342
     15 H         -62.1203  -57.0483   19.8573 H         1 MOL     0.0342
     16 H         -63.6293  -58.0404   19.7790 H         1 MOL     0.0342
     17 H         -65.0965  -57.9580   23.7658 H         1 MOL     0.0654
     18 H         -65.4008  -57.3463   26.1404 H         1 MOL     0.0619
     19 H         -64.0433  -55.5322   27.1352 H         1 MOL     0.0618
     20 H         -62.3628  -54.3495   25.7680 H         1 MOL     0.0625
@<TRIPOS>BOND
     1    1    2 1 
     2    1   14 1 
     3    1   15 1 
     4    1   16 1 
     5    2   10 2 
     6    2   11 1 
     7    3    4 ar
     8    3    8 ar
     9    3   11 1 
    10    4    5 ar
    11    4   17 1 
    12    5    6 ar
    13    5   18 1 
    14    6    7 ar
    15    6   19 1 
    16    7    8 ar
    17    7   20 1 
    18    8    9 1 
    19    9   12 ar
    20    9   13 ar
@<TRIPOS>SUBSTRUCTURE
1 MOL         1
@<TRIPOS>MOLECULE
query molecule
   20    20     1     0     0
SMALL
NO_CHARGE

@<TRIPOS>ATOM
      1 C         -39.7676  -75.3123   -9.4609 C.3       1 MOL     0.1362
      2 C         -41.0837  -74.8820  -10.1032 C.2       1 MOL     0.3092
      3 C         -41.7204  -73.4419  -11.8693 C.ar      1 MOL     0.1404
      4 C         -42.3669  -74.1170  -12.9155 C.ar      1 MOL     0.0468
      5 C         -43.3045  -73.4671  -13.7187 C.ar      1 MOL     0.0037
      6 C         -43.6045  -72.1279  -13.4837 C.ar      1 MOL     0.0009
      7 C         -42.9671  -71.4471  -12.4479 C.ar      1 MOL     0.0131
      8 C         -42.0078  -72.0834  -11.6351 C.ar      1 MOL     0.0397
      9 C         -41.3525  -71.2468  -10.5643 C.2       1 MOL     0.0752
     10 O         -42.1874  -75.2010   -9.7004 O.2       1 MOL    -0.2507
     11 O         -40.7954  -74.1087  -11.1091 O.3       1 MOL    -0.4254
     12 O         -40.5536  -71.8149   -9.7647 O.co2     1 MOL    -0.5445
     13 O         -41.6369  -70.0137  -10.5461 O.co2     1 MOL    -0.5445
     14 H         -39.9576  -75.9581   -8.5808 H         1 MOL     0.0342
     15 H         -39.2004  -74.4158   -9.1294 H         1 MOL     0.0342
     16 H         -39.1491  -75.8728  -10.1908 H         1 MOL     0.0342
     17 H         -42.1422  -75.1593  -13.1054 H         1 MOL     0.0654
     18 H         -43.7999  -74.0018  -14.5175 H         1 MOL     0.0619
     19 H         -44.3279  -71.6207  -14.1032 H         1 MOL     0.0618
     20 H         -43.2071  -70.4062  -12.2754 H         1 MOL     0.0625
@<TRIPOS>BOND
     1    1    2 1 
     2    1   14 1 
     3    1   15 1 
     4    1   16 1 
     5    2   10 2 
     6    2   11 1 
     7    3    4 ar
     8    3    8 ar
     9    3   11 1 
    10    4    5 ar
    11    4   17 1 
    12    5    6 ar
    13    5   18 1 
    14    6    7 ar
    15    6   19 1 
    16    7    8 ar
    17    7   20 1 
    18    8    9 1 
    19    9   12 ar
    20    9   13 ar
@<TRIPOS>SUBSTRUCTURE
1 MOL         1
@<TRIPOS>MOLECULE
query molecule
   20    20     1     0     0
SMALL
NO_CHARGE

@<TRIPOS>ATOM
      1 C         -50.3993  -66.1840  -20.5254 C.3       1 MOL     0.1362
      2 C         -51.4652  -65.7126  -19.5475 C.2       1 MOL     0.3092
      3 C         -53.7490  -66.1973  -19.1558 C.ar      1 MOL     0.1404
      4 C         -53.9503  -66.2333  -17.7664 C.ar      1 MOL     0.0468
      5 C         -55.2032  -65.9912  -17.2113 C.ar      1 MOL     0.0037
      6 C         -56.2873  -65.7303  -18.0450 C.ar      1 MOL     0.0009
      7 C         -56.1035  -65.6872  -19.4257 C.ar      1 MOL     0.0131
      8 C         -54.8338  -65.8991  -19.9997 C.ar      1 MOL     0.0397
      9 C         -54.7240  -65.7892  -21.5116 C.2       1 MOL     0.0752
     10 O         -51.3163  -64.7828  -18.7654 O.2       1 MOL    -0.2507
     11 O         -52.5108  -66.4727  -19.6769 O.3       1 MOL    -0.4254
     12 O         -53.5871  -65.9557  -22.0446 O.co2     1 MOL    -0.5445
     13 O         -55.8059  -65.5295  -22.1259 O.co2     1 MOL    -0.5445
     14 H         -49.4622  -65.6102  -20.3744 H         1 MOL     0.0342
     15 H         -50.7480  -66.0332  -21.5678 H         1 MOL     0.0342
     16 H         -50.1896  -67.2619  -20.3679 H         1 MOL     0.0342
     17 H         -53.1147  -66.4470  -17.1127 H         1 MOL     0.0654
     18 H         -55.3360  -66.0092  -16.1402 H         1 MOL     0.0619
     19 H         -57.2673  -65.5633  -17.6245 H         1 MOL     0.0618
     20 H         -56.9501  -65.4886  -20.0695 H         1 MOL     0.0625
@<TRIPOS>BOND
     1    1    2 1 
     2    1   14 1 
     3    1   15 1 
     4    1   16 1 
     5    2   10 2 
     6    2   11 1 
     7    3    4 ar
     8    3    8 ar
     9    3   11 1 
    10    4    5 ar
    11    4   17 1 
    12    5    6 ar
    13    5   18 1 
    14    6    7 ar
    15    6   19 1 
    16    7    8 ar
    17    7   20 1 
    18    8    9 1 
    19    9   12 ar
    20    9   13 ar
@<TRIPOS>SUBSTRUCTURE
1 MOL         1
@<TRIPOS>MOLECULE
query molecule
   20    20     1     0     0
SMALL
NO_CHARGE

@<TRIPOS>ATOM
      1 C         -13.8311  -46.7403   15.7366 C.3       1 MOL     0.1362
      2 C         -13.0534  -45.5266   16.2179 C.2       1 MOL     0.3092
      3 C         -11.3222  -45.0365   17.7452 C.ar      1 MOL     0.1404
      4 C         -11.7422  -44.5183   18.9869 C.ar      1 MOL     0.0468
      5 C         -10.9469  -43.6080   19.6801 C.ar      1 MOL     0.0037
      6 C          -9.7293  -43.1993   19.1365 C.ar      1 MOL     0.0009
      7 C          -9.3132  -43.6977   17.9022 C.ar      1 MOL     0.0131
      8 C         -10.0961  -44.6312   17.1980 C.ar      1 MOL     0.0397
      9 C          -9.5550  -45.1429   15.8831 C.2       1 MOL     0.0752
     10 O         -13.2376  -44.3789   15.8333 O.2       1 MOL    -0.2507
     11 O         -12.1519  -45.9315   17.0998 O.3       1 MOL    -0.4254
     12 O          -8.5814  -44.5145   15.3674 O.co2     1 MOL    -0.5445
     13 O         -10.1528  -46.1184   15.3405 O.co2     1 MOL    -0.5445
     14 H         -14.5803  -46.4447   14.9749 H         1 MOL     0.0342
     15 H         -14.3565  -47.2084   16.5946 H         1 MOL     0.0342
     16 H         -13.1365  -47.4820   15.2930 H         1 MOL     0.0342
     17 H         -12.6911  -44.8274   19.4031 H         1 MOL     0.0654
     18 H         -11.2754  -43.2159   20.6312 H         1 MOL     0.0619
     19 H          -9.1073  -42.4976   19.6720 H         1 MOL     0.0618
     20 H          -8.3710  -43.3704   17.4846 H         1 MOL     0.0625
@<TRIPOS>BOND
     1    1    2 1 
     2    1   14 1 
     3    1   15 1 
     4    1   16 1 
     5    2   10 2 
     6    2   11 1 
     7    3    4 ar
     8    3    8 ar
     9    3   11 1 
    10    4    5 ar
    11    4   17 1 
    12    5    6 ar
    13    5   18 1 
    14    6    7 ar
    15    6   19 1 
    16    7    8 ar
    17    7   20 1 
    18    8    9 1 
    19    9   12 ar
    20    9   13 ar
@<TRIPOS>SUBSTRUCTURE
1 MOL         1
@<TRIPOS>MOLECULE
query molecule
   20    20     1     0     0
SMALL
NO_CHARGE

@<TRIPOS>ATOM
      1 C         -35.4664  -74.3115    1.1235 C.3       1 MOL     0.1362
      2 C         -36.3416  -73.3877    1.9663 C.2       1 MOL     0.3092
      3 C         -36.3591  -71.0832    2.5024 C.ar      1 MOL     0.1404
      4 C         -37.4528  -70.3839    1.9702 C.ar      1 MOL     0.0468
      5 C         -37.9646  -69.2554    2.6113 C.ar      1 MOL     0.0037
      6 C         -37.3831  -68.8114    3.7959 C.ar      1 MOL     0.0009
      7 C         -36.2952  -69.4976    4.3328 C.ar      1 MOL     0.0131
      8 C         -35.7565  -70.6314    3.6922 C.ar      1 MOL     0.0397
      9 C         -34.5577  -71.2798    4.3390 C.2       1 MOL     0.0752
     10 O         -37.2815  -73.7556    2.6471 O.2       1 MOL    -0.2507
     11 O         -35.8749  -72.1799    1.8384 O.3       1 MOL    -0.4254
     12 O         -33.9732  -72.2138    3.7175 O.co2     1 MOL    -0.5445
     13 O         -34.2022  -70.8305    5.4675 O.co2     1 MOL    -0.5445
     14 H         -35.8088  -75.3613    1.2149 H         1 MOL     0.0342
     15 H         -34.4120  -74.2491    1.4694 H         1 MOL     0.0342
     16 H         -35.5073  -74.0119    0.0568 H         1 MOL     0.0342
     17 H         -37.9137  -70.7222    1.0503 H         1 MOL     0.0654
     18 H         -38.8123  -68.7301    2.1931 H         1 MOL     0.0619
     19 H         -37.7746  -67.9382    4.2945 H         1 MOL     0.0618
     20 H         -35.8505  -69.1427    5.2531 H         1 MOL     0.0625
@<TRIPOS>BOND
     1    1    2 1 
     2    1   14 1 
     3    1   15 1 
     4    1   16 1 
     5    2   10 2 
     6    2   11 1 
     7    3    4 ar
     8    3    8 ar
     9    3   11 1 
    10    4    5 ar
    11    4   17 1 
    12    5    6 ar
    13    5   18 1 
    14    6    7 ar
    15    6   19 1 
    16    7    8 ar
    17    7   20 1 
    18    8    9 1 
    19    9   12 ar
    20    9   13 ar
@<TRIPOS>SUBSTRUCTURE
1 MOL         1
@<TRIPOS>MOLECULE
query molecule
   20    20     1     0     0
SMALL
NO_CHARGE

@<TRIPOS>ATOM
      1 C          -8.8317  -47.9079  -15.3082 C.3       1 MOL     0.1362
      2 C          -9.5618  -47.0357  -16.3288 C.2       1 MOL     0.3092
      3 C         -11.8047  -46.5216  -16.8683 C.ar      1 MOL     0.1404
      4 C         -12.0095  -45.1295  -16.8613 C.ar      1 MOL     0.0468
      5 C         -12.9693  -44.5452  -17.6872 C.ar      1 MOL     0.0037
      6 C         -13.7459  -45.3474  -18.5222 C.ar      1 MOL     0.0009
      7 C         -13.5575  -46.7277  -18.5262 C.ar      1 MOL     0.0131
      8 C         -12.5904  -47.3369  -17.7019 C.ar      1 MOL     0.0397
      9 C         -12.4745  -48.8500  -17.7578 C.2       1 MOL     0.0752
     10 O          -9.0040  -46.4404  -17.2364 O.2       1 MOL    -0.2507
     11 O         -10.8427  -47.0627  -16.0448 O.3       1 MOL    -0.4254
     12 O         -11.4389  -49.3885  -17.2658 O.co2     1 MOL    -0.5445
     13 O         -13.4506  -49.4663  -18.2884 O.co2     1 MOL    -0.5445
     14 H          -7.7428  -47.9015  -15.5244 H         1 MOL     0.0342
     15 H          -9.1986  -48.9538  -15.3617 H         1 MOL     0.0342
     16 H          -8.9949  -47.5217  -14.2822 H         1 MOL     0.0342
     17 H         -11.4140  -44.5038  -16.2112 H         1 MOL     0.0654
     18 H         -13.1092  -43.4745  -17.6817 H         1 MOL     0.0619
     19 H         -14.4915  -44.8990  -19.1617 H         1 MOL     0.0618
     20 H         -14.1713  -47.3432  -19.1706 H         1 MOL     0.0625
@<TRIPOS>BOND
     1    1    2 1 
     2    1   14 1 
     3    1   15 1 
     4    1   16 1 
     5    2   10 2 
     6    2   11 1 
     7    3    4 ar
     8    3    8 ar
     9    3   11 1 
    10    4    5 ar
    11    4   17 1 
    12    5    6 ar
    13    5   18 1 
    14    6    7 ar
    15    6   19 1 
    16    7    8 ar
    17    7   20 1 
    18    8    9 1 
    19    9   12 ar
    20    9   13 ar
@<TRIPOS>SUBSTRUCTURE
1 MOL         1
@<TRIPOS>MOLECULE
query molecule
   20    20     1     0     0
SMALL
NO_CHARGE

@<TRIPOS>ATOM
      1 C         -40.7658  -24.8025    3.6211 C.3       1 MOL     0.1362
      2 C         -40.0596  -24.6806    2.2742 C.2       1 MOL     0.3092
      3 C         -40.4512  -25.3980    0.0426 C.ar      1 MOL     0.1404
      4 C         -40.0802  -26.6821   -0.4043 C.ar      1 MOL     0.0468
      5 C         -39.7126  -26.9085   -1.7283 C.ar      1 MOL     0.0037
      6 C         -39.7105  -25.8495   -2.6344 C.ar      1 MOL     0.0009
      7 C         -40.0722  -24.5737   -2.2037 C.ar      1 MOL     0.0131
      8 C         -40.4510  -24.3291   -0.8623 C.ar      1 MOL     0.0397
      9 C         -40.8379  -22.9036   -0.5161 C.2       1 MOL     0.0752
     10 O         -38.9805  -24.1371    2.1065 O.2       1 MOL    -0.2507
     11 O         -40.8145  -25.2535    1.3595 O.3       1 MOL    -0.4254
     12 O         -41.3576  -22.6707    0.6144 O.co2     1 MOL    -0.5445
     13 O         -40.6021  -22.0403   -1.4175 O.co2     1 MOL    -0.5445
     14 H         -40.1872  -24.2827    4.4113 H         1 MOL     0.0342
     15 H         -40.8662  -25.8728    3.8997 H         1 MOL     0.0342
     16 H         -41.7796  -24.3551    3.5655 H         1 MOL     0.0342
     17 H         -40.0806  -27.5063    0.2953 H         1 MOL     0.0654
     18 H         -39.4332  -27.8990   -2.0493 H         1 MOL     0.0619
     19 H         -39.4343  -26.0198   -3.6637 H         1 MOL     0.0618
     20 H         -40.0729  -23.7572   -2.9156 H         1 MOL     0.0625
@<TRIPOS>BOND
     1    1    2 1 
     2    1   14 1 
     3    1   15 1 
     4    1   16 1 
     5    2   10 2 
     6    2   11 1 
     7    3    4 ar
     8    3    8 ar
     9    3   11 1 
    10    4    5 ar
    11    4   17 1 
    12    5    6 ar
    13    5   18 1 
    14    6    7 ar
    15    6   19 1 
    16    7    8 ar
    17    7   20 1 
    18    8    9 1 
    19    9   12 ar
    20    9   13 ar
@<TRIPOS>SUBSTRUCTURE
1 MOL         1
@<TRIPOS>MOLECULE
query molecule
   20    20     1     0     0
SMALL
NO_CHARGE

@<TRIPOS>ATOM
      1 C         -29.0083  -61.8309  -20.6054 C.3       1 MOL     0.1362
      2 C         -29.3892  -63.2236  -21.0939 C.2       1 MOL     0.3092
      3 C         -28.5136  -65.4098  -20.9341 C.ar      1 MOL     0.1404
      4 C         -29.2030  -66.2403  -20.0295 C.ar      1 MOL     0.0468
      5 C         -29.2416  -67.6222  -20.2257 C.ar      1 MOL     0.0037
      6 C         -28.5985  -68.1826  -21.3316 C.ar      1 MOL     0.0009
      7 C         -27.9201  -67.3624  -22.2306 C.ar      1 MOL     0.0131
      8 C         -27.8662  -65.9696  -22.0465 C.ar      1 MOL     0.0397
      9 C         -27.0801  -65.1616  -23.0619 C.2       1 MOL     0.0752
     10 O         -30.3797  -63.4858  -21.7496 O.2       1 MOL    -0.2507
     11 O         -28.4585  -64.0557  -20.6938 O.3       1 MOL    -0.4254
     12 O         -26.9960  -63.9103  -22.8897 O.co2     1 MOL    -0.5445
     13 O         -26.5450  -65.8201  -24.0053 O.co2     1 MOL    -0.5445
     14 H         -29.7509  -61.0813  -20.9437 H         1 MOL     0.0342
     15 H         -28.0115  -61.5561  -21.0093 H         1 MOL     0.0342
     16 H         -28.9605  -61.8187  -19.4976 H         1 MOL     0.0342
     17 H         -29.7069  -65.8091  -19.1752 H         1 MOL     0.0654
     18 H         -29.7633  -68.2576  -19.5248 H         1 MOL     0.0619
     19 H         -28.6214  -69.2510  -21.4874 H         1 MOL     0.0618
     20 H         -27.4188  -67.8035  -23.0812 H         1 MOL     0.0625
@<TRIPOS>BOND
     1    1    2 1 
     2    1   14 1 
     3    1   15 1 
     4    1   16 1 
     5    2   10 2 
     6    2   11 1 
     7    3    4 ar
     8    3    8 ar
     9    3   11 1 
    10    4    5 ar
    11    4   17 1 
    12    5    6 ar
    13    5   18 1 
    14    6    7 ar
    15    6   19 1 
    16    7    8 ar
    17    7   20 1 
    18    8    9 1 
    19    9   12 ar
    20    9   13 ar
@<TRIPOS>SUBSTRUCTURE
1 MOL         1
@<TRIPOS>MOLECULE
query molecule
   20    20     1     0     0
SMALL
NO_CHARGE

@<TRIPOS>ATOM
      1 C          -4.3253  -52.1217   10.2728 C.3       1 MOL     0.1362
      2 C          -5.3231  -52.8245    9.3570 C.2       1 MOL     0.3092
      3 C          -5.2675  -54.6805    7.8927 C.ar      1 MOL     0.1404
      4 C          -6.1446  -55.7122    8.2785 C.ar      1 MOL     0.0468
      5 C          -6.7011  -56.5693    7.3279 C.ar      1 MOL     0.0037
      6 C          -6.3852  -56.4073    5.9809 C.ar      1 MOL     0.0009
      7 C          -5.5145  -55.3916    5.5916 C.ar      1 MOL     0.0131
      8 C          -4.9356  -54.5253    6.5382 C.ar      1 MOL     0.0397
      9 C          -3.9785  -53.4776    6.0179 C.2       1 MOL     0.0752
     10 O          -6.4533  -52.4328    9.1376 O.2       1 MOL    -0.2507
     11 O          -4.7300  -53.8692    8.8576 O.3       1 MOL    -0.4254
     12 O          -3.5130  -52.6295    6.8303 O.co2     1 MOL    -0.5445
     13 O          -3.6958  -53.5275    4.7820 O.co2     1 MOL    -0.5445
     14 H          -4.7754  -51.2086   10.7111 H         1 MOL     0.0342
     15 H          -3.4236  -51.8316    9.6927 H         1 MOL     0.0342
     16 H          -4.0146  -52.7988   11.0949 H         1 MOL     0.0342
     17 H          -6.3972  -55.8450    9.3208 H         1 MOL     0.0654
     18 H          -7.3779  -57.3538    7.6351 H         1 MOL     0.0619
     19 H          -6.8121  -57.0697    5.2437 H         1 MOL     0.0618
     20 H          -5.2761  -55.2745    4.5431 H         1 MOL     0.0625
@<TRIPOS>BOND
     1    1    2 1 
     2    1   14 1 
     3    1   15 1 
     4    1   16 1 
     5    2   10 2 
     6    2   11 1 
     7    3    4 ar
     8    3    8 ar
     9    3   11 1 
    10    4    5 ar
    11    4   17 1 
    12    5    6 ar
    13    5   18 1 
    14    6    7 ar
    15    6   19 1 
    16    7    8 ar
    17    7   20 1 
    18    8    9 1 
    19    9   12 ar
    20    9   13 ar
@<TRIPOS>SUBSTRUCTURE
1 MOL         1
@<TRIPOS>MOLECULE
query molecule
   20    20     1     0     0
SMALL
NO_CHARGE

@<TRIPOS>ATOM
      1 C         -60.8035  -47.5538   25.0244 C.3       1 MOL     0.1362
      2 C         -61.6101  -46.3407   24.5778 C.2       1 MOL     0.3092
      3 C         -61.3128  -43.9941   24.5014 C.ar      1 MOL     0.1404
      4 C         -62.3870  -43.3622   25.1602 C.ar      1 MOL     0.0468
      5 C         -62.8053  -42.0844   24.7868 C.ar      1 MOL     0.0037
      6 C         -62.1563  -41.4305   23.7394 C.ar      1 MOL     0.0009
      7 C         -61.0929  -42.0502   23.0758 C.ar      1 MOL     0.0131
      8 C         -60.6293  -43.3262   23.4647 C.ar      1 MOL     0.0397
      9 C         -59.3971  -43.8831   22.7629 C.2       1 MOL     0.0752
     10 O         -62.7009  -46.4091   24.0267 O.2       1 MOL    -0.2507
     11 O         -60.9416  -45.2624   24.8870 O.3       1 MOL    -0.4254
     12 O         -58.8364  -44.9200   23.2374 O.co2     1 MOL    -0.5445
     13 O         -58.9874  -43.2486   21.7377 O.co2     1 MOL    -0.5445
     14 H         -61.4102  -48.4750   24.8990 H         1 MOL     0.0342
     15 H         -60.5211  -47.4485   26.0896 H         1 MOL     0.0342
     16 H         -59.8836  -47.6456   24.4119 H         1 MOL     0.0342
     17 H         -62.8964  -43.8736   25.9643 H         1 MOL     0.0654
     18 H         -63.6269  -41.6069   25.3016 H         1 MOL     0.0619
     19 H         -62.4776  -40.4418   23.4491 H         1 MOL     0.0618
     20 H         -60.6135  -41.5269   22.2586 H         1 MOL     0.0625
@<TRIPOS>BOND
     1    1    2 1 
     2    1   14 1 
     3    1   15 1 
     4    1   16 1 
     5    2   10 2 
     6    2   11 1 
     7    3    4 ar
     8    3    8 ar
     9    3   11 1 
    10    4    5 ar
    11    4   17 1 
    12    5    6 ar
    13    5   18 1 
    14    6    7 ar
    15    6   19 1 
    16    7    8 ar
    17    7   20 1 
    18    8    9 1 
    19    9   12 ar
    20    9   13 ar
@<TRIPOS>SUBSTRUCTURE
1 MOL         1
@<TRIPOS>MOLECULE
query molecule
   20    20     1     0     0
SMALL
NO_CHARGE

@<TRIPOS>ATOM
      1 C         -66.0310  -37.3671  -24.5762 C.3       1 MOL     0.1362
      2 C         -64.6250  -37.2072  -24.0031 C.2       1 MOL     0.3092
      3 C         -62.9593  -35.5305  -24.0329 C.ar      1 MOL     0.1404
      4 C         -62.8874  -34.8983  -22.7711 C.ar      1 MOL     0.0468
      5 C         -61.6989  -34.3229  -22.3276 C.ar      1 MOL     0.0037
      6 C         -60.5676  -34.3634  -23.1390 C.ar      1 MOL     0.0009
      7 C         -60.6296  -34.9799  -24.3880 C.ar      1 MOL     0.0131
      8 C         -61.8243  -35.5630  -24.8570 C.ar      1 MOL     0.0397
      9 C         -61.7938  -36.1780  -26.2447 C.2       1 MOL     0.0752
     10 O         -64.0826  -38.0153  -23.2697 O.2       1 MOL    -0.2507
     11 O         -64.1584  -36.0672  -24.4210 O.3       1 MOL    -0.4254
     12 O         -62.8693  -36.6743  -26.6929 O.co2     1 MOL    -0.5445
     13 O         -60.6823  -36.1369  -26.8580 O.co2     1 MOL    -0.5445
     14 H         -66.4798  -38.3251  -24.2446 H         1 MOL     0.0342
     15 H         -65.9849  -37.3577  -25.6839 H         1 MOL     0.0342
     16 H         -66.6855  -36.5333  -24.2411 H         1 MOL     0.0342
     17 H         -63.7617  -34.8655  -22.1357 H         1 MOL     0.0654
     18 H         -61.6533  -33.8486  -21.3584 H         1 MOL     0.0619
     19 H         -59.6441  -33.9164  -22.8003 H         1 MOL     0.0618
     20 H         -59.7425  -35.0072  -25.0076 H         1 MOL     0.0625
@<TRIPOS>BOND
     1    1    2 1 
     2    1   14 1 
     3    1   15 1 
     4    1   16 1 
     5    2   10 2 
     6    2   11 1 
     7    3    4 ar
     8    3    8 ar
     9    3   11 1 
    10    4    5 ar
    11    4   17 1 
    12    5    6 ar
    13    5   18 1 
    14    6    7 ar
    15    6   19 1 
    16    7    8 ar
    17    7   20 1 
    18    8    9 1 
    19    9   12 ar
    20    9   13 ar
@<TRIPOS>SUBSTRUCTURE
1 MOL         1
@<TRIPOS>MOLECULE
query molecule
   20    20     1     0     0
SMALL
NO_CHARGE

@<TRIPOS>ATOM
      1 C         -39.0642  -76.3010    1.7330 C.3       1 MOL     0.1362
      2 C         -37.5496  -76.4858    1.6555 C.2       1 MOL     0.3092
      3 C         -35.7020  -75.5745    0.4911 C.ar      1 MOL     0.1404
      4 C         -35.1042  -76.5288   -0.3588 C.ar      1 MOL     0.0468
      5 C         -33.7366  -76.4842   -0.6366 C.ar      1 MOL     0.0037
      6 C         -32.9475  -75.4848   -0.0662 C.ar      1 MOL     0.0009
      7 C         -33.5363  -74.5312    0.7683 C.ar      1 MOL     0.0131
      8 C         -34.9227  -74.5434    1.0549 C.ar      1 MOL     0.0397
      9 C         -35.4744  -73.4174    1.9360 C.2       1 MOL     0.0752
     10 O         -36.9129  -77.2429    2.3697 O.2       1 MOL    -0.2507
     11 O         -37.0619  -75.6616    0.7352 O.3       1 MOL    -0.4254
     12 O         -36.7039  -73.4256    2.2435 O.co2     1 MOL    -0.5445
     13 O         -34.6364  -72.5347    2.3029 O.co2     1 MOL    -0.5445
     14 H         -39.4811  -76.9620    2.5212 H         1 MOL     0.0342
     15 H         -39.5352  -76.5446    0.7604 H         1 MOL     0.0342
     16 H         -39.3016  -75.2490    1.9953 H         1 MOL     0.0342
     17 H         -35.7102  -77.3070   -0.8036 H         1 MOL     0.0654
     18 H         -33.2894  -77.2213   -1.2876 H         1 MOL     0.0619
     19 H         -31.8863  -75.4517   -0.2729 H         1 MOL     0.0618
     20 H         -32.9166  -73.7557    1.2023 H         1 MOL     0.0625
@<TRIPOS>BOND
     1    1    2 1 
     2    1   14 1 
     3    1   15 1 
     4    1   16 1 
     5    2   10 2 
     6    2   11 1 
     7    3    4 ar
     8    3    8 ar
     9    3   11 1 
    10    4    5 ar
    11    4   17 1 
    12    5    6 ar
    13    5   18 1 
    14    6    7 ar
    15    6   19 1 
    16    7    8 ar
    17    7   20 1 
    18    8    9 1 
    19    9   12 ar
    20    9   13 ar
@<TRIPOS>SUBSTRUCTURE
1 MOL         1
@<TRIPOS>MOLECULE
query molecule
   20    20     1     0     0
SMALL
NO_CHARGE

@<TRIPOS>ATOM
      1 C         -35.4739  -77.1453   22.2724 C.3       1 MOL     0.1362
      2 C         -36.7633  -76.3259   22.2777 C.2       1 MOL     0.3092
      3 C         -38.8060  -76.2355   21.0864 C.ar      1 MOL     0.1404
      4 C         -39.8068  -76.7783   21.9194 C.ar      1 MOL     0.0468
      5 C         -41.1347  -76.3611   21.8096 C.ar      1 MOL     0.0037
      6 C         -41.4801  -75.3957   20.8631 C.ar      1 MOL     0.0009
      7 C         -40.4910  -74.8476   20.0424 C.ar      1 MOL     0.0131
      8 C         -39.1346  -75.2408   20.1424 C.ar      1 MOL     0.0397
      9 C         -38.1229  -74.5346   19.2336 C.2       1 MOL     0.0752
     10 O         -37.0582  -75.5154   23.1407 O.2       1 MOL    -0.2507
     11 O         -37.5040  -76.6823   21.2344 O.3       1 MOL    -0.4254
     12 O         -36.9083  -74.8947   19.2715 O.co2     1 MOL    -0.5445
     13 O         -38.5882  -73.6150   18.4894 O.co2     1 MOL    -0.5445
     14 H         -34.8590  -76.8796   23.1575 H         1 MOL     0.0342
     15 H         -34.8940  -76.9505   21.3489 H         1 MOL     0.0342
     16 H         -35.7157  -78.2273   22.3250 H         1 MOL     0.0342
     17 H         -39.5461  -77.5279   22.6547 H         1 MOL     0.0654
     18 H         -41.8931  -76.7850   22.4517 H         1 MOL     0.0619
     19 H         -42.5090  -75.0757   20.7698 H         1 MOL     0.0618
     20 H         -40.7677  -74.0946   19.3141 H         1 MOL     0.0625
@<TRIPOS>BOND
     1    1    2 1 
     2    1   14 1 
     3    1   15 1 
     4    1   16 1 
     5    2   10 2 
     6    2   11 1 
     7    3    4 ar
     8    3    8 ar
     9    3   11 1 
    10    4    5 ar
    11    4   17 1 
    12    5    6 ar
    13    5   18 1 
    14    6    7 ar
    15    6   19 1 
    16    7    8 ar
    17    7   20 1 
    18    8    9 1 
    19    9   12 ar
    20    9   13 ar
@<TRIPOS>SUBSTRUCTURE
1 MOL         1
@<TRIPOS>MOLECULE
query molecule
   20    20     1     0     0
SMALL
NO_CHARGE

@<TRIPOS>ATOM
      1 C         -54.5014  -79.7844   -2.3212 C.3       1 MOL     0.1362
      2 C         -53.2643  -80.1749   -1.5141 C.2       1 MOL     0.3092
      3 C         -50.9259  -80.3601   -1.8259 C.ar      1 MOL     0.1404
      4 C         -50.4395  -81.6801   -1.7202 C.ar      1 MOL     0.0468
      5 C         -49.1561  -81.9342   -1.2327 C.ar      1 MOL     0.0037
      6 C         -48.3417  -80.8705   -0.8421 C.ar      1 MOL     0.0009
      7 C         -48.8149  -79.5605   -0.9541 C.ar      1 MOL     0.0131
      8 C         -50.1059  -79.2731   -1.4592 C.ar      1 MOL     0.0397
      9 C         -50.5027  -77.7990   -1.5933 C.2       1 MOL     0.0752
     10 O         -53.2718  -80.4108   -0.3170 O.2       1 MOL    -0.2507
     11 O         -52.2054  -80.1607   -2.3156 O.3       1 MOL    -0.4254
     12 O         -51.6040  -77.5083   -2.1490 O.co2     1 MOL    -0.5445
     13 O         -49.6761  -76.9540   -1.1255 O.co2     1 MOL    -0.5445
     14 H         -55.3894  -79.7617   -1.6557 H         1 MOL     0.0342
     15 H         -54.6740  -80.5084   -3.1416 H         1 MOL     0.0342
     16 H         -54.3626  -78.7727   -2.7560 H         1 MOL     0.0342
     17 H         -51.0660  -82.5096   -2.0204 H         1 MOL     0.0654
     18 H         -48.7947  -82.9493   -1.1546 H         1 MOL     0.0619
     19 H         -47.3499  -81.0638   -0.4567 H         1 MOL     0.0618
     20 H         -48.1734  -78.7407   -0.6536 H         1 MOL     0.0625
@<TRIPOS>BOND
     1    1    2 1 
     2    1   14 1 
     3    1   15 1 
     4    1   16 1 
     5    2   10 2 
     6    2   11 1 
     7    3    4 ar
     8    3    8 ar
     9    3   11 1 
    10    4    5 ar
    11    4   17 1 
    12    5    6 ar
    13    5   18 1 
    14    6    7 ar
    15    6   19 1 
    16    7    8 ar
    17    7   20 1 
    18    8    9 1 
    19    9   12 ar
    20    9   13 ar
@<TRIPOS>SUBSTRUCTURE
1 MOL         1
@<TRIPOS>MOLECULE
query molecule
   20    20     1     0     0
SMALL
NO_CHARGE

@<TRIPOS>ATOM
      1 C         -15.1540  -58.5226  -24.9031 C.3       1 MOL     0.1362
      2 C         -14.5076  -57.5327  -25.8708 C.2       1 MOL     0.3092
      3 C         -13.5120  -55.3864  -25.8231 C.ar      1 MOL     0.1404
      4 C         -14.3270  -54.3731  -26.3700 C.ar      1 MOL     0.0468
      5 C         -13.7638  -53.2708  -27.0159 C.ar      1 MOL     0.0037
      6 C         -12.3764  -53.1680  -27.1252 C.ar      1 MOL     0.0009
      7 C         -11.5643  -54.1639  -26.5765 C.ar      1 MOL     0.0131
      8 C         -12.1078  -55.2844  -25.9031 C.ar      1 MOL     0.0397
      9 C         -11.1254  -56.2877  -25.2892 C.2       1 MOL     0.0752
     10 O         -14.3465  -57.7425  -27.0619 O.2       1 MOL    -0.2507
     11 O         -14.1188  -56.4591  -25.1924 O.3       1 MOL    -0.4254
     12 O         -11.5760  -57.2140  -24.5509 O.co2     1 MOL    -0.5445
     13 O          -9.8987  -56.1121  -25.5726 O.co2     1 MOL    -0.5445
     14 H         -15.4555  -59.4388  -25.4524 H         1 MOL     0.0342
     15 H         -16.0442  -58.0709  -24.4230 H         1 MOL     0.0342
     16 H         -14.4257  -58.8088  -24.1160 H         1 MOL     0.0342
     17 H         -15.4034  -54.4471  -26.2896 H         1 MOL     0.0654
     18 H         -14.3978  -52.5017  -27.4323 H         1 MOL     0.0619
     19 H         -11.9368  -52.3195  -27.6316 H         1 MOL     0.0618
     20 H         -10.4880  -54.0727  -26.6614 H         1 MOL     0.0625
@<TRIPOS>BOND
     1    1    2 1 
     2    1   14 1 
     3    1   15 1 
     4    1   16 1 
     5    2   10 2 
     6    2   11 1 
     7    3    4 ar
     8    3    8 ar
     9    3   11 1 
    10    4    5 ar
    11    4   17 1 
    12    5    6 ar
    13    5   18 1 
    14    6    7 ar
    15    6   19 1 
    16    7    8 ar
    17    7   20 1 
    18    8    9 1 
    19    9   12 ar
    20    9   13 ar
@<TRIPOS>SUBSTRUCTURE
1 MOL         1
@<TRIPOS>MOLECULE
query molecule
   20    20     1     0     0
SMALL
NO_CHARGE

@<TRIPOS>ATOM
      1 C          -1.4052  -52.3563  -24.0731 C.3       1 MOL     0.1362
      2 C          -2.2575  -51.4264  -23.2110 C.2       1 MOL     0.3092
      3 C          -3.3517  -51.4688  -21.1132 C.ar      1 MOL     0.1404
      4 C          -4.7391  -51.2362  -21.2181 C.ar      1 MOL     0.0468
      5 C          -5.4389  -50.6001  -20.1909 C.ar      1 MOL     0.0037
      6 C          -4.7593  -50.1861  -19.0446 C.ar      1 MOL     0.0009
      7 C          -3.3869  -50.4230  -18.9313 C.ar      1 MOL     0.0131
      8 C          -2.6554  -51.0793  -19.9505 C.ar      1 MOL     0.0397
      9 C          -1.1663  -51.3393  -19.6990 C.2       1 MOL     0.0752
     10 O          -2.4422  -50.2446  -23.4515 O.2       1 MOL    -0.2507
     11 O          -2.7035  -52.1035  -22.1590 O.3       1 MOL    -0.4254
     12 O          -0.4769  -51.8876  -20.6103 O.co2     1 MOL    -0.5445
     13 O          -0.7204  -50.9770  -18.5650 O.co2     1 MOL    -0.5445
     14 H          -0.9998  -51.7942  -24.9401 H         1 MOL     0.0342
     15 H          -2.0094  -53.2102  -24.4373 H         1 MOL     0.0342
     16 H          -0.5532  -52.7452  -23.4775 H         1 MOL     0.0342
     17 H          -5.2721  -51.5537  -22.1046 H         1 MOL     0.0654
     18 H          -6.5011  -50.4257  -20.2828 H         1 MOL     0.0619
     19 H          -5.2966  -49.6860  -18.2502 H         1 MOL     0.0618
     20 H          -2.8688  -50.1029  -18.0353 H         1 MOL     0.0625
@<TRIPOS>BOND
     1    1    2 1 
     2    1   14 1 
     3    1   15 1 
     4    1   16 1 
     5    2   10 2 
     6    2   11 1 
     7    3    4 ar
     8    3    8 ar
     9    3   11 1 
    10    4    5 ar
    11    4   17 1 
    12    5    6 ar
    13    5   18 1 
    14    6    7 ar
    15    6   19 1 
    16    7    8 ar
    17    7   20 1 
    18    8    9 1 
    19    9   12 ar
    20    9   13 ar
@<TRIPOS>SUBSTRUCTURE
1 MOL         1
@<TRIPOS>MOLECULE
query molecule
   20    20     1     0     0
SMALL
NO_CHARGE

@<TRIPOS>ATOM
      1 C         -19.3927  -24.3987  -19.7879 C.3       1 MOL     0.1362
      2 C         -17.9217  -24.1200  -19.4836 C.2       1 MOL     0.3092
      3 C         -16.5275  -23.7633  -17.6051 C.ar      1 MOL     0.1404
      4 C         -16.1315  -22.4189  -17.4439 C.ar      1 MOL     0.0468
      5 C         -14.8943  -22.0986  -16.8815 C.ar      1 MOL     0.0037
      6 C         -14.0349  -23.1197  -16.4741 C.ar      1 MOL     0.0009
      7 C         -14.4264  -24.4528  -16.6223 C.ar      1 MOL     0.0131
      8 C         -15.6811  -24.8060  -17.1751 C.ar      1 MOL     0.0397
      9 C         -16.0335  -26.2960  -17.2390 C.2       1 MOL     0.0752
     10 O         -17.0474  -24.0451  -20.3314 O.2       1 MOL    -0.2507
     11 O         -17.7641  -24.0287  -18.1680 O.3       1 MOL    -0.4254
     12 O         -17.2051  -26.6350  -17.5833 O.co2     1 MOL    -0.5445
     13 O         -15.1005  -27.1036  -16.9333 O.co2     1 MOL    -0.5445
     14 H         -19.5330  -24.5087  -20.8835 H         1 MOL     0.0342
     15 H         -20.0294  -23.5721  -19.4159 H         1 MOL     0.0342
     16 H         -19.7056  -25.3439  -19.2973 H         1 MOL     0.0342
     17 H         -16.7925  -21.6223  -17.7586 H         1 MOL     0.0654
     18 H         -14.6008  -21.0656  -16.7645 H         1 MOL     0.0619
     19 H         -13.0725  -22.8756  -16.0452 H         1 MOL     0.0618
     20 H         -13.7549  -25.2388  -16.2980 H         1 MOL     0.0625
@<TRIPOS>BOND
     1    1    2 1 
     2    1   14 1 
     3    1   15 1 
     4    1   16 1 
     5    2   10 2 
     6    2   11 1 
     7    3    4 ar
     8    3    8 ar
     9    3   11 1 
    10    4    5 ar
    11    4   17 1 
    12    5    6 ar
    13    5   18 1 
    14    6    7 ar
    15    6   19 1 
    16    7    8 ar
    17    7   20 1 
    18    8    9 1 
    19    9   12 ar
    20    9   13 ar
@<TRIPOS>SUBSTRUCTURE
1 MOL         1
@<TRIPOS>MOLECULE
query molecule
   20    20     1     0     0
SMALL
NO_CHARGE

@<TRIPOS>ATOM
      1 C         -13.6567  -27.7023   -7.4877 C.3       1 MOL     0.1362
      2 C         -12.1813  -27.3088   -7.4362 C.2       1 MOL     0.3092
      3 C         -10.5993  -26.1963   -8.7997 C.ar      1 MOL     0.1404
      4 C          -9.4882  -27.0032   -9.1233 C.ar      1 MOL     0.0468
      5 C          -8.2264  -26.4393   -9.3217 C.ar      1 MOL     0.0037
      6 C          -8.0584  -25.0597   -9.1973 C.ar      1 MOL     0.0009
      7 C          -9.1575  -24.2548   -8.8868 C.ar      1 MOL     0.0131
      8 C         -10.4509  -24.7979   -8.6954 C.ar      1 MOL     0.0397
      9 C         -11.5964  -23.8192   -8.4152 C.2       1 MOL     0.0752
     10 O         -11.4777  -27.4111   -6.4447 O.2       1 MOL    -0.2507
     11 O         -11.8293  -26.8034   -8.6129 O.3       1 MOL    -0.4254
     12 O         -12.7572  -24.2794   -8.1986 O.co2     1 MOL    -0.5445
     13 O         -11.2901  -22.5854   -8.4214 O.co2     1 MOL    -0.5445
     14 H         -13.9724  -28.0975   -6.4997 H         1 MOL     0.0342
     15 H         -13.8257  -28.4738   -8.2644 H         1 MOL     0.0342
     16 H         -14.2754  -26.8115   -7.7235 H         1 MOL     0.0342
     17 H          -9.6113  -28.0738   -9.2203 H         1 MOL     0.0654
     18 H          -7.3824  -27.0672   -9.5675 H         1 MOL     0.0619
     19 H          -7.0809  -24.6202   -9.3427 H         1 MOL     0.0618
     20 H          -9.0185  -23.1840   -8.7977 H         1 MOL     0.0625
@<TRIPOS>BOND
     1    1    2 1 
     2    1   14 1 
     3    1   15 1 
     4    1   16 1 
     5    2   10 2 
     6    2   11 1 
     7    3    4 ar
     8    3    8 ar
     9    3   11 1 
    10    4    5 ar
    11    4   17 1 
    12    5    6 ar
    13    5   18 1 
    14    6    7 ar
    15    6   19 1 
    16    7    8 ar
    17    7   20 1 
    18    8    9 1 
    19    9   12 ar
    20    9   13 ar
@<TRIPOS>SUBSTRUCTURE
1 MOL         1
@<TRIPOS>MOLECULE
query molecule
   20    20     1     0     0
SMALL
NO_CHARGE

@<TRIPOS>ATOM
      1 C          -4.9129  -23.7178   -2.3766 C.3       1 MOL     0.1362
      2 C          -6.0815  -23.7619   -1.3934 C.2       1 MOL     0.3092
      3 C          -6.8561  -22.5707    0.4989 C.ar      1 MOL     0.1404
      4 C          -6.8753  -23.3480    1.6760 C.ar      1 MOL     0.0468
      5 C          -7.8270  -23.1180    2.6714 C.ar      1 MOL     0.0037
      6 C          -8.7744  -22.1076    2.5018 C.ar      1 MOL     0.0009
      7 C          -8.7536  -21.3282    1.3423 C.ar      1 MOL     0.0131
      8 C          -7.7908  -21.5294    0.3240 C.ar      1 MOL     0.0397
      9 C          -7.8228  -20.5810   -0.8793 C.2       1 MOL     0.0752
     10 O          -7.0427  -24.5055   -1.5023 O.2       1 MOL    -0.2507
     11 O          -5.8922  -22.8381   -0.4582 O.3       1 MOL    -0.4254
     12 O          -6.9439  -20.7076   -1.7837 O.co2     1 MOL    -0.5445
     13 O          -8.7524  -19.7140   -0.8817 O.co2     1 MOL    -0.5445
     14 H          -5.0743  -24.4644   -3.1820 H         1 MOL     0.0342
     15 H          -3.9597  -23.9368   -1.8566 H         1 MOL     0.0342
     16 H          -4.8485  -22.7109   -2.8391 H         1 MOL     0.0342
     17 H          -6.1442  -24.1337    1.8135 H         1 MOL     0.0654
     18 H          -7.8332  -23.7206    3.5680 H         1 MOL     0.0619
     19 H          -9.5180  -21.9315    3.2672 H         1 MOL     0.0618
     20 H          -9.4897  -20.5424    1.2219 H         1 MOL     0.0625
@<TRIPOS>BOND
     1    1    2 1 
     2    1   14 1 
     3    1   15 1 
     4    1   16 1 
     5    2   10 2 
     6    2   11 1 
     7    3    4 ar
     8    3    8 ar
     9    3   11 1 
    10    4    5 ar
    11    4   17 1 
    12    5    6 ar
    13    5   18 1 
    14    6    7 ar
    15    6   19 1 
    16    7    8 ar
    17    7   20 1 
    18    8    9 1 
    19    9   12 ar
    20    9   13 ar
@<TRIPOS>SUBSTRUCTURE
1 MOL         1
@<TRIPOS>MOLECULE
query molecule
   20    20     1     0     0
SMALL
NO_CHARGE

@<TRIPOS>ATOM
      1 C          -7.0771  -65.9931  -28.4215 C.3       1 MOL     0.1362
      2 C          -5.9216  -65.0842  -28.8372 C.2       1 MOL     0.3092
      3 C          -3.7852  -64.4592  -28.0343 C.ar      1 MOL     0.1404
      4 C          -3.6701  -63.0726  -27.8009 C.ar      1 MOL     0.0468
      5 C          -2.4471  -62.4181  -27.9601 C.ar      1 MOL     0.0037
      6 C          -1.3221  -63.1418  -28.3572 C.ar      1 MOL     0.0009
      7 C          -1.4283  -64.5171  -28.5800 C.ar      1 MOL     0.0131
      8 C          -2.6520  -65.2090  -28.4114 C.ar      1 MOL     0.0397
      9 C          -2.6440  -66.7263  -28.6265 C.2       1 MOL     0.0752
     10 O          -5.8456  -64.5203  -29.9165 O.2       1 MOL    -0.2507
     11 O          -5.0197  -65.0616  -27.8625 O.3       1 MOL    -0.4254
     12 O          -3.7330  -67.3662  -28.5231 O.co2     1 MOL    -0.5445
     13 O          -1.5159  -67.2451  -28.8993 O.co2     1 MOL    -0.5445
     14 H          -7.8240  -66.0458  -29.2410 H         1 MOL     0.0342
     15 H          -7.5634  -65.6076  -27.5039 H         1 MOL     0.0342
     16 H          -6.6979  -67.0176  -28.2257 H         1 MOL     0.0342
     17 H          -4.5386  -62.5052  -27.4938 H         1 MOL     0.0654
     18 H          -2.3712  -61.3556  -27.7802 H         1 MOL     0.0619
     19 H          -0.3748  -62.6368  -28.4891 H         1 MOL     0.0618
     20 H          -0.5482  -65.0718  -28.8827 H         1 MOL     0.0625
@<TRIPOS>BOND
     1    1    2 1 
     2    1   14 1 
     3    1   15 1 
     4    1   16 1 
     5    2   10 2 
     6    2   11 1 
     7    3    4 ar
     8    3    8 ar
     9    3   11 1 
    10    4    5 ar
    11    4   17 1 
    12    5    6 ar
    13    5   18 1 
    14    6    7 ar
    15    6   19 1 
    16    7    8 ar
    17    7   20 1 
    18    8    9 1 
    19    9   12 ar
    20    9   13 ar
@<TRIPOS>SUBSTRUCTURE
1 MOL         1
@<TRIPOS>MOLECULE
query molecule
   20    20     1     0     0
SMALL
NO_CHARGE

@<TRIPOS>ATOM
      1 C          -9.7311  -81.9768  -12.7234 C.3       1 MOL     0.1362
      2 C          -9.7177  -80.4976  -13.1057 C.2       1 MOL     0.3092
      3 C         -10.9317  -79.0016  -14.4797 C.ar      1 MOL     0.1404
      4 C         -10.2136  -78.6160  -15.6311 C.ar      1 MOL     0.0468
      5 C         -10.3974  -77.3550  -16.2016 C.ar      1 MOL     0.0037
      6 C         -11.3015  -76.4611  -15.6265 C.ar      1 MOL     0.0009
      7 C         -12.0227  -76.8416  -14.4919 C.ar      1 MOL     0.0131
      8 C         -11.8676  -78.1191  -13.9017 C.ar      1 MOL     0.0397
      9 C         -12.7495  -78.4540  -12.6940 C.2       1 MOL     0.0752
     10 O          -8.9344  -79.6787  -12.6537 O.2       1 MOL    -0.2507
     11 O         -10.7139  -80.2629  -13.9522 O.3       1 MOL    -0.4254
     12 O         -12.7458  -79.6377  -12.2411 O.co2     1 MOL    -0.5445
     13 O         -13.4385  -77.4949  -12.2234 O.co2     1 MOL    -0.5445
     14 H          -8.9221  -82.1804  -11.9912 H         1 MOL     0.0342
     15 H          -9.5850  -82.6107  -13.6199 H         1 MOL     0.0342
     16 H         -10.7030  -82.2348  -12.2535 H         1 MOL     0.0342
     17 H          -9.5103  -79.3039  -16.0815 H         1 MOL     0.0654
     18 H          -9.8407  -77.0699  -17.0825 H         1 MOL     0.0619
     19 H         -11.4408  -75.4805  -16.0611 H         1 MOL     0.0618
     20 H         -12.7265  -76.1429  -14.0555 H         1 MOL     0.0625
@<TRIPOS>BOND
     1    1    2 1 
     2    1   14 1 
     3    1   15 1 
     4    1   16 1 
     5    2   10 2 
     6    2   11 1 
     7    3    4 ar
     8    3    8 ar
     9    3   11 1 
    10    4    5 ar
    11    4   17 1 
    12    5    6 ar
    13    5   18 1 
    14    6    7 ar
    15    6   19 1 
    16    7    8 ar
    17    7   20 1 
    18    8    9 1 
    19    9   12 ar
    20    9   13 ar
@<TRIPOS>SUBSTRUCTURE
1 MOL         1
