@<TRIPOS>MOLECULE
query molecule
   20    20     1     0     0
SMALL
NO_CHARGE

@<TRIPOS>ATOM
      1 C         -14.5427  -61.7879   -7.9105 C.3       1 MOL     0.1362
      2 C         -13.7441  -62.3264   -6.7337 C.2       1 MOL     0.3092
      3 C         -14.1317  -62.7654   -4.4554 C.ar      1 MOL     0.1404
      4 C         -13.9417  -64.1241   -4.1418 C.ar      1 MOL     0.0468
      5 C         -13.5085  -64.5101   -2.8726 C.ar      1 MOL     0.0037
      6 C         -13.2651  -63.5413   -1.8989 C.ar      1 MOL     0.0009
      7 C         -13.4571  -62.1920   -2.2023 C.ar      1 MOL     0.0131
      8 C         -13.8916  -61.7804   -3.4818 C.ar      1 MOL     0.0397
      9 C         -14.0817  -60.2891   -3.7295 C.2       1 MOL     0.0752
     10 O         -12.5550  -62.5905   -6.7641 O.2       1 MOL    -0.2507
     11 O         -14.5583  -62.4230   -5.7166 O.3       1 MOL    -0.4254
     12 O         -13.5881  -59.5299   -2.8369 O.co2     1 MOL    -0.5445
     13 O         -14.6747  -59.9117   -4.7838 O.co2     1 MOL    -0.5445
     14 H         -13.9518  -61.8513   -8.8456 H         1 MOL     0.0342
     15 H         -14.8180  -60.7277   -7.7318 H         1 MOL     0.0342
     16 H         -15.4756  -62.3764   -8.0328 H         1 MOL     0.0342
     17 H         -14.1334  -64.8771   -4.8940 H         1 MOL     0.0654
     18 H         -13.3635  -65.5565   -2.6459 H         1 MOL     0.0619
     19 H         -12.9303  -63.8369   -0.9150 H         1 MOL     0.0618
     20 H         -13.2772  -61.4493   -1.4359 H         1 MOL     0.0625
@<TRIPOS>BOND
     1    1    2 1 
     2    1   14 1 
     3    1   15 1 
     4    1   16 1 
     5    2   10 2 
     6    2   11 1 
     7    3    4 ar
     8    3    8 ar
     9    3   11 1 
    10    4    5 ar
    11    4   17 1 
    12    5    6 ar
    13    5   18 1 
    14    6    7 ar
    15    6   19 1 
    16    7    8 ar
    17    7   20 1 
    18    8    9 1 
    19    9   12 ar
    20    9   13 ar
@<TRIPOS>SUBSTRUCTURE
1 MOL         1
@<TRIPOS>MOLECULE
query molecule
   20    20     1     0     0
SMALL
NO_CHARGE

@<TRIPOS>ATOM
      1 C         -11.9989  -43.1442    6.4985 C.3       1 MOL     0.1362
      2 C         -11.6409  -44.4632    5.8136 C.2       1 MOL     0.3092
      3 C         -12.2892  -46.7306    6.0457 C.ar      1 MOL     0.1404
      4 C         -11.3004  -47.5346    6.6471 C.ar      1 MOL     0.0468
      5 C         -11.1899  -48.8857    6.3248 C.ar      1 MOL     0.0037
      6 C         -12.0668  -49.4531    5.4026 C.ar      1 MOL     0.0009
      7 C         -13.0606  -48.6716    4.8225 C.ar      1 MOL     0.0131
      8 C         -13.1946  -47.3061    5.1395 C.ar      1 MOL     0.0397
      9 C         -14.3383  -46.5571    4.4817 C.2       1 MOL     0.0752
     10 O         -10.8222  -44.5675    4.9157 O.2       1 MOL    -0.2507
     11 O         -12.3503  -45.4017    6.3782 O.3       1 MOL    -0.4254
     12 O         -14.5984  -45.3946    4.9090 O.co2     1 MOL    -0.5445
     13 O         -14.9694  -47.1553    3.5582 O.co2     1 MOL    -0.5445
     14 H         -11.3800  -42.3179    6.0916 H         1 MOL     0.0342
     15 H         -11.8239  -43.2166    7.5913 H         1 MOL     0.0342
     16 H         -13.0685  -42.9055    6.3237 H         1 MOL     0.0342
     17 H         -10.6191  -47.0973    7.3644 H         1 MOL     0.0654
     18 H         -10.4283  -49.4939    6.7889 H         1 MOL     0.0619
     19 H         -11.9887  -50.4988    5.1447 H         1 MOL     0.0618
     20 H         -13.7543  -49.1177    4.1223 H         1 MOL     0.0625
@<TRIPOS>BOND
     1    1    2 1 
     2    1   14 1 
     3    1   15 1 
     4    1   16 1 
     5    2   10 2 
     6    2   11 1 
     7    3    4 ar
     8    3    8 ar
     9    3   11 1 
    10    4    5 ar
    11    4   17 1 
    12    5    6 ar
    13    5   18 1 
    14    6    7 ar
    15    6   19 1 
    16    7    8 ar
    17    7   20 1 
    18    8    9 1 
    19    9   12 ar
    20    9   13 ar
@<TRIPOS>SUBSTRUCTURE
1 MOL         1
@<TRIPOS>MOLECULE
query molecule
   20    20     1     0     0
SMALL
NO_CHARGE

@<TRIPOS>ATOM
      1 C         -39.8781  -56.5878    5.6036 C.3       1 MOL     0.1362
      2 C         -40.3100  -56.2115    7.0184 C.2       1 MOL     0.3092
      3 C         -42.1013  -55.1316    8.0820 C.ar      1 MOL     0.1404
      4 C         -42.9520  -56.0178    8.7644 C.ar      1 MOL     0.0468
      5 C         -43.6239  -55.6124    9.9127 C.ar      1 MOL     0.0037
      6 C         -43.4564  -54.3137   10.3927 C.ar      1 MOL     0.0009
      7 C         -42.6092  -53.4320    9.7207 C.ar      1 MOL     0.0131
      8 C         -41.9159  -53.8257    8.5564 C.ar      1 MOL     0.0397
      9 C         -41.0134  -52.8108    7.8758 C.2       1 MOL     0.0752
     10 O         -39.6779  -56.4498    8.0348 O.2       1 MOL    -0.2507
     11 O         -41.4693  -55.5760    6.9394 O.3       1 MOL    -0.4254
     12 O         -40.8339  -51.7369    8.5364 O.co2     1 MOL    -0.5445
     13 O         -40.5262  -53.0729    6.7433 O.co2     1 MOL    -0.5445
     14 H         -38.9502  -57.1961    5.6300 H         1 MOL     0.0342
     15 H         -39.6832  -55.6751    5.0017 H         1 MOL     0.0342
     16 H         -40.6741  -57.1766    5.1024 H         1 MOL     0.0342
     17 H         -43.0827  -57.0230    8.3926 H         1 MOL     0.0654
     18 H         -44.2714  -56.3032   10.4320 H         1 MOL     0.0619
     19 H         -43.9827  -53.9956   11.2820 H         1 MOL     0.0618
     20 H         -42.4921  -52.4252   10.1021 H         1 MOL     0.0625
@<TRIPOS>BOND
     1    1    2 1 
     2    1   14 1 
     3    1   15 1 
     4    1   16 1 
     5    2   10 2 
     6    2   11 1 
     7    3    4 ar
     8    3    8 ar
     9    3   11 1 
    10    4    5 ar
    11    4   17 1 
    12    5    6 ar
    13    5   18 1 
    14    6    7 ar
    15    6   19 1 
    16    7    8 ar
    17    7   20 1 
    18    8    9 1 
    19    9   12 ar
    20    9   13 ar
@<TRIPOS>SUBSTRUCTURE
1 MOL         1
@<TRIPOS>MOLECULE
query molecule
   20    20     1     0     0
SMALL
NO_CHARGE

@<TRIPOS>ATOM
      1 C         -28.4227  -52.9349  -10.5764 C.3       1 MOL     0.1362
      2 C         -28.0104  -52.6121   -9.1512 C.2       1 MOL     0.3092
      3 C         -28.3159  -53.5472   -7.0222 C.ar      1 MOL     0.1404
      4 C         -29.1950  -52.7855   -6.2183 C.ar      1 MOL     0.0468
      5 C         -29.2075  -52.9565   -4.8359 C.ar      1 MOL     0.0037
      6 C         -28.3449  -53.8841   -4.2533 C.ar      1 MOL     0.0009
      7 C         -27.4312  -54.5897   -5.0281 C.ar      1 MOL     0.0131
      8 C         -27.3667  -54.3910   -6.4171 C.ar      1 MOL     0.0397
      9 C         -26.2401  -55.0872   -7.1392 C.2       1 MOL     0.0752
     10 O         -27.3381  -51.6564   -8.8196 O.2       1 MOL    -0.2507
     11 O         -28.4814  -53.5275   -8.3804 O.3       1 MOL    -0.4254
     12 O         -25.9650  -54.6571   -8.2955 O.co2     1 MOL    -0.5445
     13 O         -25.6275  -56.0155   -6.5264 O.co2     1 MOL    -0.5445
     14 H         -28.0339  -52.1642  -11.2712 H         1 MOL     0.0342
     15 H         -29.5300  -52.9655  -10.6557 H         1 MOL     0.0342
     16 H         -28.0170  -53.9245  -10.8715 H         1 MOL     0.0342
     17 H         -29.8843  -52.0920   -6.6786 H         1 MOL     0.0654
     18 H         -29.8867  -52.3862   -4.2216 H         1 MOL     0.0619
     19 H         -28.3761  -54.0470   -3.1847 H         1 MOL     0.0618
     20 H         -26.7483  -55.2815   -4.5552 H         1 MOL     0.0625
@<TRIPOS>BOND
     1    1    2 1 
     2    1   14 1 
     3    1   15 1 
     4    1   16 1 
     5    2   10 2 
     6    2   11 1 
     7    3    4 ar
     8    3    8 ar
     9    3   11 1 
    10    4    5 ar
    11    4   17 1 
    12    5    6 ar
    13    5   18 1 
    14    6    7 ar
    15    6   19 1 
    16    7    8 ar
    17    7   20 1 
    18    8    9 1 
    19    9   12 ar
    20    9   13 ar
@<TRIPOS>SUBSTRUCTURE
1 MOL         1
@<TRIPOS>MOLECULE
query molecule
   20    20     1     0     0
SMALL
NO_CHARGE

@<TRIPOS>ATOM
      1 C         -33.4648  -43.3399    7.9056 C.3       1 MOL     0.1362
      2 C         -33.8190  -43.1354    6.4536 C.2       1 MOL     0.3092
      3 C         -32.7624  -43.2267    4.3792 C.ar      1 MOL     0.1404
      4 C         -33.3482  -44.1514    3.4942 C.ar      1 MOL     0.0468
      5 C         -33.3568  -43.9106    2.1217 C.ar      1 MOL     0.0037
      6 C         -32.7885  -42.7428    1.6198 C.ar      1 MOL     0.0009
      7 C         -32.1996  -41.8254    2.4919 C.ar      1 MOL     0.0131
      8 C         -32.1582  -42.0576    3.8832 C.ar      1 MOL     0.0397
      9 C         -31.4318  -41.0298    4.7421 C.2       1 MOL     0.0752
     10 O         -34.8794  -42.6710    6.0509 O.2       1 MOL    -0.2507
     11 O         -32.7847  -43.5000    5.7309 O.3       1 MOL    -0.4254
     12 O         -30.7079  -40.1808    4.1277 O.co2     1 MOL    -0.5445
     13 O         -31.5775  -41.0982    5.9987 O.co2     1 MOL    -0.5445
     14 H         -34.1074  -42.6988    8.5440 H         1 MOL     0.0342
     15 H         -32.4035  -43.0647    8.0787 H         1 MOL     0.0342
     16 H         -33.6162  -44.3998    8.1871 H         1 MOL     0.0342
     17 H         -33.7991  -45.0520    3.8816 H         1 MOL     0.0654
     18 H         -33.8076  -44.6286    1.4512 H         1 MOL     0.0619
     19 H         -32.8017  -42.5512    0.5567 H         1 MOL     0.0618
     20 H         -31.7676  -40.9193    2.0884 H         1 MOL     0.0625
@<TRIPOS>BOND
     1    1    2 1 
     2    1   14 1 
     3    1   15 1 
     4    1   16 1 
     5    2   10 2 
     6    2   11 1 
     7    3    4 ar
     8    3    8 ar
     9    3   11 1 
    10    4    5 ar
    11    4   17 1 
    12    5    6 ar
    13    5   18 1 
    14    6    7 ar
    15    6   19 1 
    16    7    8 ar
    17    7   20 1 
    18    8    9 1 
    19    9   12 ar
    20    9   13 ar
@<TRIPOS>SUBSTRUCTURE
1 MOL         1
@<TRIPOS>MOLECULE
query molecule
   20    20     1     0     0
SMALL
NO_CHARGE

@<TRIPOS>ATOM
      1 C          -6.8884  -42.5916   -7.5779 C.3       1 MOL     0.1362
      2 C          -6.7733  -41.0781   -7.8112 C.2       1 MOL     0.3092
      3 C          -8.4002  -41.1239   -9.5618 C.ar      1 MOL     0.1404
      4 C          -7.8957  -41.4680  -10.8322 C.ar      1 MOL     0.0468
      5 C          -8.7261  -41.9999  -11.8160 C.ar      1 MOL     0.0037
      6 C         -10.0781  -42.1995  -11.5441 C.ar      1 MOL     0.0009
      7 C         -10.5888  -41.8552  -10.2927 C.ar      1 MOL     0.0131
      8 C          -9.7631  -41.3079   -9.2842 C.ar      1 MOL     0.0397
      9 C         -10.4297  -40.9298   -7.9768 C.2       1 MOL     0.0752
     10 O          -5.9693  -40.4068   -7.1674 O.2       1 MOL    -0.2507
     11 O          -7.5611  -40.5802   -8.6853 O.3       1 MOL    -0.4254
     12 O          -9.7125  -40.4097   -7.0650 O.co2     1 MOL    -0.5445
     13 O         -11.6740  -41.1420   -7.8965 O.co2     1 MOL    -0.5445
     14 H          -6.0798  -42.8868   -6.8702 H         1 MOL     0.0342
     15 H          -6.7630  -43.1704   -8.5109 H         1 MOL     0.0342
     16 H          -7.8600  -42.8457   -7.1104 H         1 MOL     0.0342
     17 H          -6.8492  -41.3042  -11.0500 H         1 MOL     0.0654
     18 H          -8.3216  -42.2526  -12.7854 H         1 MOL     0.0619
     19 H         -10.7215  -42.6169  -12.3042 H         1 MOL     0.0618
     20 H         -11.6450  -41.9996  -10.1040 H         1 MOL     0.0625
@<TRIPOS>BOND
     1    1    2 1 
     2    1   14 1 
     3    1   15 1 
     4    1   16 1 
     5    2   10 2 
     6    2   11 1 
     7    3    4 ar
     8    3    8 ar
     9    3   11 1 
    10    4    5 ar
    11    4   17 1 
    12    5    6 ar
    13    5   18 1 
    14    6    7 ar
    15    6   19 1 
    16    7    8 ar
    17    7   20 1 
    18    8    9 1 
    19    9   12 ar
    20    9   13 ar
@<TRIPOS>SUBSTRUCTURE
1 MOL         1
@<TRIPOS>MOLECULE
query molecule
   20    20     1     0     0
SMALL
NO_CHARGE

@<TRIPOS>ATOM
      1 C         -55.4177  -71.1765   -8.5430 C.3       1 MOL     0.1362
      2 C         -54.4418  -70.6088   -9.5618 C.2       1 MOL     0.3092
      3 C         -54.2447  -68.6377  -10.8144 C.ar      1 MOL     0.1404
      4 C         -55.0486  -68.7871  -11.9670 C.ar      1 MOL     0.0468
      5 C         -54.6998  -68.1707  -13.1594 C.ar      1 MOL     0.0037
      6 C         -53.5420  -67.4067  -13.2122 C.ar      1 MOL     0.0009
      7 C         -52.7482  -67.2432  -12.0772 C.ar      1 MOL     0.0131
      8 C         -53.0966  -67.8356  -10.8519 C.ar      1 MOL     0.0397
      9 C         -52.2137  -67.5300   -9.6594 C.2       1 MOL     0.0752
     10 O         -53.6354  -71.2789  -10.1918 O.2       1 MOL    -0.2507
     11 O         -54.6484  -69.2984   -9.6659 O.3       1 MOL    -0.4254
     12 O         -52.4570  -68.1666   -8.5932 O.co2     1 MOL    -0.5445
     13 O         -51.2965  -66.6545   -9.7728 O.co2     1 MOL    -0.5445
     14 H         -55.4655  -72.2805   -8.6461 H         1 MOL     0.0342
     15 H         -56.4303  -70.7595   -8.7254 H         1 MOL     0.0342
     16 H         -55.1024  -70.9211   -7.5125 H         1 MOL     0.0342
     17 H         -55.9460  -69.3886  -11.9166 H         1 MOL     0.0654
     18 H         -55.3184  -68.2882  -14.0347 H         1 MOL     0.0619
     19 H         -53.2543  -66.9383  -14.1428 H         1 MOL     0.0618
     20 H         -51.8511  -66.6418  -12.1424 H         1 MOL     0.0625
@<TRIPOS>BOND
     1    1    2 1 
     2    1   14 1 
     3    1   15 1 
     4    1   16 1 
     5    2   10 2 
     6    2   11 1 
     7    3    4 ar
     8    3    8 ar
     9    3   11 1 
    10    4    5 ar
    11    4   17 1 
    12    5    6 ar
    13    5   18 1 
    14    6    7 ar
    15    6   19 1 
    16    7    8 ar
    17    7   20 1 
    18    8    9 1 
    19    9   12 ar
    20    9   13 ar
@<TRIPOS>SUBSTRUCTURE
1 MOL         1
@<TRIPOS>MOLECULE
query molecule
   20    20     1     0     0
SMALL
NO_CHARGE

@<TRIPOS>ATOM
      1 C         -54.0083  -49.4054   22.8197 C.3       1 MOL     0.1362
      2 C         -52.8266  -49.9017   22.0092 C.2       1 MOL     0.3092
      3 C         -50.5698  -49.2811   21.9273 C.ar      1 MOL     0.1404
      4 C         -49.8075  -50.4653   21.9591 C.ar      1 MOL     0.0468
      5 C         -48.5138  -50.4801   21.4500 C.ar      1 MOL     0.0037
      6 C         -47.9725  -49.3134   20.9242 C.ar      1 MOL     0.0009
      7 C         -48.7112  -48.1377   20.8959 C.ar      1 MOL     0.0131
      8 C         -50.0367  -48.1062   21.3632 C.ar      1 MOL     0.0397
      9 C         -50.8004  -46.7979   21.1773 C.2       1 MOL     0.0752
     10 O         -52.8666  -50.7179   21.1075 O.2       1 MOL    -0.2507
     11 O         -51.8140  -49.2815   22.4758 O.3       1 MOL    -0.4254
     12 O         -50.1741  -45.8441   20.6066 O.co2     1 MOL    -0.5445
     13 O         -52.0112  -46.7668   21.5556 O.co2     1 MOL    -0.5445
     14 H         -54.9045  -50.0237   22.6108 H         1 MOL     0.0342
     15 H         -54.2326  -48.3497   22.5600 H         1 MOL     0.0342
     16 H         -53.7769  -49.4655   23.9033 H         1 MOL     0.0342
     17 H         -50.2292  -51.3689   22.3748 H         1 MOL     0.0654
     18 H         -47.9334  -51.3908   21.4595 H         1 MOL     0.0619
     19 H         -46.9655  -49.3181   20.5319 H         1 MOL     0.0618
     20 H         -48.2639  -47.2376   20.4977 H         1 MOL     0.0625
@<TRIPOS>BOND
     1    1    2 1 
     2    1   14 1 
     3    1   15 1 
     4    1   16 1 
     5    2   10 2 
     6    2   11 1 
     7    3    4 ar
     8    3    8 ar
     9    3   11 1 
    10    4    5 ar
    11    4   17 1 
    12    5    6 ar
    13    5   18 1 
    14    6    7 ar
    15    6   19 1 
    16    7    8 ar
    17    7   20 1 
    18    8    9 1 
    19    9   12 ar
    20    9   13 ar
@<TRIPOS>SUBSTRUCTURE
1 MOL         1
@<TRIPOS>MOLECULE
query molecule
   20    20     1     0     0
SMALL
NO_CHARGE

@<TRIPOS>ATOM
      1 C         -49.1842  -43.7740  -22.8216 C.3       1 MOL     0.1362
      2 C         -48.7223  -45.2005  -23.1302 C.2       1 MOL     0.3092
      3 C         -47.5348  -46.9193  -22.0283 C.ar      1 MOL     0.1404
      4 C         -46.1624  -46.6935  -21.7702 C.ar      1 MOL     0.0468
      5 C         -45.2359  -47.7305  -21.8633 C.ar      1 MOL     0.0037
      6 C         -45.6639  -49.0034  -22.2327 C.ar      1 MOL     0.0009
      7 C         -47.0138  -49.2319  -22.4753 C.ar      1 MOL     0.0131
      8 C         -47.9709  -48.2057  -22.3346 C.ar      1 MOL     0.0397
      9 C         -49.3954  -48.6529  -22.5155 C.2       1 MOL     0.0752
     10 O         -48.6904  -45.6593  -24.2621 O.2       1 MOL    -0.2507
     11 O         -48.3694  -45.8242  -22.0016 O.3       1 MOL    -0.4254
     12 O         -49.5809  -49.7750  -23.0794 O.co2     1 MOL    -0.5445
     13 O         -50.3034  -47.9060  -22.0639 O.co2     1 MOL    -0.5445
     14 H         -49.2442  -43.1917  -23.7669 H         1 MOL     0.0342
     15 H         -48.4536  -43.2754  -22.1516 H         1 MOL     0.0342
     16 H         -50.1802  -43.7727  -22.3388 H         1 MOL     0.0342
     17 H         -45.8235  -45.7015  -21.5036 H         1 MOL     0.0654
     18 H         -44.1923  -47.5501  -21.6567 H         1 MOL     0.0619
     19 H         -44.9561  -49.8123  -22.3275 H         1 MOL     0.0618
     20 H         -47.3461  -50.2210  -22.7621 H         1 MOL     0.0625
@<TRIPOS>BOND
     1    1    2 1 
     2    1   14 1 
     3    1   15 1 
     4    1   16 1 
     5    2   10 2 
     6    2   11 1 
     7    3    4 ar
     8    3    8 ar
     9    3   11 1 
    10    4    5 ar
    11    4   17 1 
    12    5    6 ar
    13    5   18 1 
    14    6    7 ar
    15    6   19 1 
    16    7    8 ar
    17    7   20 1 
    18    8    9 1 
    19    9   12 ar
    20    9   13 ar
@<TRIPOS>SUBSTRUCTURE
1 MOL         1
@<TRIPOS>MOLECULE
query molecule
   20    20     1     0     0
SMALL
NO_CHARGE

@<TRIPOS>ATOM
      1 C         -37.0791  -24.3575   17.2473 C.3       1 MOL     0.1362
      2 C         -36.1248  -23.2345   16.8686 C.2       1 MOL     0.3092
      3 C         -33.9502  -22.5378   17.4314 C.ar      1 MOL     0.1404
      4 C         -33.8514  -21.5803   18.4566 C.ar      1 MOL     0.0468
      5 C         -32.8278  -20.6363   18.4558 C.ar      1 MOL     0.0037
      6 C         -31.8856  -20.6408   17.4279 C.ar      1 MOL     0.0009
      7 C         -31.9828  -21.5817   16.4002 C.ar      1 MOL     0.0131
      8 C         -33.0156  -22.5415   16.3901 C.ar      1 MOL     0.0397
      9 C         -33.0622  -23.5212   15.2406 C.2       1 MOL     0.0752
     10 O         -36.4095  -22.3145   16.1221 O.2       1 MOL    -0.2507
     11 O         -34.9831  -23.4429   17.4813 O.3       1 MOL    -0.4254
     12 O         -32.4380  -23.1567   14.1969 O.co2     1 MOL    -0.5445
     13 O         -33.7086  -24.6000   15.3801 O.co2     1 MOL    -0.5445
     14 H         -38.0514  -24.2175   16.7325 H         1 MOL     0.0342
     15 H         -37.2496  -24.3426   18.3442 H         1 MOL     0.0342
     16 H         -36.6531  -25.3395   16.9606 H         1 MOL     0.0342
     17 H         -34.5827  -21.5796   19.2520 H         1 MOL     0.0654
     18 H         -32.7691  -19.9081   19.2508 H         1 MOL     0.0619
     19 H         -31.0881  -19.9129   17.4310 H         1 MOL     0.0618
     20 H         -31.2460  -21.5726   15.6076 H         1 MOL     0.0625
@<TRIPOS>BOND
     1    1    2 1 
     2    1   14 1 
     3    1   15 1 
     4    1   16 1 
     5    2   10 2 
     6    2   11 1 
     7    3    4 ar
     8    3    8 ar
     9    3   11 1 
    10    4    5 ar
    11    4   17 1 
    12    5    6 ar
    13    5   18 1 
    14    6    7 ar
    15    6   19 1 
    16    7    8 ar
    17    7   20 1 
    18    8    9 1 
    19    9   12 ar
    20    9   13 ar
@<TRIPOS>SUBSTRUCTURE
1 MOL         1
@<TRIPOS>MOLECULE
query molecule
   20    20     1     0     0
SMALL
NO_CHARGE

@<TRIPOS>ATOM
      1 C         -27.9251  -58.4036   27.7337 C.3       1 MOL     0.1362
      2 C         -28.1856  -57.1157   28.5157 C.2       1 MOL     0.3092
      3 C         -27.3127  -58.1433   30.4999 C.ar      1 MOL     0.1404
      4 C         -26.0727  -58.7766   30.3020 C.ar      1 MOL     0.0468
      5 C         -25.6884  -59.8496   31.1030 C.ar      1 MOL     0.0037
      6 C         -26.5289  -60.2838   32.1276 C.ar      1 MOL     0.0009
      7 C         -27.7643  -59.6665   32.3260 C.ar      1 MOL     0.0131
      8 C         -28.1875  -58.6004   31.5070 C.ar      1 MOL     0.0397
      9 C         -29.5808  -58.0309   31.7441 C.2       1 MOL     0.0752
     10 O         -28.8306  -56.1857   28.0324 O.2       1 MOL    -0.2507
     11 O         -27.6666  -57.0857   29.7204 O.3       1 MOL    -0.4254
     12 O         -29.9599  -57.0056   31.1103 O.co2     1 MOL    -0.5445
     13 O         -30.3087  -58.6940   32.5522 O.co2     1 MOL    -0.5445
     14 H         -28.5134  -58.4231   26.7969 H         1 MOL     0.0342
     15 H         -28.1797  -59.2843   28.3542 H         1 MOL     0.0342
     16 H         -26.8417  -58.4303   27.4912 H         1 MOL     0.0342
     17 H         -25.4073  -58.4299   29.5225 H         1 MOL     0.0654
     18 H         -24.7396  -60.3390   30.9401 H         1 MOL     0.0619
     19 H         -26.2196  -61.0943   32.7711 H         1 MOL     0.0618
     20 H         -28.4064  -60.0128   33.1262 H         1 MOL     0.0625
@<TRIPOS>BOND
     1    1    2 1 
     2    1   14 1 
     3    1   15 1 
     4    1   16 1 
     5    2   10 2 
     6    2   11 1 
     7    3    4 ar
     8    3    8 ar
     9    3   11 1 
    10    4    5 ar
    11    4   17 1 
    12    5    6 ar
    13    5   18 1 
    14    6    7 ar
    15    6   19 1 
    16    7    8 ar
    17    7   20 1 
    18    8    9 1 
    19    9   12 ar
    20    9   13 ar
@<TRIPOS>SUBSTRUCTURE
1 MOL         1
@<TRIPOS>MOLECULE
query molecule
   20    20     1     0     0
SMALL
NO_CHARGE

@<TRIPOS>ATOM
      1 C         -60.0104  -69.1303   10.2216 C.3       1 MOL     0.1362
      2 C         -59.5439  -67.7198   10.5743 C.2       1 MOL     0.3092
      3 C         -60.0449  -66.0321   12.1617 C.ar      1 MOL     0.1404
      4 C         -59.1390  -65.9634   13.2397 C.ar      1 MOL     0.0468
      5 C         -58.8759  -64.7463   13.8701 C.ar      1 MOL     0.0037
      6 C         -59.5127  -63.5839   13.4343 C.ar      1 MOL     0.0009
      7 C         -60.4059  -63.6430   12.3674 C.ar      1 MOL     0.0131
      8 C         -60.6781  -64.8606   11.7174 C.ar      1 MOL     0.0397
      9 C         -61.6453  -64.8075   10.5594 C.2       1 MOL     0.0752
     10 O         -58.6646  -67.1205    9.9852 O.2       1 MOL    -0.2507
     11 O         -60.2794  -67.2631   11.5813 O.3       1 MOL    -0.4254
     12 O         -62.1372  -65.9020   10.1394 O.co2     1 MOL    -0.5445
     13 O         -61.9187  -63.6568   10.1134 O.co2     1 MOL    -0.5445
     14 H         -59.3988  -69.5413    9.3917 H         1 MOL     0.0342
     15 H         -61.0724  -69.1044    9.9003 H         1 MOL     0.0342
     16 H         -59.9186  -69.8010   11.0998 H         1 MOL     0.0342
     17 H         -58.6444  -66.8630   13.5792 H         1 MOL     0.0654
     18 H         -58.1801  -64.7044   14.6943 H         1 MOL     0.0619
     19 H         -59.3174  -62.6403   13.9203 H         1 MOL     0.0618
     20 H         -60.9062  -62.7434   12.0339 H         1 MOL     0.0625
@<TRIPOS>BOND
     1    1    2 1 
     2    1   14 1 
     3    1   15 1 
     4    1   16 1 
     5    2   10 2 
     6    2   11 1 
     7    3    4 ar
     8    3    8 ar
     9    3   11 1 
    10    4    5 ar
    11    4   17 1 
    12    5    6 ar
    13    5   18 1 
    14    6    7 ar
    15    6   19 1 
    16    7    8 ar
    17    7   20 1 
    18    8    9 1 
    19    9   12 ar
    20    9   13 ar
@<TRIPOS>SUBSTRUCTURE
1 MOL         1
@<TRIPOS>MOLECULE
query molecule
   20    20     1     0     0
SMALL
NO_CHARGE

@<TRIPOS>ATOM
      1 C          -9.7311  -81.9768  -12.7234 C.3       1 MOL     0.1362
      2 C          -9.7177  -80.4976  -13.1057 C.2       1 MOL     0.3092
      3 C         -10.9317  -79.0016  -14.4797 C.ar      1 MOL     0.1404
      4 C         -10.2136  -78.6160  -15.6311 C.ar      1 MOL     0.0468
      5 C         -10.3974  -77.3550  -16.2016 C.ar      1 MOL     0.0037
      6 C         -11.3015  -76.4611  -15.6265 C.ar      1 MOL     0.0009
      7 C         -12.0227  -76.8416  -14.4919 C.ar      1 MOL     0.0131
      8 C         -11.8676  -78.1191  -13.9017 C.ar      1 MOL     0.0397
      9 C         -12.7495  -78.4540  -12.6940 C.2       1 MOL     0.0752
     10 O          -8.9344  -79.6787  -12.6537 O.2       1 MOL    -0.2507
     11 O         -10.7139  -80.2629  -13.9522 O.3       1 MOL    -0.4254
     12 O         -12.7458  -79.6377  -12.2411 O.co2     1 MOL    -0.5445
     13 O         -13.4385  -77.4949  -12.2234 O.co2     1 MOL    -0.5445
     14 H          -8.9221  -82.1804  -11.9912 H         1 MOL     0.0342
     15 H          -9.5850  -82.6107  -13.6199 H         1 MOL     0.0342
     16 H         -10.7030  -82.2348  -12.2535 H         1 MOL     0.0342
     17 H          -9.5103  -79.3039  -16.0815 H         1 MOL     0.0654
     18 H          -9.8407  -77.0699  -17.0825 H         1 MOL     0.0619
     19 H         -11.4408  -75.4805  -16.0611 H         1 MOL     0.0618
     20 H         -12.7265  -76.1429  -14.0555 H         1 MOL     0.0625
@<TRIPOS>BOND
     1    1    2 1 
     2    1   14 1 
     3    1   15 1 
     4    1   16 1 
     5    2   10 2 
     6    2   11 1 
     7    3    4 ar
     8    3    8 ar
     9    3   11 1 
    10    4    5 ar
    11    4   17 1 
    12    5    6 ar
    13    5   18 1 
    14    6    7 ar
    15    6   19 1 
    16    7    8 ar
    17    7   20 1 
    18    8    9 1 
    19    9   12 ar
    20    9   13 ar
@<TRIPOS>SUBSTRUCTURE
1 MOL         1
