MODEL 1
REMARK VINA RESULT:      -5.5      0.000      0.000
REMARK  3 active torsions:
REMARK  status: ('A' for Active; 'I' for Inactive)
REMARK    1  A    between atoms: C_2  and  O_11 
REMARK    2  A    between atoms: C_3  and  O_11 
REMARK    3  A    between atoms: C_8  and  C_9 
ROOT
HETATM    1  C   UNL     1     -22.672 -44.997 -10.545  1.00  0.00     0.096 A 
HETATM    2  C   UNL     1     -21.952 -43.871 -10.205  1.00  0.00     0.038 A 
HETATM    3  C   UNL     1     -22.430 -42.886  -9.364  1.00  0.00     0.003 A 
HETATM    4  C   UNL     1     -23.690 -43.037  -8.839  1.00  0.00     0.001 A 
HETATM    5  C   UNL     1     -24.453 -44.143  -9.145  1.00  0.00     0.021 A 
HETATM    6  C   UNL     1     -23.935 -45.118 -10.000  1.00  0.00     0.074 A 
ENDROOT
BRANCH   1   7
HETATM    7  O   UNL     1     -22.238 -45.996 -11.373  1.00  0.00    -0.278 OA
BRANCH   7   8
HETATM    8  C   UNL     1     -21.325 -46.963 -11.058  1.00  0.00     0.260 C 
HETATM    9  C   UNL     1     -21.154 -47.489  -9.680  1.00  0.00     0.126 C 
HETATM   10  O   UNL     1     -20.635 -47.378 -12.038  1.00  0.00    -0.265 OA
ENDBRANCH   7   8
ENDBRANCH   1   7
BRANCH   6  11
HETATM   11  C   UNL     1     -24.775 -46.272 -10.298  1.00  0.00     0.212 C 
HETATM   12  O   UNL     1     -24.772 -47.284  -9.551  1.00  0.00    -0.644 OA
HETATM   13  O   UNL     1     -25.602 -46.299 -11.408  1.00  0.00    -0.644 OA
ENDBRANCH   6  11
TORSDOF 3
ENDMDL
