@<TRIPOS>MOLECULE
Olaparib_entry_00001_conf_07_protein
124 81 43
SMALL
NO_CHARGES


@<TRIPOS>ATOM
      1 HZ1        -9.3617    4.9812    7.7884 H       243 LYS243     -0.0901
      2 NZ         -8.7810    4.7010    8.5470 N.4     243 LYS243      0.3781
      3 HZ2        -9.3390    4.3934    9.3117 H       243 LYS243     -0.0901
      4 HZ3        -8.1965    5.4566    8.8300 H       243 LYS243     -0.0901
      5 HZ1        21.8932    9.6640    0.6024 H       259 LYS259     -0.0901
      6 NZ         22.3540    9.4710   -0.2580 N.4     259 LYS259      0.3781
      7 HZ2        22.6048    8.5104   -0.3089 H       259 LYS259     -0.0901
      8 HZ3        23.1598   10.0456   -0.3561 H       259 LYS259     -0.0901
      9 HH         15.5603   -4.4253   -2.6220 H       260 TYR260      0.2921
     10 OH         15.3870   -3.7430   -3.3350 O.3     260 TYR260     -0.5068
     11 HG1        12.4412    3.6119   -4.8440 H       262 THR262      0.2099
     12 OG1        11.6660    3.1790   -5.3180 O.3     262 THR262     -0.3897
     13 HZ1        10.2511    6.4545   -8.5862 H       263 LYS263     -0.0901
     14 NZ          9.6700    5.6550   -8.4530 N.4     263 LYS263      0.3781
     15 HZ2         8.7534    5.9414   -8.1826 H       263 LYS263     -0.0901
     16 HZ3        10.0617    5.0631   -7.7533 H       263 LYS263     -0.0901
     17 HZ1        21.1700   -1.7745  -10.0088 H       264 LYS264     -0.0901
     18 NZ         21.2250   -1.7280  -11.0010 N.4     264 LYS264      0.3781
     19 HZ2        21.9329   -2.3410  -11.3364 H       264 LYS264     -0.0901
     20 HZ3        21.4103   -0.7945  -11.2929 H       264 LYS264     -0.0901
     21 HZ1         7.3789   -5.4578  -10.1345 H       269 LYS269     -0.0901
     22 NZ          7.3110   -6.1790   -9.4530 N.4     269 LYS269      0.3781
     23 HZ2         6.3574   -6.4021   -9.2790 H       269 LYS269     -0.0901
     24 HZ3         7.7600   -5.9015   -8.6102 H       269 LYS269     -0.0901
     25 HG1        15.3154  -12.0479   -1.8597 H       271 THR271      0.2099
     26 OG1        14.9200  -12.8790   -2.2680 O.3     271 THR271     -0.3897
     27 HZ1        22.3732  -17.7640    5.5459 H       276 LYS276     -0.0901
     28 NZ         22.5510  -17.9540    4.5780 N.4     276 LYS276      0.3781
     29 HZ2        21.7185  -18.3188    4.1548 H       276 LYS276     -0.0901
     30 HZ3        23.2830  -18.6340    4.5055 H       276 LYS276     -0.0901
     31 HH         19.7297   -7.7576    9.0849 H       279 TYR279      0.2921
     32 OH         19.8080   -7.2760    8.2120 O.3     279 TYR279     -0.5068
     33 HZ1        34.4705  -12.3842    8.4468 H       283 LYS283     -0.0901
     34 NZ         33.9490  -11.9430    7.7200 N.4     283 LYS283      0.3781
     35 HZ2        33.7459  -12.6003    6.9992 H       283 LYS283     -0.0901
     36 HZ3        34.4657  -11.1763    7.3469 H       283 LYS283     -0.0901
     37 HZ1        30.6246  -11.3548   -2.0297 H       284 LYS284     -0.0901
     38 NZ         31.2280  -12.1170   -2.2610 N.4     284 LYS284      0.3781
     39 HZ2        31.6344  -11.9638   -3.1604 H       284 LYS284     -0.0901
     40 HZ3        30.7060  -12.9690   -2.2678 H       284 LYS284     -0.0901
     41 HH         28.3887    2.3053   -1.1920 H       306 TYR306      0.2921
     42 OH         27.7740    2.7440   -1.8460 O.3     306 TYR306     -0.5068
     43 HG1        27.0522   -4.5908   -8.6574 H       307 THR307      0.2099
     44 OG1        26.3120   -4.9350   -9.2430 O.3     307 THR307     -0.3897
     45 HG1        32.2227    6.5378    8.1047 H       323 THR323      0.2099
     46 OG1        32.4070    5.6740    7.6230 O.3     323 THR323     -0.3897
     47 HZ1        30.1141    9.2144    7.2069 H       325 LYS325     -0.0901
     48 NZ         29.1610    8.9330    7.2460 N.4     325 LYS325      0.3781
     49 HZ2        29.0898    7.9425    7.1807 H       325 LYS325     -0.0901
     50 HZ3        28.6419    9.3663    6.5161 H       325 LYS325     -0.0901
     51 HG         25.0695    3.2635   11.7255 H       328 SER328      0.2095
     52 OG         25.1580    2.2890   11.5220 O.3     328 SER328     -0.3927
     53 HZ1        23.3328    2.3276    0.6919 H       330 LYS330     -0.0901
     54 NZ         23.5180    3.0260    1.3810 N.4     330 LYS330      0.3781
     55 HZ2        22.6570    3.3688    1.7532 H       330 LYS330     -0.0901
     56 HZ3        24.0312    3.7776    0.9699 H       330 LYS330     -0.0901
     57 HZ1         8.8349  -14.9632    2.1997 H       345 LYS345     -0.0901
     58 NZ          8.3930  -14.1050    2.4430 N.4     345 LYS345      0.3781
     59 HZ2         8.5110  -13.4385    1.7122 H       345 LYS345     -0.0901
     60 HZ3         8.7718  -13.7525    3.2940 H       345 LYS345     -0.0901
     61 HZ1         2.3010  -13.2783   -1.7719 H       348 LYS348     -0.0901
     62 NZ          2.7670  -12.9680   -0.9450 N.4     348 LYS348      0.3781
     63 HZ2         3.7433  -12.8673   -1.1269 H       348 LYS348     -0.0901
     64 HZ3         2.6274  -13.6306   -0.2103 H       348 LYS348     -0.0901
     65 HG1        -6.8702   -7.4025    0.8946 H       349 THR349      0.2099
     66 OG1        -6.3420   -8.2570    0.9570 O.3     349 THR349     -0.3897
     67 HG        -11.8406  -13.5783    5.9076 H       353 SER353      0.2095
     68 OG        -11.8450  -12.6320    5.5800 O.3     353 SER353     -0.3927
     69 HH         -4.2281   -5.3327   19.8922 H       362 TYR362      0.2921
     70 OH         -4.7470   -6.1480   19.6250 O.3     362 TYR362     -0.5068
     71 HH         15.7637   13.2038   20.0641 H       397 TYR397      0.2921
     72 OH         14.8710   12.9690   19.6890 O.3     397 TYR397     -0.5068
     73 HZ1         3.5905  -11.8388   17.9689 H       409 LYS409     -0.0901
     74 NZ          4.4340  -11.4210   17.6290 N.4     409 LYS409      0.3781
     75 HZ2         4.2318  -10.5075   17.2734 H       409 LYS409     -0.0901
     76 HZ3         4.8114  -11.9869   16.8940 H       409 LYS409     -0.0901
     77 HZ1         2.1076  -10.8935   32.3196 H       413 LYS413     -0.0901
     78 NZ          1.6780  -11.4650   33.0130 N.4     413 LYS413      0.3781
     79 HZ2         0.8061  -11.0707   33.2904 H       413 LYS413     -0.0901
     80 HZ3         2.2786  -11.5570   33.8022 H       413 LYS413     -0.0901
     81 HG         14.3924    0.5226   14.2054 H       430 SER430      0.2095
     82 OG         13.4130    0.4260   14.0760 O.3     430 SER430     -0.3927
     83 HG          6.7142   -8.7369   12.9484 H       440 SER440      0.2095
     84 OG          5.9710   -8.9830   12.3290 O.3     440 SER440     -0.3927
     85 HG1        31.4883   -2.2521   10.5908 H       453 THR453      0.2099
     86 OG1        32.1320   -2.9810   10.8570 O.3     453 THR453     -0.3897
     87 HH         23.6715   -6.3616   11.8469 H       455 TYR455      0.2921
     88 OH         23.2810   -5.5850   12.3310 O.3     455 TYR455     -0.5068
     89 HZ1        27.5172  -10.7854   12.7526 H       459 LYS459     -0.0901
     90 NZ         26.6110  -10.3810   12.6630 N.4     459 LYS459      0.3781
     91 HZ2        25.9106  -11.0643   12.8511 H       459 LYS459     -0.0901
     92 HZ3        26.4905  -10.0110   11.7460 H       459 LYS459     -0.0901
     93 HH         25.7302   -3.8725   20.3437 H       462 TYR462      0.2921
     94 OH         25.6260   -2.9400   20.0150 O.3     462 TYR462     -0.5068
     95 HZ1        23.2882    6.0702   25.2507 H       469 LYS469     -0.0901
     96 NZ         23.5700    5.9180   24.3040 N.4     469 LYS469      0.3781
     97 HZ2        23.8462    4.9653   24.1841 H       469 LYS469     -0.0901
     98 HZ3        24.3354    6.5201   24.0807 H       469 LYS469     -0.0901
     99 HG         15.5804    3.7019   22.7025 H       470 SER470      0.2095
    100 OG         15.8020    4.6360   22.9740 O.3     470 SER470     -0.3927
    101 HH         22.5111    4.8258   18.5402 H       473 TYR473      0.2921
    102 OH         22.3100    5.5040   17.8300 O.3     473 TYR473     -0.5068
    103 HG         11.4017   14.3933    6.9419 H       477 SER477      0.2095
    104 OG         11.1460   14.2360    7.8940 O.3     477 SER477     -0.3927
    105 HZ1         4.8814   12.0927    5.6885 H       480 LYS480     -0.0901
    106 NZ          5.0820   11.8220    4.7460 N.4     480 LYS480      0.3781
    107 HZ2         5.1757   12.6406    4.1783 H       480 LYS480     -0.0901
    108 HZ3         4.3338   11.2576    4.3956 H       480 LYS480     -0.0901
    109 HG1         3.2226   12.9051   12.8929 H       482 THR482      0.2099
    110 OG1         2.7330   12.0500   13.1080 O.3     482 THR482     -0.3897
    111 HG         11.1204   -3.0586   24.2003 H       488 SER488      0.2095
    112 OG         10.3440   -2.9460   24.8140 O.3     488 SER488     -0.3927
    113 HZ1        37.1085   -7.1345   17.9930 H       504 LYS504     -0.0901
    114 NZ         37.6760   -7.8080   17.5340 N.4     504 LYS504      0.3781
    115 HZ2        38.5913   -7.8159   17.9192 H       504 LYS504     -0.0901
    116 HZ3        37.7089   -7.6318   16.5574 H       504 LYS504     -0.0901
    117 HH         21.2497    3.4726   32.6727 H       559 TYR559      0.2921
    118 OH         20.7160    2.6790   32.9500 O.3     559 TYR559     -0.5068
    119 HH          2.0479    0.9745   32.3951 H       571 TYR571      0.2921
    120 OH          2.2400    0.1330   31.8950 O.3     571 TYR571     -0.5068
    121 HZ1        -2.0680    8.1185   13.9226 H       574 LYS574     -0.0901
    122 NZ         -2.0400    8.5440   14.8270 N.4     574 LYS574      0.3781
    123 HZ2        -2.4953    7.9503   15.4897 H       574 LYS574     -0.0901
    124 HZ3        -2.5042    9.4286   14.7955 H       574 LYS574     -0.0901
@<TRIPOS>BOND
     1   17   18 1
     2   19   18 1
     3   18   20 1
     4   24   22 1
     5   23   22 1
     6   22   21 1
     7   44   43 1
     8   13   14 1
     9   14   16 1
    10   14   15 1
    11   12   11 1
    12    9   10 1
    13   39   38 1
    14   25   26 1
    15   40   38 1
    16   38   37 1
    17   41   42 1
    18   63   62 1
    19   61   62 1
    20   62   64 1
    21    7    6 1
    22    6    5 1
    23    6    8 1
    24   65   66 1
    25   53   54 1
    26   56   54 1
    27   54   55 1
    28   60   58 1
    29   57   58 1
    30   58   59 1
    31   30   28 1
    32  105  106 1
    33   28   27 1
    34   28   29 1
    35  107  106 1
    36  106  108 1
    37   68   67 1
    38   50   48 1
    39   45   46 1
    40   47   48 1
    41   35   34 1
    42   48   49 1
    43   36   34 1
    44   31   32 1
    45   34   33 1
    46    4    2 1
    47  104  103 1
    48    2    1 1
    49    2    3 1
    50   85   86 1
    51   51   52 1
    52   87   88 1
    53   91   90 1
    54   83   84 1
    55   89   90 1
    56   90   92 1
    57  109  110 1
    58  124  122 1
    59   81   82 1
    60  122  123 1
    61  122  121 1
    62  115  114 1
    63   73   74 1
    64  101  102 1
    65   75   74 1
    66  114  116 1
    67  114  113 1
    68   74   76 1
    69   71   72 1
    70   70   69 1
    71   93   94 1
    72  100   99 1
    73   95   96 1
    74   96   97 1
    75   96   98 1
    76  111  112 1
    77  120  119 1
    78   79   78 1
    79  117  118 1
    80   78   77 1
    81   78   80 1
@<TRIPOS>SUBSTRUCTURE
243 LYS243 1
259 LYS259 5
260 TYR260 9
262 THR262 11
263 LYS263 13
264 LYS264 17
269 LYS269 21
271 THR271 25
276 LYS276 27
279 TYR279 31
283 LYS283 33
284 LYS284 37
306 TYR306 41
307 THR307 43
323 THR323 45
325 LYS325 47
328 SER328 51
330 LYS330 53
345 LYS345 57
348 LYS348 61
349 THR349 65
353 SER353 67
362 TYR362 69
397 TYR397 71
409 LYS409 73
413 LYS413 77
430 SER430 81
440 SER440 83
453 THR453 85
455 TYR455 87
459 LYS459 89
462 TYR462 93
469 LYS469 95
470 SER470 99
473 TYR473 101
477 SER477 103
480 LYS480 105
482 THR482 109
488 SER488 111
504 LYS504 113
559 TYR559 117
571 TYR571 119
574 LYS574 121
@<TRIPOS>COMMENT
