@<TRIPOS>MOLECULE
Olaparib_entry_00001_conf_10_protein
124 81 43
SMALL
NO_CHARGES


@<TRIPOS>ATOM
      1 HZ1        -8.7156    4.7796    9.5373 H       243 LYS243     -0.0901
      2 NZ         -8.7810    4.7010    8.5470 N.4     243 LYS243      0.3781
      3 HZ2        -8.4614    5.5383    8.1138 H       243 LYS243     -0.0901
      4 HZ3        -9.7217    4.5124    8.2784 H       243 LYS243     -0.0901
      5 HZ1        22.2462   10.1682    0.4435 H       259 LYS259     -0.0901
      6 NZ         22.3540    9.4710   -0.2580 N.4     259 LYS259      0.3781
      7 HZ2        22.1292    8.5742    0.1073 H       259 LYS259     -0.0901
      8 HZ3        23.2828    9.4778   -0.6136 H       259 LYS259     -0.0901
      9 HH         15.8599   -4.4380   -2.7897 H       260 TYR260      0.2921
     10 OH         15.3870   -3.7430   -3.3350 O.3     260 TYR260     -0.5068
     11 HG1        11.5481    3.2847   -6.3120 H       262 THR262      0.2099
     12 OG1        11.6660    3.1790   -5.3180 O.3     262 THR262     -0.3897
     13 HZ1         9.5671    5.0177   -7.6927 H       263 LYS263     -0.0901
     14 NZ          9.6700    5.6550   -8.4530 N.4     263 LYS263      0.3781
     15 HZ2        10.5583    6.1062   -8.4013 H       263 LYS263     -0.0901
     16 HZ3         8.9413    6.3345   -8.4277 H       263 LYS263     -0.0901
     17 HZ1        21.1744   -0.7598  -10.7782 H       264 LYS264     -0.0901
     18 NZ         21.2250   -1.7280  -11.0010 N.4     264 LYS264      0.3781
     19 HZ2        21.4036   -2.2619  -10.1809 H       264 LYS264     -0.0901
     20 HZ3        21.9356   -1.8893  -11.6793 H       264 LYS264     -0.0901
     21 HZ1         8.0025   -5.5259   -9.1628 H       269 LYS269     -0.0901
     22 NZ          7.3110   -6.1790   -9.4530 N.4     269 LYS269      0.3781
     23 HZ2         6.7521   -5.7916  -10.1790 H       269 LYS269     -0.0901
     24 HZ3         6.7409   -6.4441   -8.6825 H       269 LYS269     -0.0901
     25 HG1        15.4454  -12.4673   -1.5142 H       271 THR271      0.2099
     26 OG1        14.9200  -12.8790   -2.2680 O.3     271 THR271     -0.3897
     27 HZ1        23.2945  -18.2711    5.1707 H       276 LYS276     -0.0901
     28 NZ         22.5510  -17.9540    4.5780 N.4     276 LYS276      0.3781
     29 HZ2        21.7349  -17.7832    5.1348 H       276 LYS276     -0.0901
     30 HZ3        22.3456  -18.6627    3.9006 H       276 LYS276     -0.0901
     31 HH         19.9193   -7.5097    9.1780 H       279 TYR279      0.2921
     32 OH         19.8080   -7.2760    8.2120 O.3     279 TYR279     -0.5068
     33 HZ1        33.9650  -12.9371    7.7998 H       283 LYS283     -0.0901
     34 NZ         33.9490  -11.9430    7.7200 N.4     283 LYS283      0.3781
     35 HZ2        34.0088  -11.6771    6.7615 H       283 LYS283     -0.0901
     36 HZ3        34.7078  -11.5477    8.2317 H       283 LYS283     -0.0901
     37 HZ1        31.5913  -11.6911   -3.0887 H       284 LYS284     -0.0901
     38 NZ         31.2280  -12.1170   -2.2610 N.4     284 LYS284      0.3781
     39 HZ2        30.8931  -13.0337   -2.4732 H       284 LYS284     -0.0901
     40 HZ3        30.4815  -11.5615   -1.8969 H       284 LYS284     -0.0901
     41 HH         27.1762    3.5427   -1.8982 H       306 TYR306      0.2921
     42 OH         27.7740    2.7440   -1.8460 O.3     306 TYR306     -0.5068
     43 HG1        25.8318   -4.1551   -9.6559 H       307 THR307      0.2099
     44 OG1        26.3120   -4.9350   -9.2430 O.3     307 THR307     -0.3897
     45 HG1        31.9618    5.0747    6.9487 H       323 THR323      0.2099
     46 OG1        32.4070    5.6740    7.6230 O.3     323 THR323     -0.3897
     47 HZ1        30.1481    9.0502    7.2760 H       325 LYS325     -0.0901
     48 NZ         29.1610    8.9330    7.2460 N.4     325 LYS325      0.3781
     49 HZ2        28.9306    7.9759    7.1004 H       325 LYS325     -0.0901
     50 HZ3        28.7670    9.4972    6.5274 H       325 LYS325     -0.0901
     51 HG         24.5454    1.5126   11.3777 H       328 SER328      0.2095
     52 OG         25.1580    2.2890   11.5220 O.3     328 SER328     -0.3927
     53 HZ1        23.2322    3.9454    1.6454 H       330 LYS330     -0.0901
     54 NZ         23.5180    3.0260    1.3810 N.4     330 LYS330      0.3781
     55 HZ2        24.0749    3.0713    0.5533 H       330 LYS330     -0.0901
     56 HZ3        22.7139    2.4573    1.2163 H       330 LYS330     -0.0901
     57 HZ1         8.8947  -14.5763    3.1622 H       345 LYS345     -0.0901
     58 NZ          8.3930  -14.1050    2.4430 N.4     345 LYS345      0.3781
     59 HZ2         8.6631  -14.4543    1.5501 H       345 LYS345     -0.0901
     60 HZ3         8.5600  -13.1244    2.4933 H       345 LYS345     -0.0901
     61 HZ1         2.2538  -13.6993   -0.4989 H       348 LYS348     -0.0901
     62 NZ          2.7670  -12.9680   -0.9450 N.4     348 LYS348      0.3781
     63 HZ2         2.6911  -13.0601   -1.9360 H       348 LYS348     -0.0901
     64 HZ3         3.7275  -13.0164   -0.6744 H       348 LYS348     -0.0901
     65 HG1        -5.4351   -8.2271    0.5214 H       349 THR349      0.2099
     66 OG1        -6.3420   -8.2570    0.9570 O.3     349 THR349     -0.3897
     67 HG        -11.1702  -13.1760    6.0815 H       353 SER353      0.2095
     68 OG        -11.8450  -12.6320    5.5800 O.3     353 SER353     -0.3927
     69 HH         -4.9051   -5.2053   19.9279 H       362 TYR362      0.2921
     70 OH         -4.7470   -6.1480   19.6250 O.3     362 TYR362     -0.5068
     71 HH         14.9198   13.0527   20.6806 H       397 TYR397      0.2921
     72 OH         14.8710   12.9690   19.6890 O.3     397 TYR397     -0.5068
     73 HZ1         4.7053  -12.1550   17.0051 H       409 LYS409     -0.0901
     74 NZ          4.4340  -11.4210   17.6290 N.4     409 LYS409      0.3781
     75 HZ2         3.5284  -11.6225   18.0045 H       409 LYS409     -0.0901
     76 HZ3         4.3997  -10.5551   17.1271 H       409 LYS409     -0.0901
     77 HZ1         0.9206  -10.8680   32.7641 H       413 LYS413     -0.0901
     78 NZ          1.6780  -11.4650   33.0130 N.4     413 LYS413      0.3781
     79 HZ2         1.7405  -11.5444   34.0041 H       413 LYS413     -0.0901
     80 HZ3         2.5316  -11.1086   32.6437 H       413 LYS413     -0.0901
     81 HG         13.1090   -0.5189   14.0774 H       430 SER430      0.2095
     82 OG         13.4130    0.4260   14.0760 O.3     430 SER430     -0.3927
     83 HG          5.6912   -8.1940   11.7852 H       440 SER440      0.2095
     84 OG          5.9710   -8.9830   12.3290 O.3     440 SER440     -0.3927
     85 HG1        32.5027   -3.8356   10.4713 H       453 THR453      0.2099
     86 OG1        32.1320   -2.9810   10.8570 O.3     453 THR453     -0.3897
     87 HH         23.5306   -6.4885   11.9972 H       455 TYR455      0.2921
     88 OH         23.2810   -5.5850   12.3310 O.3     455 TYR455     -0.5068
     89 HZ1        26.3170  -10.0523   11.7695 H       459 LYS459     -0.0901
     90 NZ         26.6110  -10.3810   12.6630 N.4     459 LYS459      0.3781
     91 HZ2        27.5645  -10.6678   12.6260 H       459 LYS459     -0.0901
     92 HZ3        26.0363  -11.1407   12.9543 H       459 LYS459     -0.0901
     93 HH         25.6790   -3.0169   19.0252 H       462 TYR462      0.2921
     94 OH         25.6260   -2.9400   20.0150 O.3     462 TYR462     -0.5068
     95 HZ1        23.8203    6.7469   24.8031 H       469 LYS469     -0.0901
     96 NZ         23.5700    5.9180   24.3040 N.4     469 LYS469      0.3781
     97 HZ2        23.3010    5.2046   24.9498 H       469 LYS469     -0.0901
     98 HZ3        24.3488    5.6043   23.7623 H       469 LYS469     -0.0901
     99 HG         16.0357    3.8288   22.4361 H       470 SER470      0.2095
    100 OG         15.8020    4.6360   22.9740 O.3     470 SER470     -0.3927
    101 HH         22.6404    4.5963   18.0976 H       473 TYR473      0.2921
    102 OH         22.3100    5.5040   17.8300 O.3     473 TYR473     -0.5068
    103 HG         10.3991   13.8754    8.4496 H       477 SER477      0.2095
    104 OG         11.1460   14.2360    7.8940 O.3     477 SER477     -0.3927
    105 HZ1         5.1317   12.5729    4.0860 H       480 LYS480     -0.0901
    106 NZ          5.0820   11.8220    4.7460 N.4     480 LYS480      0.3781
    107 HZ2         4.3154   11.2235    4.5108 H       480 LYS480     -0.0901
    108 HZ3         4.9440   12.1947    5.6642 H       480 LYS480     -0.0901
    109 HG1         2.2019   12.2453   12.2732 H       482 THR482      0.2099
    110 OG1         2.7330   12.0500   13.1080 O.3     482 THR482     -0.3897
    111 HG          9.3911   -2.6560   24.8245 H       488 SER488      0.2095
    112 OG         10.3440   -2.9460   24.8140 O.3     488 SER488     -0.3927
    113 HZ1        37.1939   -7.3624   16.7887 H       504 LYS504     -0.0901
    114 NZ         37.6760   -7.8080   17.5340 N.4     504 LYS504      0.3781
    115 HZ2        37.5797   -7.2876   18.3743 H       504 LYS504     -0.0901
    116 HZ3        38.6347   -7.9319   17.3072 H       504 LYS504     -0.0901
    117 HH         19.9140    2.5199   33.5183 H       559 TYR559      0.2921
    118 OH         20.7160    2.6790   32.9500 O.3     559 TYR559     -0.5068
    119 HH          3.0461    0.1292   32.4828 H       571 TYR571      0.2921
    120 OH          2.2400    0.1330   31.8950 O.3     571 TYR571     -0.5068
    121 HZ1        -2.6042    8.4108   15.6417 H       574 LYS574     -0.0901
    122 NZ         -2.0400    8.5440   14.8270 N.4     574 LYS574      0.3781
    123 HZ2        -2.3584    9.3495   14.3283 H       574 LYS574     -0.0901
    124 HZ3        -2.1054    7.7385   14.2389 H       574 LYS574     -0.0901
@<TRIPOS>BOND
     1   17   18 1
     2   19   18 1
     3   18   20 1
     4   24   22 1
     5   23   22 1
     6   22   21 1
     7   44   43 1
     8   13   14 1
     9   14   16 1
    10   14   15 1
    11   12   11 1
    12    9   10 1
    13   39   38 1
    14   25   26 1
    15   40   38 1
    16   38   37 1
    17   41   42 1
    18   63   62 1
    19   61   62 1
    20   62   64 1
    21    7    6 1
    22    6    5 1
    23    6    8 1
    24   65   66 1
    25   53   54 1
    26   56   54 1
    27   54   55 1
    28   60   58 1
    29   57   58 1
    30   58   59 1
    31   30   28 1
    32  105  106 1
    33   28   27 1
    34   28   29 1
    35  107  106 1
    36  106  108 1
    37   68   67 1
    38   50   48 1
    39   45   46 1
    40   47   48 1
    41   35   34 1
    42   48   49 1
    43   36   34 1
    44   31   32 1
    45   34   33 1
    46    4    2 1
    47  104  103 1
    48    2    1 1
    49    2    3 1
    50   85   86 1
    51   51   52 1
    52   87   88 1
    53   91   90 1
    54   83   84 1
    55   89   90 1
    56   90   92 1
    57  109  110 1
    58  124  122 1
    59   81   82 1
    60  122  123 1
    61  122  121 1
    62  115  114 1
    63   73   74 1
    64  101  102 1
    65   75   74 1
    66  114  116 1
    67  114  113 1
    68   74   76 1
    69   71   72 1
    70   70   69 1
    71   93   94 1
    72  100   99 1
    73   95   96 1
    74   96   97 1
    75   96   98 1
    76  111  112 1
    77  120  119 1
    78   79   78 1
    79  117  118 1
    80   78   77 1
    81   78   80 1
@<TRIPOS>SUBSTRUCTURE
243 LYS243 1
259 LYS259 5
260 TYR260 9
262 THR262 11
263 LYS263 13
264 LYS264 17
269 LYS269 21
271 THR271 25
276 LYS276 27
279 TYR279 31
283 LYS283 33
284 LYS284 37
306 TYR306 41
307 THR307 43
323 THR323 45
325 LYS325 47
328 SER328 51
330 LYS330 53
345 LYS345 57
348 LYS348 61
349 THR349 65
353 SER353 67
362 TYR362 69
397 TYR397 71
409 LYS409 73
413 LYS413 77
430 SER430 81
440 SER440 83
453 THR453 85
455 TYR455 87
459 LYS459 89
462 TYR462 93
469 LYS469 95
470 SER470 99
473 TYR473 101
477 SER477 103
480 LYS480 105
482 THR482 109
488 SER488 111
504 LYS504 113
559 TYR559 117
571 TYR571 119
574 LYS574 121
@<TRIPOS>COMMENT
