MODEL 1
REMARK VINA RESULT:      -6.4      0.000      0.000
REMARK  3 active torsions:
REMARK  status: ('A' for Active; 'I' for Inactive)
REMARK    1  A    between atoms: C_2  and  O_11 
REMARK    2  A    between atoms: C_3  and  O_11 
REMARK    3  A    between atoms: C_8  and  C_9 
ROOT
HETATM    1  C   UNL     1     -42.249 -55.723   7.946  1.00  0.00     0.096 A 
HETATM    2  C   UNL     1     -43.265 -56.230   8.727  1.00  0.00     0.038 A 
HETATM    3  C   UNL     1     -44.155 -55.440   9.426  1.00  0.00     0.003 A 
HETATM    4  C   UNL     1     -44.018 -54.075   9.339  1.00  0.00     0.001 A 
HETATM    5  C   UNL     1     -43.020 -53.515   8.572  1.00  0.00     0.021 A 
HETATM    6  C   UNL     1     -42.139 -54.348   7.879  1.00  0.00     0.074 A 
ENDROOT
BRANCH   1   7
HETATM    7  O   UNL     1     -41.346 -56.468   7.237  1.00  0.00    -0.278 OA
BRANCH   7   8
HETATM    8  C   UNL     1     -41.635 -57.313   6.203  1.00  0.00     0.260 C 
HETATM    9  C   UNL     1     -41.309 -58.761   6.231  1.00  0.00     0.126 C 
HETATM   10  O   UNL     1     -42.207 -56.762   5.214  1.00  0.00    -0.265 OA
ENDBRANCH   7   8
ENDBRANCH   1   7
BRANCH   6  11
HETATM   11  C   UNL     1     -41.098 -53.714   7.080  1.00  0.00     0.212 C 
HETATM   12  O   UNL     1     -40.189 -53.034   7.622  1.00  0.00    -0.644 OA
HETATM   13  O   UNL     1     -41.069 -53.835   5.700  1.00  0.00    -0.644 OA
ENDBRANCH   6  11
TORSDOF 3
ENDMDL
