MODEL 1
REMARK VINA RESULT:      -5.5      0.000      0.000
REMARK  3 active torsions:
REMARK  status: ('A' for Active; 'I' for Inactive)
REMARK    1  A    between atoms: C_2  and  O_11 
REMARK    2  A    between atoms: C_3  and  O_11 
REMARK    3  A    between atoms: C_8  and  C_9 
ROOT
HETATM    1  C   UNL     1     -22.650 -45.089 -10.402  1.00  0.00     0.096 A 
HETATM    2  C   UNL     1     -21.902 -43.976 -10.080  1.00  0.00     0.038 A 
HETATM    3  C   UNL     1     -22.389 -42.922  -9.333  1.00  0.00     0.003 A 
HETATM    4  C   UNL     1     -23.687 -42.987  -8.889  1.00  0.00     0.001 A 
HETATM    5  C   UNL     1     -24.479 -44.076  -9.181  1.00  0.00     0.021 A 
HETATM    6  C   UNL     1     -23.951 -45.123  -9.939  1.00  0.00     0.074 A 
ENDROOT
BRANCH   1   7
HETATM    7  O   UNL     1     -22.209 -46.155 -11.138  1.00  0.00    -0.278 OA
BRANCH   7   8
HETATM    8  C   UNL     1     -21.321 -47.107 -10.723  1.00  0.00     0.260 C 
HETATM    9  C   UNL     1     -21.301 -47.640  -9.337  1.00  0.00     0.126 C 
HETATM   10  O   UNL     1     -20.513 -47.502 -11.617  1.00  0.00    -0.265 OA
ENDBRANCH   7   8
ENDBRANCH   1   7
BRANCH   6  11
HETATM   11  C   UNL     1     -24.822 -46.256 -10.226  1.00  0.00     0.212 C 
HETATM   12  O   UNL     1     -24.913 -47.221  -9.424  1.00  0.00    -0.644 OA
HETATM   13  O   UNL     1     -25.576 -46.316 -11.386  1.00  0.00    -0.644 OA
ENDBRANCH   6  11
TORSDOF 3
ENDMDL
