MODEL 1
REMARK VINA RESULT:      -8.5      0.000      0.000
REMARK  4 active torsions:
REMARK  status: ('A' for Active; 'I' for Inactive)
REMARK       I    between atoms: N_1  and  C_17 
REMARK       I    between atoms: N_2  and  C_22 
REMARK    1  A    between atoms: C_12  and  C_13 
REMARK    2  A    between atoms: C_13  and  C_14 
REMARK    3  A    between atoms: C_16  and  C_17 
REMARK    4  A    between atoms: C_22  and  C_23 
ROOT
HETATM    1  C   UNL     1     -39.612 -35.059  11.395  1.00  0.00    -0.051 A 
HETATM    2  C   UNL     1     -40.290 -34.935  10.169  1.00  0.00     0.027 A 
HETATM    3  C   UNL     1     -40.375 -33.707   9.557  1.00  0.00     0.071 A 
HETATM    4  C   UNL     1     -39.826 -32.562  10.083  1.00  0.00     0.132 A 
HETATM    5  C   UNL     1     -39.163 -32.685  11.283  1.00  0.00     0.044 A 
HETATM    6  C   UNL     1     -39.072 -33.936  11.910  1.00  0.00     0.010 A 
HETATM    7  F   UNL     1     -39.937 -31.366   9.435  1.00  0.00    -0.205 F 
ENDROOT
BRANCH   1   8
HETATM    8  C   UNL     1     -39.568 -36.433  11.967  1.00  0.00     0.100 C 
BRANCH   8   9
HETATM    9  C   UNL     1     -39.503 -36.381  13.422  1.00  0.00     0.070 A 
HETATM   10  N   UNL     1     -40.696 -36.201  14.069  1.00  0.00    -0.175 NA
HETATM   11  N   UNL     1     -40.756 -36.081  15.373  1.00  0.00    -0.243 N 
HETATM   12  H   UNL     1     -41.639 -35.952  15.791  1.00  0.00     0.192 HD
HETATM   13  C   UNL     1     -39.676 -36.125  16.166  1.00  0.00     0.272 A 
HETATM   14  C   UNL     1     -38.436 -36.304  15.589  1.00  0.00     0.046 A 
HETATM   15  O   UNL     1     -39.714 -36.010  17.418  1.00  0.00    -0.266 OA
HETATM   16  C   UNL     1     -37.282 -36.377  16.369  1.00  0.00     0.018 A 
HETATM   17  C   UNL     1     -38.387 -36.430  14.213  1.00  0.00     0.006 A 
HETATM   18  C   UNL     1     -36.056 -36.579  15.773  1.00  0.00     0.001 A 
HETATM   19  C   UNL     1     -36.042 -36.702  14.400  1.00  0.00     0.001 A 
HETATM   20  C   UNL     1     -37.179 -36.632  13.613  1.00  0.00     0.014 A 
ENDBRANCH   8   9
ENDBRANCH   1   8
BRANCH   3  21
HETATM   21  C   UNL     1     -41.078 -33.545   8.265  1.00  0.00     0.257 C 
HETATM   22  N   UNL     1     -42.497 -33.509   8.273  1.00  0.00    -0.345 N 
HETATM   23  C   UNL     1     -43.211 -33.349   7.047  1.00  0.00     0.146 C 
HETATM   24  C   UNL     1     -43.195 -33.636   9.539  1.00  0.00     0.146 C 
HETATM   25  C   UNL     1     -44.602 -33.943   7.099  1.00  0.00     0.145 C 
HETATM   26  N   UNL     1     -44.625 -34.988   8.089  1.00  0.00    -0.349 N 
HETATM   27  C   UNL     1     -44.355 -34.596   9.477  1.00  0.00     0.145 C 
HETATM   28  C   UNL     1     -44.889 -36.323   7.767  1.00  0.00     0.224 C 
HETATM   29  O   UNL     1     -44.898 -37.176   8.725  1.00  0.00    -0.273 OA
HETATM   30  O   UNL     1     -40.464 -33.440   7.178  1.00  0.00    -0.267 OA
BRANCH  28  31
HETATM   31  C   UNL     1     -45.161 -36.870   6.435  1.00  0.00     0.078 A 
HETATM   32  C   UNL     1     -46.610 -36.884   6.004  1.00  0.00     0.015 A 
HETATM   33  C   UNL     1     -45.910 -38.143   6.269  1.00  0.00     0.015 A 
ENDBRANCH  28  31
ENDBRANCH   3  21
TORSDOF 4
ENDMDL
