MODEL 1
REMARK VINA RESULT:      -6.9      0.000      0.000
REMARK  3 active torsions:
REMARK  status: ('A' for Active; 'I' for Inactive)
REMARK    1  A    between atoms: C_2  and  O_11 
REMARK    2  A    between atoms: C_3  and  O_11 
REMARK    3  A    between atoms: C_8  and  C_9 
ROOT
HETATM    1  C   UNL     1     -41.637 -55.394   6.522  1.00  0.00     0.096 A 
HETATM    2  C   UNL     1     -40.911 -54.236   6.339  1.00  0.00     0.038 A 
HETATM    3  C   UNL     1     -40.799 -53.248   7.298  1.00  0.00     0.003 A 
HETATM    4  C   UNL     1     -41.446 -53.430   8.496  1.00  0.00     0.001 A 
HETATM    5  C   UNL     1     -42.185 -54.569   8.732  1.00  0.00     0.021 A 
HETATM    6  C   UNL     1     -42.275 -55.546   7.738  1.00  0.00     0.074 A 
ENDROOT
BRANCH   1   7
HETATM    7  O   UNL     1     -41.775 -56.397   5.602  1.00  0.00    -0.278 OA
BRANCH   7   8
HETATM    8  C   UNL     1     -40.763 -57.141   5.065  1.00  0.00     0.260 C 
HETATM    9  C   UNL     1     -39.647 -57.688   5.879  1.00  0.00     0.126 C 
HETATM   10  O   UNL     1     -40.851 -57.331   3.814  1.00  0.00    -0.265 OA
ENDBRANCH   7   8
ENDBRANCH   1   7
BRANCH   6  11
HETATM   11  C   UNL     1     -43.066 -56.735   8.028  1.00  0.00     0.212 C 
HETATM   12  O   UNL     1     -43.771 -56.806   9.067  1.00  0.00    -0.644 OA
HETATM   13  O   UNL     1     -43.070 -57.828   7.178  1.00  0.00    -0.644 OA
ENDBRANCH   6  11
TORSDOF 3
ENDMDL
