@<TRIPOS>MOLECULE
aspirin_entry_00001_conf_21
20 20 1
SMALL
NO_CHARGES


@<TRIPOS>ATOM
      1 C          -1.8601  -63.3367    7.8493 C.3       1 UNL1        0.0000
      2 C          -2.7067  -62.1385    8.0783 C.2       1 UNL1        0.0000
      3 C          -4.2435  -60.4624    7.2000 C.ar      1 UNL1        0.0000
      4 C          -5.1251  -60.3389    8.2528 C.ar      1 UNL1        0.0000
      5 C          -6.0553  -59.3233    8.3517 C.ar      1 UNL1        0.0000
      6 C          -6.1027  -58.3871    7.3474 C.ar      1 UNL1        0.0000
      7 C          -5.2449  -58.4635    6.2719 C.ar      1 UNL1        0.0000
      8 C          -4.3178  -59.5047    6.2073 C.ar      1 UNL1        0.0000
      9 C          -3.4288  -59.5487    5.0526 C.2       1 UNL1        0.0000
     10 O          -2.9293  -61.6713    9.2362 O.2       1 UNL1        0.0000
     11 O          -3.3069  -61.4508    7.0615 O.3       1 UNL1        0.0000
     12 O          -3.3089  -58.5558    4.2902 O.co2     1 UNL1       -0.5000
     13 O          -2.6881  -60.6792    4.7510 O.co2     1 UNL1       -0.5000
     14 H          -1.4999  -63.7027    8.7881 H         1 UNL1        0.0000
     15 H          -1.0304  -63.0731    7.2274 H         1 UNL1        0.0000
     16 H          -2.4397  -64.0959    7.3680 H         1 UNL1        0.0000
     17 H          -5.0877  -61.0424    9.0067 H         1 UNL1        0.0000
     18 H          -6.6969  -59.2685    9.1588 H         1 UNL1        0.0000
     19 H          -6.7890  -57.6179    7.3982 H         1 UNL1        0.0000
     20 H          -5.2863  -57.7562    5.5210 H         1 UNL1        0.0000
@<TRIPOS>BOND
     1    1    2 1
     2    1   14 1
     3    1   15 1
     4    1   16 1
     5    2   10 2
     6    2   11 1
     7    3    4 ar
     8    3    8 ar
     9    3   11 1
    10    4    5 ar
    11    4   17 1
    12    5    6 ar
    13    5   18 1
    14    6    7 ar
    15    6   19 1
    16    7    8 ar
    17    7   20 1
    18    8    9 1
    19    9   12 ar
    20    9   13 ar
@<TRIPOS>SUBSTRUCTURE
1 UNL1 1
@<TRIPOS>COMMENT
aspirin
PLANTSproteinTorsions
102
1 195.2306
42 177.6274
151 115.6336
173 148.8283
432 80.3053
491 56.2300
531 217.0607
563 96.4645
572 47.9055
629 11.4445
730 218.3388
826 145.5369
895 157.0085
921 126.0567
954 26.3605
1044 319.1611
1258 33.7532
1480 4.0977
1534 138.7378
1612 73.3575
1654 340.2929
1680 358.0251
1704 106.8865
1767 80.9533
1795 355.6766
1847 167.4532
1879 141.8653
1921 104.1273
1944 14.3380
1966 134.5307
1975 104.9686
2067 120.4590
2118 133.6555
2167 86.9228
2220 185.6634
2243 47.1200
2272 182.0809
2294 63.4380
2609 282.1737
2728 235.2946
2931 92.4416
3031 42.6438
3044 346.1799
3058 102.3582
3085 60.8983
3166 111.9653
3188 104.5354
3496 144.0942
3614 189.1666
3656 91.6526
3697 233.7881
3722 36.4412
3847 78.7435
3888 80.2611
4051 268.1671
4174 15.3070
4734 306.9739
4804 112.7295
4952 89.3921
5093 199.0930
5103 263.9143
5144 31.4425
5332 72.9998
5363 164.0605
5457 49.1870
5683 236.5544
5900 180.3638
6049 138.2104
6089 10.8851
6125 310.6653
6181 219.6523
6190 266.9393
6214 205.3578
6331 119.9372
6344 233.4586
6432 125.8198
7006 200.8926
7253 268.0879
7344 156.0085
7385 141.8528
7394 235.5346
7408 231.1530
7540 12.9201
7948 23.1628
8021 96.1161
8226 256.1651
8265 70.6204
8391 132.8576
8443 248.9132
8487 159.5719
8515 68.1044
8527 315.0099
8693 249.1317
8705 321.0174
8731 177.2423
8771 276.4562
8793 49.7704
8887 143.3885
8910 199.6567
8921 14.7579
8973 124.2342
8998 210.4427
PLANTSmolcadARTstart hb
PLANTSmolcadARTstart HB
LINES
-3.30886 -58.5558 4.29017 -2.97357 -59.3487 2.60849 0 255 0 5
-3.30886 -58.5558 4.29017 -2.63 -56.738 3.648 0 255 0 5
PLANTSmolcadARTstart HBCH
LINES
PLANTSmolcadARTstart HB-CHO
LINES
PLANTSmolcadARTend
PLANTSmolcadARTstart HB_WATER
LINES
PLANTSmolcadARTend

PLANTSmolcadARTend

