@<TRIPOS>MOLECULE
aspirin_entry_00001_conf_27
20 20 1
SMALL
NO_CHARGES


@<TRIPOS>ATOM
      1 C          -5.8079  -59.1548    7.2083 C.3       1 UNL1        0.0000
      2 C          -5.0793  -58.1811    6.3564 C.2       1 UNL1        0.0000
      3 C          -3.6744  -59.8308    5.2397 C.ar      1 UNL1        0.0000
      4 C          -4.4880  -60.9428    5.1924 C.ar      1 UNL1        0.0000
      5 C          -4.0211  -62.2176    4.9401 C.ar      1 UNL1        0.0000
      6 C          -2.6746  -62.3843    4.7244 C.ar      1 UNL1        0.0000
      7 C          -1.8165  -61.3069    4.7608 C.ar      1 UNL1        0.0000
      8 C          -2.3260  -60.0334    5.0185 C.ar      1 UNL1        0.0000
      9 C          -1.3841  -58.9209    5.0482 C.2       1 UNL1        0.0000
     10 O          -5.3233  -56.9366    6.3806 O.2       1 UNL1        0.0000
     11 O          -4.0935  -58.5513    5.4858 O.3       1 UNL1        0.0000
     12 O          -1.7860  -57.7310    4.9844 O.co2     1 UNL1       -0.5000
     13 O          -0.0186  -59.1300    5.1452 O.co2     1 UNL1       -0.5000
     14 H          -6.5290  -58.6361    7.8049 H         1 UNL1        0.0000
     15 H          -5.1134  -59.6592    7.8469 H         1 UNL1        0.0000
     16 H          -6.3053  -59.8696    6.5870 H         1 UNL1        0.0000
     17 H          -5.4991  -60.8159    5.3539 H         1 UNL1        0.0000
     18 H          -4.6664  -63.0231    4.9134 H         1 UNL1        0.0000
     19 H          -2.3009  -63.3272    4.5335 H         1 UNL1        0.0000
     20 H          -0.8059  -61.4399    4.5976 H         1 UNL1        0.0000
@<TRIPOS>BOND
     1    1    2 1
     2    1   14 1
     3    1   15 1
     4    1   16 1
     5    2   10 2
     6    2   11 1
     7    3    4 ar
     8    3    8 ar
     9    3   11 1
    10    4    5 ar
    11    4   17 1
    12    5    6 ar
    13    5   18 1
    14    6    7 ar
    15    6   19 1
    16    7    8 ar
    17    7   20 1
    18    8    9 1
    19    9   12 ar
    20    9   13 ar
@<TRIPOS>SUBSTRUCTURE
1 UNL1 1
@<TRIPOS>COMMENT
aspirin
PLANTSproteinTorsions
102
1 45.9985
42 21.4324
151 45.5287
173 117.3156
432 234.7839
491 233.1594
531 347.4739
563 246.7633
572 257.4777
629 125.5507
730 241.6277
826 147.8967
895 121.9452
921 78.4982
954 175.7999
1044 29.6745
1258 148.6396
1480 203.0031
1534 97.4319
1612 200.8571
1654 92.0910
1680 55.4342
1704 355.2998
1767 338.4818
1795 78.8581
1847 139.4272
1879 130.2304
1921 147.2160
1944 61.2653
1966 233.8777
1975 223.4333
2067 82.2059
2118 72.8111
2167 106.4491
2220 102.9103
2243 221.3698
2272 66.3982
2294 348.0032
2609 241.8234
2728 120.7678
2931 180.7465
3031 81.4646
3044 51.9894
3058 186.6684
3085 122.1835
3166 58.7106
3188 40.1974
3496 229.5358
3614 106.6360
3656 343.5943
3697 56.6959
3722 23.9483
3847 231.5227
3888 269.4422
4051 17.4443
4174 180.0941
4734 201.4426
4804 36.7457
4952 216.6106
5093 231.6588
5103 307.0991
5144 300.9251
5332 302.6922
5363 229.0885
5457 254.3463
5683 174.8948
5900 184.7427
6049 81.2726
6089 222.6237
6125 27.8974
6181 122.5571
6190 213.3976
6214 193.4327
6331 273.0541
6344 236.4776
6432 211.2907
7006 138.2646
7253 61.4006
7344 293.9399
7385 261.5074
7394 249.0110
7408 212.1360
7540 213.0070
7948 172.9920
8021 161.8331
8226 232.7901
8265 41.4745
8391 161.0293
8443 57.1984
8487 247.6872
8515 84.3951
8527 122.5031
8693 107.0138
8705 51.6973
8731 238.4068
8771 253.8180
8793 24.4015
8887 38.8127
8910 172.1780
8921 127.4130
8973 37.3517
8998 290.8602
PLANTSmolcadARTstart hb
PLANTSmolcadARTstart HB
LINES
-1.78598 -57.731 4.98441 -2.63 -56.738 3.648 0 255 0 5
PLANTSmolcadARTstart HBCH
LINES
PLANTSmolcadARTstart HB-CHO
LINES
PLANTSmolcadARTend
PLANTSmolcadARTstart HB_WATER
LINES
PLANTSmolcadARTend

PLANTSmolcadARTend

