@<TRIPOS>MOLECULE
aspirin_entry_00001_conf_100
20 20 1
SMALL
NO_CHARGES


@<TRIPOS>ATOM
      1 C         -47.1652  -59.0704   26.7107 C.3       1 UNL1        0.0000
      2 C         -46.0883  -59.2573   27.7158 C.2       1 UNL1        0.0000
      3 C         -44.2346  -59.1241   26.1383 C.ar      1 UNL1        0.0000
      4 C         -44.6597  -58.1552   25.2544 C.ar      1 UNL1        0.0000
      5 C         -44.0905  -57.9553   24.0123 C.ar      1 UNL1        0.0000
      6 C         -43.0451  -58.7652   23.6400 C.ar      1 UNL1        0.0000
      7 C         -42.5809  -59.7496   24.4848 C.ar      1 UNL1        0.0000
      8 C         -43.1817  -59.9211   25.7328 C.ar      1 UNL1        0.0000
      9 C         -42.6603  -60.9740   26.5960 C.2       1 UNL1        0.0000
     10 O         -46.3223  -59.3380   28.9598 O.2       1 UNL1        0.0000
     11 O         -44.7684  -59.3570   27.3769 O.3       1 UNL1        0.0000
     12 O         -41.7986  -61.7878   26.1757 O.co2     1 UNL1       -0.5000
     13 O         -43.0924  -61.1194   27.9036 O.co2     1 UNL1       -0.5000
     14 H         -48.1114  -59.0208   27.2079 H         1 UNL1        0.0000
     15 H         -47.1635  -59.8951   26.0291 H         1 UNL1        0.0000
     16 H         -46.9961  -58.1619   26.1720 H         1 UNL1        0.0000
     17 H         -45.4444  -57.5473   25.5358 H         1 UNL1        0.0000
     18 H         -44.4403  -57.2167   23.3813 H         1 UNL1        0.0000
     19 H         -42.6024  -58.6356   22.7167 H         1 UNL1        0.0000
     20 H         -41.7948  -60.3543   24.1982 H         1 UNL1        0.0000
@<TRIPOS>BOND
     1    1    2 1
     2    1   14 1
     3    1   15 1
     4    1   16 1
     5    2   10 2
     6    2   11 1
     7    3    4 ar
     8    3    8 ar
     9    3   11 1
    10    4    5 ar
    11    4   17 1
    12    5    6 ar
    13    5   18 1
    14    6    7 ar
    15    6   19 1
    16    7    8 ar
    17    7   20 1
    18    8    9 1
    19    9   12 ar
    20    9   13 ar
@<TRIPOS>SUBSTRUCTURE
1 UNL1 1
@<TRIPOS>COMMENT
aspirin
PLANTSproteinTorsions
102
1 251.7888
42 100.2226
151 174.7280
173 352.8378
432 161.6565
491 202.1500
531 349.0076
563 52.9121
572 62.1758
629 355.7018
730 45.2234
826 11.9550
895 45.0667
921 30.1083
954 28.6049
1044 18.0687
1258 123.5381
1480 144.1526
1534 121.6968
1612 212.5488
1654 142.9361
1680 119.0470
1704 32.9184
1767 348.0658
1795 9.8745
1847 283.2819
1879 196.4264
1921 86.0547
1944 41.7849
1966 44.1520
1975 216.5061
2067 82.8528
2118 168.6058
2167 9.7712
2220 59.4735
2243 340.1779
2272 49.6951
2294 41.9715
2609 232.0565
2728 161.9465
2931 226.3971
3031 132.7305
3044 41.9704
3058 25.2681
3085 241.4850
3166 58.7604
3188 136.0477
3496 147.4152
3614 338.9980
3656 10.8546
3697 228.9376
3722 268.6054
3847 50.5406
3888 243.0118
4051 36.0870
4174 33.6122
4734 142.6130
4804 83.5643
4952 202.1310
5093 156.7120
5103 116.2029
5144 173.2288
5332 75.4638
5363 118.2224
5457 262.7470
5683 236.0130
5900 67.9791
6049 268.5934
6089 270.2138
6125 93.8870
6181 196.7151
6190 147.0777
6214 274.3677
6331 309.5981
6344 271.0527
6432 161.4257
7006 265.7098
7253 97.6197
7344 264.3011
7385 301.5739
7394 238.6848
7408 27.9312
7540 271.5942
7948 65.4640
8021 19.6371
8226 102.3768
8265 165.2863
8391 57.1169
8443 232.5057
8487 304.4519
8515 115.3329
8527 214.7427
8693 177.0609
8705 157.2247
8731 185.0566
8771 272.7961
8793 114.2181
8887 166.1866
8910 259.3603
8921 45.4353
8973 243.5964
8998 242.1766
PLANTSmolcadARTstart hb
PLANTSmolcadARTstart HB
LINES
PLANTSmolcadARTstart HBCH
LINES
PLANTSmolcadARTstart HB-CHO
LINES
PLANTSmolcadARTend
PLANTSmolcadARTstart HB_WATER
LINES
PLANTSmolcadARTend

PLANTSmolcadARTend

