@<TRIPOS>MOLECULE
aspirin_entry_00001_conf_16
20 20 1
SMALL
NO_CHARGES


@<TRIPOS>ATOM
      1 C         -12.7812  -59.1297    1.7475 C.3       1 UNL1        0.0000
      2 C         -13.5883  -58.9404    0.5156 C.2       1 UNL1        0.0000
      3 C         -14.0577  -61.3057    0.1588 C.ar      1 UNL1        0.0000
      4 C         -14.2297  -61.8050    1.4324 C.ar      1 UNL1        0.0000
      5 C         -14.1596  -63.1496    1.7389 C.ar      1 UNL1        0.0000
      6 C         -13.9058  -64.0349    0.7195 C.ar      1 UNL1        0.0000
      7 C         -13.7253  -63.5895   -0.5719 C.ar      1 UNL1        0.0000
      8 C         -13.8039  -62.2226   -0.8427 C.ar      1 UNL1        0.0000
      9 C         -13.6069  -61.7936   -2.2221 C.2       1 UNL1        0.0000
     10 O         -13.8395  -57.7944    0.0336 O.2       1 UNL1        0.0000
     11 O         -14.1186  -59.9836   -0.1897 O.3       1 UNL1        0.0000
     12 O         -13.3657  -60.5905   -2.4973 O.co2     1 UNL1       -0.5000
     13 O         -13.6794  -62.6883   -3.2766 O.co2     1 UNL1       -0.5000
     14 H         -12.4745  -58.1755    2.1222 H         1 UNL1        0.0000
     15 H         -11.9169  -59.7180    1.5203 H         1 UNL1        0.0000
     16 H         -13.3703  -59.6316    2.4859 H         1 UNL1        0.0000
     17 H         -14.4211  -61.1390    2.1968 H         1 UNL1        0.0000
     18 H         -14.2953  -63.4805    2.7075 H         1 UNL1        0.0000
     19 H         -13.8488  -65.0451    0.9227 H         1 UNL1        0.0000
     20 H         -13.5350  -64.2607   -1.3328 H         1 UNL1        0.0000
@<TRIPOS>BOND
     1    1    2 1
     2    1   14 1
     3    1   15 1
     4    1   16 1
     5    2   10 2
     6    2   11 1
     7    3    4 ar
     8    3    8 ar
     9    3   11 1
    10    4    5 ar
    11    4   17 1
    12    5    6 ar
    13    5   18 1
    14    6    7 ar
    15    6   19 1
    16    7    8 ar
    17    7   20 1
    18    8    9 1
    19    9   12 ar
    20    9   13 ar
@<TRIPOS>SUBSTRUCTURE
1 UNL1 1
@<TRIPOS>COMMENT
aspirin
PLANTSproteinTorsions
102
1 52.0431
42 99.1073
151 20.9747
173 128.4211
432 28.5154
491 2.1005
531 0.4330
563 2.1853
572 350.3005
629 41.6643
730 57.4270
826 54.2974
895 70.9413
921 189.8784
954 112.6398
1044 4.2602
1258 62.6944
1480 19.4512
1534 223.3692
1612 36.5226
1654 137.2470
1680 277.8386
1704 9.0167
1767 122.0442
1795 61.2042
1847 187.0669
1879 84.9672
1921 50.7764
1944 323.1103
1966 237.3116
1975 253.8718
2067 115.2184
2118 326.0479
2167 156.5604
2220 154.5898
2243 181.8609
2272 152.1888
2294 47.7365
2609 154.5863
2728 80.1573
2931 67.8086
3031 124.6993
3044 43.0735
3058 196.7635
3085 188.4518
3166 247.0748
3188 183.7112
3496 64.5066
3614 48.0624
3656 71.2156
3697 130.6632
3722 63.5473
3847 9.6503
3888 171.5073
4051 342.6273
4174 48.4494
4734 29.8678
4804 111.3077
4952 5.9299
5093 61.7426
5103 227.7277
5144 195.8358
5332 192.6647
5363 239.6700
5457 355.7880
5683 93.1633
5900 116.0590
6049 259.1770
6089 86.1968
6125 138.3688
6181 57.5175
6190 246.8205
6214 270.9460
6331 107.0662
6344 111.4402
6432 282.4549
7006 170.7485
7253 245.9591
7344 155.0923
7385 268.8691
7394 245.7012
7408 47.3863
7540 286.2241
7948 250.9021
8021 194.5764
8226 96.2792
8265 78.1112
8391 109.8898
8443 100.2213
8487 192.8887
8515 172.1218
8527 105.5086
8693 215.3048
8705 313.7501
8731 156.6566
8771 269.2642
8793 171.7437
8887 265.9152
8910 185.2828
8921 269.6788
8973 225.6573
8998 225.8888
PLANTSmolcadARTstart hb
PLANTSmolcadARTstart HB
LINES
-13.3657 -60.5905 -2.4973 -11.654 -59.599 -3.055 0 255 0 5
PLANTSmolcadARTstart HBCH
LINES
PLANTSmolcadARTstart HB-CHO
LINES
PLANTSmolcadARTend
PLANTSmolcadARTstart HB_WATER
LINES
PLANTSmolcadARTend

PLANTSmolcadARTend

