@<TRIPOS>MOLECULE
aspirin_entry_00001_conf_98
20 20 1
SMALL
NO_CHARGES


@<TRIPOS>ATOM
      1 C         -14.9182  -65.4176  -14.3552 C.3       1 UNL1        0.0000
      2 C         -14.5063  -65.4138  -12.9286 C.2       1 UNL1        0.0000
      3 C         -13.6382  -66.5990  -10.9834 C.ar      1 UNL1        0.0000
      4 C         -13.0297  -65.5894  -10.2682 C.ar      1 UNL1        0.0000
      5 C         -12.6612  -65.7107   -8.9429 C.ar      1 UNL1        0.0000
      6 C         -12.9160  -66.9005   -8.3051 C.ar      1 UNL1        0.0000
      7 C         -13.5215  -67.9424   -8.9730 C.ar      1 UNL1        0.0000
      8 C         -13.8798  -67.7820  -10.3123 C.ar      1 UNL1        0.0000
      9 C         -14.5182  -68.9089  -10.9818 C.2       1 UNL1        0.0000
     10 O         -14.5796  -64.3783  -12.1998 O.2       1 UNL1        0.0000
     11 O         -14.0197  -66.5226  -12.2955 O.3       1 UNL1        0.0000
     12 O         -14.5347  -70.0502  -10.4540 O.co2     1 UNL1       -0.5000
     13 O         -15.1255  -68.7677  -12.2182 O.co2     1 UNL1       -0.5000
     14 H         -15.2649  -64.4428  -14.6282 H         1 UNL1        0.0000
     15 H         -15.7051  -66.1285  -14.4970 H         1 UNL1        0.0000
     16 H         -14.0821  -65.6842  -14.9668 H         1 UNL1        0.0000
     17 H         -12.8397  -64.6962  -10.7484 H         1 UNL1        0.0000
     18 H         -12.2076  -64.9282   -8.4449 H         1 UNL1        0.0000
     19 H         -12.6504  -67.0160   -7.3145 H         1 UNL1        0.0000
     20 H         -13.7098  -68.8335   -8.4871 H         1 UNL1        0.0000
@<TRIPOS>BOND
     1    1    2 1
     2    1   14 1
     3    1   15 1
     4    1   16 1
     5    2   10 2
     6    2   11 1
     7    3    4 ar
     8    3    8 ar
     9    3   11 1
    10    4    5 ar
    11    4   17 1
    12    5    6 ar
    13    5   18 1
    14    6    7 ar
    15    6   19 1
    16    7    8 ar
    17    7   20 1
    18    8    9 1
    19    9   12 ar
    20    9   13 ar
@<TRIPOS>SUBSTRUCTURE
1 UNL1 1
@<TRIPOS>COMMENT
aspirin
PLANTSproteinTorsions
102
1 116.5911
42 189.2607
151 217.5131
173 168.6808
432 346.6808
491 282.1581
531 188.0296
563 10.8716
572 29.6765
629 145.7056
730 236.2357
826 56.5213
895 45.5556
921 214.6494
954 73.2414
1044 65.4201
1258 78.8285
1480 121.7610
1534 138.2328
1612 74.9809
1654 138.0636
1680 248.4333
1704 18.3517
1767 219.9161
1795 65.7852
1847 68.8344
1879 263.1681
1921 41.1805
1944 169.1791
1966 225.4221
1975 247.5044
2067 145.5332
2118 84.6565
2167 161.9633
2220 237.4757
2243 270.3669
2272 325.1339
2294 124.1338
2609 160.1601
2728 32.8654
2931 240.5409
3031 70.7537
3044 176.7559
3058 145.0078
3085 22.9040
3166 262.9407
3188 319.0033
3496 278.4654
3614 169.4568
3656 212.6661
3697 139.9953
3722 52.5805
3847 74.2449
3888 46.7521
4051 244.5659
4174 46.3345
4734 32.2342
4804 232.1959
4952 8.9130
5093 319.0609
5103 7.6039
5144 251.4701
5332 296.5674
5363 54.6518
5457 329.0494
5683 128.5325
5900 126.7071
6049 184.1197
6089 217.8219
6125 143.8152
6181 290.9350
6190 253.3900
6214 14.3908
6331 258.2049
6344 217.6068
6432 106.6840
7006 310.9030
7253 191.4714
7344 68.0371
7385 185.6859
7394 159.1637
7408 107.1434
7540 244.2332
7948 265.1028
8021 113.3517
8226 134.1304
8265 45.0550
8391 166.8222
8443 25.6913
8487 188.7335
8515 289.6154
8527 293.8176
8693 260.4293
8705 84.8402
8731 122.4847
8771 116.3050
8793 183.4806
8887 192.4646
8910 184.3535
8921 86.3565
8973 283.5653
8998 98.6304
PLANTSmolcadARTstart hb
PLANTSmolcadARTstart HB
LINES
PLANTSmolcadARTstart HBCH
LINES
PLANTSmolcadARTstart HB-CHO
LINES
PLANTSmolcadARTend
PLANTSmolcadARTstart HB_WATER
LINES
PLANTSmolcadARTend

PLANTSmolcadARTend

