@<TRIPOS>MOLECULE
aspirin_entry_00001_conf_87
20 20 1
SMALL
NO_CHARGES


@<TRIPOS>ATOM
      1 C          -4.8497  -59.7434    6.4026 C.3       1 UNL1        0.0000
      2 C          -5.7642  -58.7733    7.0563 C.2       1 UNL1        0.0000
      3 C          -5.7608  -59.8557    9.2405 C.ar      1 UNL1        0.0000
      4 C          -4.4742  -60.3421    9.3347 C.ar      1 UNL1        0.0000
      5 C          -4.0871  -61.2984   10.2525 C.ar      1 UNL1        0.0000
      6 C          -5.0353  -61.7892   11.1169 C.ar      1 UNL1        0.0000
      7 C          -6.3363  -61.3382   11.0657 C.ar      1 UNL1        0.0000
      8 C          -6.6895  -60.3703   10.1242 C.ar      1 UNL1        0.0000
      9 C          -8.0762  -59.9205   10.1036 C.2       1 UNL1        0.0000
     10 O          -6.2154  -57.7504    6.4573 O.2       1 UNL1        0.0000
     11 O          -6.1879  -58.9100    8.3481 O.3       1 UNL1        0.0000
     12 O          -8.3990  -58.8445    9.5384 O.co2     1 UNL1       -0.5000
     13 O          -9.0852  -60.6550   10.7036 O.co2     1 UNL1       -0.5000
     14 H          -4.6596  -59.4313    5.3969 H         1 UNL1        0.0000
     15 H          -5.3037  -60.7121    6.3955 H         1 UNL1        0.0000
     16 H          -3.9282  -59.7853    6.9443 H         1 UNL1        0.0000
     17 H          -3.7630  -59.9719    8.6853 H         1 UNL1        0.0000
     18 H          -3.1115  -61.6345   10.2887 H         1 UNL1        0.0000
     19 H          -4.7710  -62.5044   11.8124 H         1 UNL1        0.0000
     20 H          -7.0433  -61.7116   11.7186 H         1 UNL1        0.0000
@<TRIPOS>BOND
     1    1    2 1
     2    1   14 1
     3    1   15 1
     4    1   16 1
     5    2   10 2
     6    2   11 1
     7    3    4 ar
     8    3    8 ar
     9    3   11 1
    10    4    5 ar
    11    4   17 1
    12    5    6 ar
    13    5   18 1
    14    6    7 ar
    15    6   19 1
    16    7    8 ar
    17    7   20 1
    18    8    9 1
    19    9   12 ar
    20    9   13 ar
@<TRIPOS>SUBSTRUCTURE
1 UNL1 1
@<TRIPOS>COMMENT
aspirin
PLANTSproteinTorsions
102
1 186.7751
42 314.9820
151 341.1803
173 198.2392
432 291.0312
491 58.1439
531 155.3212
563 219.5505
572 177.0258
629 12.7837
730 268.8910
826 113.8772
895 45.5569
921 353.6274
954 22.1456
1044 314.4491
1258 298.0544
1480 217.4157
1534 169.9511
1612 30.2996
1654 85.1440
1680 147.6053
1704 233.4757
1767 114.7053
1795 137.3864
1847 29.7374
1879 200.4388
1921 264.0472
1944 31.5052
1966 3.6565
1975 149.7023
2067 224.9529
2118 133.2395
2167 1.7600
2220 139.5037
2243 171.6229
2272 91.6562
2294 166.5746
2609 171.3752
2728 97.9934
2931 351.4784
3031 47.3069
3044 29.1954
3058 215.3163
3085 14.7484
3166 192.5236
3188 60.1318
3496 23.4422
3614 137.2659
3656 287.3547
3697 194.5167
3722 92.0325
3847 210.0323
3888 223.8584
4051 323.4256
4174 40.1134
4734 109.6472
4804 127.8387
4952 221.4163
5093 142.3918
5103 290.6954
5144 8.3289
5332 178.2992
5363 357.8062
5457 339.8227
5683 87.2339
5900 265.0133
6049 260.6163
6089 265.4954
6125 194.9897
6181 172.0399
6190 89.5516
6214 162.0691
6331 138.0303
6344 110.1705
6432 115.4842
7006 314.8789
7253 356.8661
7344 122.0139
7385 215.6610
7394 112.6583
7408 92.7053
7540 91.7604
7948 164.7746
8021 90.7081
8226 311.1540
8265 242.5932
8391 134.4552
8443 165.1122
8487 329.8954
8515 81.0759
8527 51.3093
8693 0.7055
8705 237.9549
8731 219.8247
8771 268.8391
8793 167.7816
8887 139.8368
8910 241.2273
8921 356.5347
8973 234.6230
8998 263.0131
PLANTSmolcadARTstart hb
PLANTSmolcadARTstart HB
LINES
PLANTSmolcadARTstart HBCH
LINES
PLANTSmolcadARTstart HB-CHO
LINES
PLANTSmolcadARTend
PLANTSmolcadARTstart HB_WATER
LINES
PLANTSmolcadARTend

PLANTSmolcadARTend

