@<TRIPOS>MOLECULE
aspirin_entry_00001_conf_33
20 20 1
SMALL
NO_CHARGES


@<TRIPOS>ATOM
      1 C          -1.2466  -58.9729   -4.2048 C.3       1 UNL1        0.0000
      2 C          -0.5621  -59.2835   -5.4853 C.2       1 UNL1        0.0000
      3 C           0.7484  -61.1517   -4.6282 C.ar      1 UNL1        0.0000
      4 C           1.0052  -60.7540   -3.3333 C.ar      1 UNL1        0.0000
      5 C           1.4662  -61.6087   -2.3516 C.ar      1 UNL1        0.0000
      6 C           1.6788  -62.9244   -2.6846 C.ar      1 UNL1        0.0000
      7 C           1.4387  -63.3750   -3.9644 C.ar      1 UNL1        0.0000
      8 C           0.9727  -62.4810   -4.9295 C.ar      1 UNL1        0.0000
      9 C           0.7315  -62.9986   -6.2710 C.2       1 UNL1        0.0000
     10 O          -0.7236  -58.5859   -6.5322 O.2       1 UNL1        0.0000
     11 O           0.2915  -60.3404   -5.6312 O.3       1 UNL1        0.0000
     12 O           0.7340  -64.2356   -6.4975 O.co2     1 UNL1       -0.5000
     13 O           0.4937  -62.1533   -7.3419 O.co2     1 UNL1       -0.5000
     14 H          -1.8601  -58.1053   -4.3304 H         1 UNL1        0.0000
     15 H          -0.5157  -58.7860   -3.4462 H         1 UNL1        0.0000
     16 H          -1.8561  -59.8032   -3.9160 H         1 UNL1        0.0000
     17 H           0.8443  -59.7657   -3.0845 H         1 UNL1        0.0000
     18 H           1.6452  -61.2683   -1.3934 H         1 UNL1        0.0000
     19 H           2.0229  -63.5833   -1.9686 H         1 UNL1        0.0000
     20 H           1.6007  -64.3652   -4.2072 H         1 UNL1        0.0000
@<TRIPOS>BOND
     1    1    2 1
     2    1   14 1
     3    1   15 1
     4    1   16 1
     5    2   10 2
     6    2   11 1
     7    3    4 ar
     8    3    8 ar
     9    3   11 1
    10    4    5 ar
    11    4   17 1
    12    5    6 ar
    13    5   18 1
    14    6    7 ar
    15    6   19 1
    16    7    8 ar
    17    7   20 1
    18    8    9 1
    19    9   12 ar
    20    9   13 ar
@<TRIPOS>SUBSTRUCTURE
1 UNL1 1
@<TRIPOS>COMMENT
aspirin
PLANTSproteinTorsions
102
1 143.1604
42 169.9467
151 92.1209
173 96.9771
432 67.8195
491 65.5069
531 351.3059
563 176.5002
572 155.2154
629 38.1731
730 12.3045
826 23.2027
895 165.9608
921 61.4072
954 35.8624
1044 118.2961
1258 100.0526
1480 259.7193
1534 104.1029
1612 352.4600
1654 75.2506
1680 144.5803
1704 251.2900
1767 88.6491
1795 101.0750
1847 107.0751
1879 111.1635
1921 37.4372
1944 9.3358
1966 146.2508
1975 118.4290
2067 137.7977
2118 196.2644
2167 165.7919
2220 92.7625
2243 45.4379
2272 35.8003
2294 21.8391
2609 63.8938
2728 176.6509
2931 90.8382
3031 192.6018
3044 4.1996
3058 217.7781
3085 39.2165
3166 180.0253
3188 73.2595
3496 22.4088
3614 170.3480
3656 97.7321
3697 229.2132
3722 128.6258
3847 215.1495
3888 244.3257
4051 50.7878
4174 307.7183
4734 120.4320
4804 107.9984
4952 192.1308
5093 235.3872
5103 256.8260
5144 33.6175
5332 268.1913
5363 25.3939
5457 292.7161
5683 256.4335
5900 206.2408
6049 172.8487
6089 18.3715
6125 307.6036
6181 199.3477
6190 278.9020
6214 174.3134
6331 132.4914
6344 263.1272
6432 127.7046
7006 128.3263
7253 268.7263
7344 262.4962
7385 146.6919
7394 250.8776
7408 93.4275
7540 159.2903
7948 24.9601
8021 100.2532
8226 22.8533
8265 76.8231
8391 172.1857
8443 165.3666
8487 300.7525
8515 210.8353
8527 131.1893
8693 246.0408
8705 7.2587
8731 190.9001
8771 265.3832
8793 203.9748
8887 150.6434
8910 195.6594
8921 71.1824
8973 132.1833
8998 265.4228
PLANTSmolcadARTstart hb
PLANTSmolcadARTstart HB
LINES
PLANTSmolcadARTstart HBCH
LINES
0.733999 -64.2356 -6.49746 0.929 -66.017 -5.409 255 0 0 5
0.733999 -64.2356 -6.49746 0.83 -65.976 -7.664 255 0 0 5
PLANTSmolcadARTstart HB-CHO
LINES
PLANTSmolcadARTend
PLANTSmolcadARTstart HB_WATER
LINES
PLANTSmolcadARTend

PLANTSmolcadARTend

