@<TRIPOS>MOLECULE
aspirin_entry_00001_conf_32
20 20 1
SMALL
NO_CHARGES


@<TRIPOS>ATOM
      1 C         -13.2733  -57.6083    2.4078 C.3       1 UNL1        0.0000
      2 C         -13.8408  -57.2939    1.0722 C.2       1 UNL1        0.0000
      3 C         -14.7215  -58.0504   -1.0713 C.ar      1 UNL1        0.0000
      4 C         -15.4954  -56.9838   -1.4769 C.ar      1 UNL1        0.0000
      5 C         -15.9373  -56.8135   -2.7740 C.ar      1 UNL1        0.0000
      6 C         -15.5854  -57.7573   -3.7083 C.ar      1 UNL1        0.0000
      7 C         -14.8137  -58.8433   -3.3567 C.ar      1 UNL1        0.0000
      8 C         -14.3857  -58.9809   -2.0354 C.ar      1 UNL1        0.0000
      9 C         -13.5712  -60.1443   -1.7056 C.2       1 UNL1        0.0000
     10 O         -13.9720  -56.1055    0.6489 O.2       1 UNL1        0.0000
     11 O         -14.2622  -58.2586    0.2010 O.3       1 UNL1        0.0000
     12 O         -13.4207  -61.0831   -2.5287 O.co2     1 UNL1       -0.5000
     13 O         -12.9371  -60.2610   -0.4800 O.co2     1 UNL1       -0.5000
     14 H         -13.0149  -56.6983    2.9079 H         1 UNL1        0.0000
     15 H         -12.3976  -58.2114    2.2899 H         1 UNL1        0.0000
     16 H         -13.9982  -58.1411    2.9866 H         1 UNL1        0.0000
     17 H         -15.7582  -56.2755   -0.7742 H         1 UNL1        0.0000
     18 H         -16.5154  -55.9987   -3.0346 H         1 UNL1        0.0000
     19 H         -15.9029  -57.6525   -4.6846 H         1 UNL1        0.0000
     20 H         -14.5531  -59.5483   -4.0643 H         1 UNL1        0.0000
@<TRIPOS>BOND
     1    1    2 1
     2    1   14 1
     3    1   15 1
     4    1   16 1
     5    2   10 2
     6    2   11 1
     7    3    4 ar
     8    3    8 ar
     9    3   11 1
    10    4    5 ar
    11    4   17 1
    12    5    6 ar
    13    5   18 1
    14    6    7 ar
    15    6   19 1
    16    7    8 ar
    17    7   20 1
    18    8    9 1
    19    9   12 ar
    20    9   13 ar
@<TRIPOS>SUBSTRUCTURE
1 UNL1 1
@<TRIPOS>COMMENT
aspirin
PLANTSproteinTorsions
102
1 206.7925
42 29.8111
151 354.0742
173 166.0649
432 166.9924
491 48.9461
531 151.5849
563 103.7291
572 48.1504
629 216.2510
730 216.2751
826 139.3906
895 36.1485
921 246.9765
954 59.0892
1044 133.0861
1258 92.8487
1480 35.3492
1534 236.1668
1612 15.8850
1654 147.7858
1680 335.3483
1704 9.0619
1767 91.7666
1795 99.4001
1847 286.5352
1879 117.1469
1921 49.9709
1944 119.7143
1966 213.7299
1975 64.5322
2067 144.0255
2118 350.9549
2167 305.7444
2220 57.3585
2243 220.1744
2272 166.8237
2294 347.6746
2609 109.5467
2728 215.8620
2931 108.7725
3031 225.4242
3044 172.4435
3058 231.6912
3085 311.1526
3166 154.0840
3188 348.6601
3496 239.7417
3614 82.5776
3656 196.4523
3697 59.7474
3722 53.2079
3847 38.4764
3888 133.1121
4051 236.2002
4174 212.0641
4734 158.0648
4804 106.1046
4952 357.6954
5093 43.1842
5103 49.2740
5144 296.9257
5332 198.4513
5363 236.0392
5457 178.5862
5683 225.6381
5900 16.3965
6049 336.7450
6089 236.5470
6125 49.0879
6181 23.9384
6190 161.7135
6214 229.6936
6331 229.7756
6344 22.8901
6432 87.1283
7006 325.7895
7253 216.0354
7344 158.4979
7385 39.6955
7394 238.9293
7408 75.1377
7540 256.1467
7948 267.9221
8021 118.3199
8226 89.5713
8265 89.3525
8391 157.2324
8443 348.6344
8487 201.9730
8515 295.9081
8527 152.1085
8693 296.7484
8705 269.8632
8731 256.6002
8771 3.3765
8793 28.3855
8887 141.2814
8910 49.3407
8921 270.4517
8973 79.7953
8998 190.5090
PLANTSmolcadARTstart hb
PLANTSmolcadARTstart HB
LINES
PLANTSmolcadARTstart HBCH
LINES
PLANTSmolcadARTstart HB-CHO
LINES
PLANTSmolcadARTend
PLANTSmolcadARTstart HB_WATER
LINES
PLANTSmolcadARTend

PLANTSmolcadARTend

