@<TRIPOS>MOLECULE
aspirin_entry_00001_conf_29
20 20 1
SMALL
NO_CHARGES


@<TRIPOS>ATOM
      1 C          -3.9234  -57.8856    5.9016 C.3       1 UNL1        0.0000
      2 C          -3.6091  -59.2610    5.4387 C.2       1 UNL1        0.0000
      3 C          -3.4895  -61.6537    5.8895 C.ar      1 UNL1        0.0000
      4 C          -3.4543  -62.1966    4.6227 C.ar      1 UNL1        0.0000
      5 C          -3.0717  -63.4975    4.3623 C.ar      1 UNL1        0.0000
      6 C          -2.7066  -64.2908    5.4228 C.ar      1 UNL1        0.0000
      7 C          -2.7241  -63.7988    6.7097 C.ar      1 UNL1        0.0000
      8 C          -3.1164  -62.4782    6.9331 C.ar      1 UNL1        0.0000
      9 C          -3.1209  -61.9972    8.3095 C.2       1 UNL1        0.0000
     10 O          -3.0831  -59.4974    4.3090 O.2       1 UNL1        0.0000
     11 O          -3.8613  -60.3720    6.1931 O.3       1 UNL1        0.0000
     12 O          -2.5724  -62.6585    9.2278 O.co2     1 UNL1       -0.5000
     13 O          -3.7273  -60.8018    8.6573 O.co2     1 UNL1       -0.5000
     14 H          -3.6385  -57.1823    5.1472 H         1 UNL1        0.0000
     15 H          -3.3834  -57.6807    6.8022 H         1 UNL1        0.0000
     16 H          -4.9734  -57.8039    6.0888 H         1 UNL1        0.0000
     17 H          -3.7281  -61.5993    3.8272 H         1 UNL1        0.0000
     18 H          -3.0595  -63.8636    3.3970 H         1 UNL1        0.0000
     19 H          -2.4163  -65.2668    5.2544 H         1 UNL1        0.0000
     20 H          -2.4482  -64.4008    7.5016 H         1 UNL1        0.0000
@<TRIPOS>BOND
     1    1    2 1
     2    1   14 1
     3    1   15 1
     4    1   16 1
     5    2   10 2
     6    2   11 1
     7    3    4 ar
     8    3    8 ar
     9    3   11 1
    10    4    5 ar
    11    4   17 1
    12    5    6 ar
    13    5   18 1
    14    6    7 ar
    15    6   19 1
    16    7    8 ar
    17    7   20 1
    18    8    9 1
    19    9   12 ar
    20    9   13 ar
@<TRIPOS>SUBSTRUCTURE
1 UNL1 1
@<TRIPOS>COMMENT
aspirin
PLANTSproteinTorsions
102
1 229.3945
42 127.4108
151 91.1945
173 126.9010
432 333.9385
491 45.8834
531 211.4621
563 46.6731
572 65.0623
629 315.6958
730 49.7444
826 40.1107
895 186.5254
921 205.4094
954 91.3271
1044 253.4448
1258 101.9292
1480 200.5804
1534 28.9609
1612 38.3352
1654 54.9145
1680 165.0837
1704 333.8537
1767 292.6458
1795 112.3769
1847 112.2678
1879 68.4181
1921 59.9308
1944 346.4540
1966 127.2291
1975 257.1617
2067 130.2552
2118 198.3008
2167 95.9586
2220 226.7906
2243 300.1397
2272 255.3633
2294 44.9226
2609 343.4584
2728 167.4963
2931 339.3843
3031 192.0833
3044 228.6849
3058 286.6423
3085 69.6792
3166 23.3931
3188 71.8037
3496 114.7163
3614 157.5204
3656 54.7839
3697 157.6712
3722 120.6694
3847 39.5690
3888 234.8279
4051 65.5093
4174 340.7609
4734 106.7062
4804 166.7092
4952 155.1984
5093 142.9295
5103 204.0065
5144 106.0370
5332 274.2277
5363 356.0767
5457 12.2279
5683 216.5175
5900 250.8482
6049 59.7975
6089 3.4874
6125 22.3058
6181 27.7114
6190 292.3186
6214 155.2653
6331 135.3047
6344 293.5285
6432 177.7885
7006 260.9691
7253 244.4972
7344 180.8379
7385 79.1978
7394 308.2790
7408 251.7021
7540 182.7693
7948 163.9280
8021 121.2623
8226 261.1542
8265 59.3871
8391 56.1073
8443 112.9298
8487 263.1240
8515 226.5551
8527 207.1704
8693 248.2856
8705 307.4429
8731 253.1089
8771 272.4271
8793 252.3181
8887 146.3184
8910 204.4562
8921 152.2893
8973 138.5020
8998 208.6942
PLANTSmolcadARTstart hb
PLANTSmolcadARTstart HB
LINES
PLANTSmolcadARTstart HBCH
LINES
PLANTSmolcadARTstart HB-CHO
LINES
PLANTSmolcadARTend
PLANTSmolcadARTstart HB_WATER
LINES
PLANTSmolcadARTend

PLANTSmolcadARTend

