@<TRIPOS>MOLECULE
aspirin_entry_00001_conf_94
20 20 1
SMALL
NO_CHARGES


@<TRIPOS>ATOM
      1 C         -43.8084  -36.0110    5.0492 C.3       1 UNL1        0.0000
      2 C         -44.1517  -36.8634    6.2155 C.2       1 UNL1        0.0000
      3 C         -43.7265  -35.1596    7.9062 C.ar      1 UNL1        0.0000
      4 C         -42.7113  -34.4278    7.3277 C.ar      1 UNL1        0.0000
      5 C         -42.3257  -33.1781    7.7709 C.ar      1 UNL1        0.0000
      6 C         -42.9905  -32.6370    8.8445 C.ar      1 UNL1        0.0000
      7 C         -44.0126  -33.3259    9.4604 C.ar      1 UNL1        0.0000
      8 C         -44.3742  -34.5867    8.9834 C.ar      1 UNL1        0.0000
      9 C         -45.4606  -35.2815    9.6635 C.2       1 UNL1        0.0000
     10 O         -44.4780  -38.0834    6.0967 O.2       1 UNL1        0.0000
     11 O         -44.1412  -36.3992    7.5005 O.3       1 UNL1        0.0000
     12 O         -46.1747  -34.6907   10.5135 O.co2     1 UNL1       -0.5000
     13 O         -45.7454  -36.6115    9.4032 O.co2     1 UNL1       -0.5000
     14 H         -43.8849  -36.5883    4.1515 H         1 UNL1        0.0000
     15 H         -42.8075  -35.6481    5.1554 H         1 UNL1        0.0000
     16 H         -44.4846  -35.1836    5.0011 H         1 UNL1        0.0000
     17 H         -42.2135  -34.8352    6.5210 H         1 UNL1        0.0000
     18 H         -41.5595  -32.6642    7.3074 H         1 UNL1        0.0000
     19 H         -42.7213  -31.7042    9.1945 H         1 UNL1        0.0000
     20 H         -44.5077  -32.9128   10.2666 H         1 UNL1        0.0000
@<TRIPOS>BOND
     1    1    2 1
     2    1   14 1
     3    1   15 1
     4    1   16 1
     5    2   10 2
     6    2   11 1
     7    3    4 ar
     8    3    8 ar
     9    3   11 1
    10    4    5 ar
    11    4   17 1
    12    5    6 ar
    13    5   18 1
    14    6    7 ar
    15    6   19 1
    16    7    8 ar
    17    7   20 1
    18    8    9 1
    19    9   12 ar
    20    9   13 ar
@<TRIPOS>SUBSTRUCTURE
1 UNL1 1
@<TRIPOS>COMMENT
aspirin
PLANTSproteinTorsions
102
1 214.5196
42 34.9260
151 159.8654
173 171.6040
432 123.4989
491 218.0027
531 182.5968
563 123.8852
572 210.6351
629 355.2491
730 134.4944
826 355.1433
895 18.0911
921 249.4173
954 45.7161
1044 24.1805
1258 34.6897
1480 6.9261
1534 350.6038
1612 43.6057
1654 193.6974
1680 213.5868
1704 115.3405
1767 67.8865
1795 29.2050
1847 269.4017
1879 212.8344
1921 110.0418
1944 43.9510
1966 258.8013
1975 156.4437
2067 245.8886
2118 128.9127
2167 32.2537
2220 176.4097
2243 220.6819
2272 141.7689
2294 132.0407
2609 201.5749
2728 165.2437
2931 187.5012
3031 218.7532
3044 242.9128
3058 153.1896
3085 183.7202
3166 28.7832
3188 281.5547
3496 190.8151
3614 128.4659
3656 96.1263
3697 164.5826
3722 355.2393
3847 266.7815
3888 249.8252
4051 40.8460
4174 275.3510
4734 235.2070
4804 164.0820
4952 244.1562
5093 188.8864
5103 72.4792
5144 90.7264
5332 261.5889
5363 258.7748
5457 264.4331
5683 316.1650
5900 131.1320
6049 212.5190
6089 280.8340
6125 139.8819
6181 205.7770
6190 250.9818
6214 96.7731
6331 199.6040
6344 34.1063
6432 240.5307
7006 260.3397
7253 127.4366
7344 300.8127
7385 146.7801
7394 192.5114
7408 322.4753
7540 263.2530
7948 69.9933
8021 265.8575
8226 11.3270
8265 69.4899
8391 274.2552
8443 166.1216
8487 241.6947
8515 181.6046
8527 30.7369
8693 167.8827
8705 127.9776
8731 98.4514
8771 272.5732
8793 271.0869
8887 200.3595
8910 260.7185
8921 171.4083
8973 31.0719
8998 287.9519
PLANTSmolcadARTstart hb
PLANTSmolcadARTstart HB
LINES
PLANTSmolcadARTstart HBCH
LINES
-46.1747 -34.6907 10.5135 -45.579 -34.804 12.524 255 0 0 5
PLANTSmolcadARTstart HB-CHO
LINES
PLANTSmolcadARTend
PLANTSmolcadARTstart HB_WATER
LINES
PLANTSmolcadARTend

PLANTSmolcadARTend

