@<TRIPOS>MOLECULE
aspirin_entry_00001_conf_08
20 20 1
SMALL
NO_CHARGES


@<TRIPOS>ATOM
      1 C         -31.5968  -63.6504    0.2600 C.3       1 UNL1        0.0000
      2 C         -32.3372  -63.5231    1.5407 C.2       1 UNL1        0.0000
      3 C         -32.3276  -62.9483    3.9096 C.ar      1 UNL1        0.0000
      4 C         -33.6690  -62.9115    4.2261 C.ar      1 UNL1        0.0000
      5 C         -34.1471  -62.9510    5.5209 C.ar      1 UNL1        0.0000
      6 C         -33.2365  -63.0320    6.5464 C.ar      1 UNL1        0.0000
      7 C         -31.8840  -63.0713    6.2862 C.ar      1 UNL1        0.0000
      8 C         -31.4389  -63.0297    4.9640 C.ar      1 UNL1        0.0000
      9 C         -30.0001  -63.0735    4.7326 C.2       1 UNL1        0.0000
     10 O         -33.5117  -63.9756    1.6979 O.2       1 UNL1        0.0000
     11 O         -31.8102  -62.9116    2.6431 O.3       1 UNL1        0.0000
     12 O         -29.2033  -63.3557    5.6637 O.co2     1 UNL1       -0.5000
     13 O         -29.4581  -62.8057    3.4868 O.co2     1 UNL1       -0.5000
     14 H         -32.2065  -64.1633   -0.4543 H         1 UNL1        0.0000
     15 H         -30.6959  -64.2042    0.4227 H         1 UNL1        0.0000
     16 H         -31.3548  -62.6764   -0.1101 H         1 UNL1        0.0000
     17 H         -34.3517  -62.8514    3.4548 H         1 UNL1        0.0000
     18 H         -35.1611  -62.9214    5.7130 H         1 UNL1        0.0000
     19 H         -33.5686  -63.0632    7.5231 H         1 UNL1        0.0000
     20 H         -31.2057  -63.1324    7.0620 H         1 UNL1        0.0000
@<TRIPOS>BOND
     1    1    2 1
     2    1   14 1
     3    1   15 1
     4    1   16 1
     5    2   10 2
     6    2   11 1
     7    3    4 ar
     8    3    8 ar
     9    3   11 1
    10    4    5 ar
    11    4   17 1
    12    5    6 ar
    13    5   18 1
    14    6    7 ar
    15    6   19 1
    16    7    8 ar
    17    7   20 1
    18    8    9 1
    19    9   12 ar
    20    9   13 ar
@<TRIPOS>SUBSTRUCTURE
1 UNL1 1
@<TRIPOS>COMMENT
aspirin
PLANTSproteinTorsions
102
1 233.6973
42 173.2773
151 84.9887
173 129.4391
432 102.7350
491 144.0323
531 229.0096
563 312.3190
572 23.8964
629 45.7262
730 38.6111
826 152.8196
895 61.5686
921 76.2957
954 81.3902
1044 132.8554
1258 37.2996
1480 138.4401
1534 57.1525
1612 22.0298
1654 19.3659
1680 224.7229
1704 311.6880
1767 51.2046
1795 102.0396
1847 135.8234
1879 96.9369
1921 69.9944
1944 15.5944
1966 234.6157
1975 289.1179
2067 64.3243
2118 205.7634
2167 99.9870
2220 302.1372
2243 60.8581
2272 255.6562
2294 49.8937
2609 87.6389
2728 209.6518
2931 137.5051
3031 41.1202
3044 239.0650
3058 308.8088
3085 129.4861
3166 263.7440
3188 188.0057
3496 127.9605
3614 149.0987
3656 60.9719
3697 82.1776
3722 172.6543
3847 76.5612
3888 210.7358
4051 28.2510
4174 193.8265
4734 104.3118
4804 159.9431
4952 183.2040
5093 204.8275
5103 227.1354
5144 98.1090
5332 354.0671
5363 4.2764
5457 346.6938
5683 15.7146
5900 249.4348
6049 61.3016
6089 5.9281
6125 344.0822
6181 31.7358
6190 235.9965
6214 126.6362
6331 47.5166
6344 246.9651
6432 179.8554
7006 219.4902
7253 256.6636
7344 238.4594
7385 78.4279
7394 264.8927
7408 279.0242
7540 242.4346
7948 58.2731
8021 142.9138
8226 262.5754
8265 170.4774
8391 221.4626
8443 108.7713
8487 158.6434
8515 225.8429
8527 228.1982
8693 41.5338
8705 243.0224
8731 175.7113
8771 227.7862
8793 262.2304
8887 143.5815
8910 61.2475
8921 155.8167
8973 143.7169
8998 82.7381
PLANTSmolcadARTstart hb
PLANTSmolcadARTstart HB
LINES
PLANTSmolcadARTstart HBCH
LINES
PLANTSmolcadARTstart HB-CHO
LINES
PLANTSmolcadARTend
PLANTSmolcadARTstart HB_WATER
LINES
PLANTSmolcadARTend

PLANTSmolcadARTend

