@<TRIPOS>MOLECULE
aspirin_entry_00001_conf_56
20 20 1
SMALL
NO_CHARGES


@<TRIPOS>ATOM
      1 C         -14.5258  -60.3294   -4.0789 C.3       1 UNL1        0.0000
      2 C         -14.3938  -61.6377   -4.7686 C.2       1 UNL1        0.0000
      3 C         -13.7637  -62.9023   -2.7822 C.ar      1 UNL1        0.0000
      4 C         -13.5930  -61.8498   -1.9081 C.ar      1 UNL1        0.0000
      5 C         -13.3057  -62.0126   -0.5673 C.ar      1 UNL1        0.0000
      6 C         -13.1847  -63.2916   -0.0805 C.ar      1 UNL1        0.0000
      7 C         -13.3451  -64.3795   -0.9107 C.ar      1 UNL1        0.0000
      8 C         -13.6353  -64.1748   -2.2604 C.ar      1 UNL1        0.0000
      9 C         -13.7972  -65.3528   -3.1040 C.2       1 UNL1        0.0000
     10 O         -14.5920  -61.7758   -6.0138 O.2       1 UNL1        0.0000
     11 O         -14.0489  -62.7874   -4.1158 O.3       1 UNL1        0.0000
     12 O         -13.8837  -66.5021   -2.6008 O.co2     1 UNL1       -0.5000
     13 O         -13.8596  -65.2530   -4.4838 O.co2     1 UNL1       -0.5000
     14 H         -14.8018  -59.5786   -4.7896 H         1 UNL1        0.0000
     15 H         -13.5911  -60.0679   -3.6289 H         1 UNL1        0.0000
     16 H         -15.2787  -60.3998   -3.3223 H         1 UNL1        0.0000
     17 H         -13.6849  -60.8899   -2.2750 H         1 UNL1        0.0000
     18 H         -13.1860  -61.1955    0.0525 H         1 UNL1        0.0000
     19 H         -12.9706  -63.4398    0.9182 H         1 UNL1        0.0000
     20 H         -13.2528  -65.3377   -0.5377 H         1 UNL1        0.0000
@<TRIPOS>BOND
     1    1    2 1
     2    1   14 1
     3    1   15 1
     4    1   16 1
     5    2   10 2
     6    2   11 1
     7    3    4 ar
     8    3    8 ar
     9    3   11 1
    10    4    5 ar
    11    4   17 1
    12    5    6 ar
    13    5   18 1
    14    6    7 ar
    15    6   19 1
    16    7    8 ar
    17    7   20 1
    18    8    9 1
    19    9   12 ar
    20    9   13 ar
@<TRIPOS>SUBSTRUCTURE
1 UNL1 1
@<TRIPOS>COMMENT
aspirin
PLANTSproteinTorsions
102
1 198.8286
42 163.8383
151 65.5593
173 155.2744
432 88.5274
491 20.5475
531 122.5905
563 88.3746
572 63.4950
629 105.6954
730 28.4678
826 20.8689
895 66.1001
921 162.1902
954 49.6357
1044 171.9913
1258 40.8841
1480 234.1827
1534 150.7231
1612 25.0292
1654 30.6681
1680 164.0866
1704 263.2460
1767 264.4732
1795 1.0133
1847 57.0160
1879 129.0331
1921 80.8022
1944 0.8219
1966 129.6256
1975 38.7194
2067 97.0644
2118 179.7385
2167 83.1408
2220 120.8624
2243 316.1337
2272 275.9619
2294 24.2348
2609 128.0285
2728 162.1552
2931 215.3245
3031 50.7073
3044 191.9973
3058 215.2026
3085 38.5999
3166 206.0482
3188 255.0934
3496 139.8130
3614 160.2397
3656 98.1269
3697 202.0277
3722 121.2356
3847 209.3924
3888 284.5147
4051 61.5142
4174 316.2970
4734 89.6209
4804 129.2792
4952 185.9362
5093 235.2725
5103 245.7666
5144 325.8694
5332 81.4605
5363 32.6081
5457 146.2914
5683 225.4374
5900 211.5092
6049 69.9080
6089 263.3662
6125 39.7766
6181 158.1476
6190 292.0491
6214 129.1913
6331 122.0089
6344 151.5521
6432 171.9722
7006 143.3510
7253 108.4756
7344 25.0184
7385 273.0701
7394 313.3278
7408 81.6586
7540 203.4638
7948 49.5941
8021 102.3110
8226 225.3382
8265 241.8067
8391 77.6396
8443 101.6242
8487 355.8485
8515 184.5293
8527 103.9404
8693 226.3778
8705 5.6957
8731 170.8750
8771 272.5869
8793 232.4485
8887 84.7288
8910 209.9325
8921 330.7432
8973 272.4055
8998 219.5968
PLANTSmolcadARTstart hb
PLANTSmolcadARTstart HB
LINES
PLANTSmolcadARTstart HBCH
LINES
PLANTSmolcadARTstart HB-CHO
LINES
PLANTSmolcadARTend
PLANTSmolcadARTstart HB_WATER
LINES
PLANTSmolcadARTend

PLANTSmolcadARTend

