@<TRIPOS>MOLECULE
aspirin_entry_00001_conf_17
20 20 1
SMALL
NO_CHARGES


@<TRIPOS>ATOM
      1 C         -40.2427  -53.1034    7.3079 C.3       1 UNL1        0.0000
      2 C         -41.3776  -53.0344    8.2630 C.2       1 UNL1        0.0000
      3 C         -42.2785  -55.2375    7.7363 C.ar      1 UNL1        0.0000
      4 C         -41.6470  -55.4679    6.5325 C.ar      1 UNL1        0.0000
      5 C         -41.6741  -56.6840    5.8791 C.ar      1 UNL1        0.0000
      6 C         -42.3667  -57.7178    6.4613 C.ar      1 UNL1        0.0000
      7 C         -43.0163  -57.5418    7.6636 C.ar      1 UNL1        0.0000
      8 C         -42.9659  -56.2978    8.2942 C.ar      1 UNL1        0.0000
      9 C         -43.6666  -56.1541    9.5646 C.2       1 UNL1        0.0000
     10 O         -41.5885  -52.0243    9.0005 O.2       1 UNL1        0.0000
     11 O         -42.2778  -54.0506    8.4179 O.3       1 UNL1        0.0000
     12 O         -44.1306  -57.1572   10.1646 O.co2     1 UNL1       -0.5000
     13 O         -43.8492  -54.9151   10.1553 O.co2     1 UNL1       -0.5000
     14 H         -39.6774  -52.1964    7.3607 H         1 UNL1        0.0000
     15 H         -40.6199  -53.2311    6.3150 H         1 UNL1        0.0000
     16 H         -39.6145  -53.9317    7.5602 H         1 UNL1        0.0000
     17 H         -41.1266  -54.6907    6.0969 H         1 UNL1        0.0000
     18 H         -41.1864  -56.8130    4.9782 H         1 UNL1        0.0000
     19 H         -42.4018  -58.6368    5.9928 H         1 UNL1        0.0000
     20 H         -43.5347  -58.3234    8.0950 H         1 UNL1        0.0000
@<TRIPOS>BOND
     1    1    2 1
     2    1   14 1
     3    1   15 1
     4    1   16 1
     5    2   10 2
     6    2   11 1
     7    3    4 ar
     8    3    8 ar
     9    3   11 1
    10    4    5 ar
    11    4   17 1
    12    5    6 ar
    13    5   18 1
    14    6    7 ar
    15    6   19 1
    16    7    8 ar
    17    7   20 1
    18    8    9 1
    19    9   12 ar
    20    9   13 ar
@<TRIPOS>SUBSTRUCTURE
1 UNL1 1
@<TRIPOS>COMMENT
aspirin
PLANTSproteinTorsions
102
1 199.7239
42 110.9642
151 183.7307
173 136.5309
432 96.8255
491 56.2826
531 26.3147
563 79.7410
572 107.2500
629 17.2479
730 1.7430
826 24.9901
895 142.4248
921 62.3938
954 35.8162
1044 121.1066
1258 192.4937
1480 242.6920
1534 345.0785
1612 57.7517
1654 158.0920
1680 97.7247
1704 285.4081
1767 91.4303
1795 24.6745
1847 83.3736
1879 145.9815
1921 135.5844
1944 25.9344
1966 273.4833
1975 172.2279
2067 255.6667
2118 21.5292
2167 47.5932
2220 273.1522
2243 223.7502
2272 151.3347
2294 127.7893
2609 199.4566
2728 178.5501
2931 186.0126
3031 271.2148
3044 265.2971
3058 143.9936
3085 179.0106
3166 18.7976
3188 340.2468
3496 349.8077
3614 97.5340
3656 116.0693
3697 47.3735
3722 352.3122
3847 45.1379
3888 103.3944
4051 91.8584
4174 305.4772
4734 62.7664
4804 158.8261
4952 240.3900
5093 111.0723
5103 56.7364
5144 69.1610
5332 259.9756
5363 348.8291
5457 253.3829
5683 239.7927
5900 124.3332
6049 340.7747
6089 80.5320
6125 147.5022
6181 64.9776
6190 228.3546
6214 206.7932
6331 98.2946
6344 265.8007
6432 242.3732
7006 259.9451
7253 122.3377
7344 284.0709
7385 149.2498
7394 242.1988
7408 311.1491
7540 223.4450
7948 59.3578
8021 25.6874
8226 37.3430
8265 26.0979
8391 260.9645
8443 190.4589
8487 191.9628
8515 150.5631
8527 89.7750
8693 241.5773
8705 136.2489
8731 211.1785
8771 263.7018
8793 290.7584
8887 182.2427
8910 118.5367
8921 176.3134
8973 167.3772
8998 312.9349
PLANTSmolcadARTstart hb
PLANTSmolcadARTstart HB
LINES
-44.1306 -57.1572 10.1646 -42.471 -57.987 11.235 0 255 0 5
PLANTSmolcadARTstart HBCH
LINES
PLANTSmolcadARTstart HB-CHO
LINES
PLANTSmolcadARTend
PLANTSmolcadARTstart HB_WATER
LINES
PLANTSmolcadARTend

PLANTSmolcadARTend

