@<TRIPOS>MOLECULE
aspirin_entry_00001_conf_79
20 20 1
SMALL
NO_CHARGES


@<TRIPOS>ATOM
      1 C         -38.0049  -67.2605   20.8326 C.3       1 UNL1        0.0000
      2 C         -38.7715  -67.4167   19.5706 C.2       1 UNL1        0.0000
      3 C         -40.9263  -66.7670   20.5071 C.ar      1 UNL1        0.0000
      4 C         -40.5844  -65.8865   21.5114 C.ar      1 UNL1        0.0000
      5 C         -41.4426  -65.5234   22.5304 C.ar      1 UNL1        0.0000
      6 C         -42.7034  -66.0689   22.5418 C.ar      1 UNL1        0.0000
      7 C         -43.0968  -66.9546   21.5625 C.ar      1 UNL1        0.0000
      8 C         -42.2012  -67.2972   20.5483 C.ar      1 UNL1        0.0000
      9 C         -42.6574  -68.2375   19.5318 C.2       1 UNL1        0.0000
     10 O         -38.2344  -67.8061   18.4896 O.2       1 UNL1        0.0000
     11 O         -40.1093  -67.1543   19.4796 O.3       1 UNL1        0.0000
     12 O         -42.0325  -68.3731   18.4489 O.co2     1 UNL1       -0.5000
     13 O         -43.7905  -69.0117   19.7171 O.co2     1 UNL1       -0.5000
     14 H         -36.9817  -67.5229   20.6624 H         1 UNL1        0.0000
     15 H         -38.4177  -67.9028   21.5821 H         1 UNL1        0.0000
     16 H         -38.0636  -66.2444   21.1618 H         1 UNL1        0.0000
     17 H         -39.6374  -65.4771   21.5009 H         1 UNL1        0.0000
     18 H         -41.1451  -64.8594   23.2630 H         1 UNL1        0.0000
     19 H         -43.3636  -65.8133   23.2928 H         1 UNL1        0.0000
     20 H         -44.0459  -67.3604   21.5776 H         1 UNL1        0.0000
@<TRIPOS>BOND
     1    1    2 1
     2    1   14 1
     3    1   15 1
     4    1   16 1
     5    2   10 2
     6    2   11 1
     7    3    4 ar
     8    3    8 ar
     9    3   11 1
    10    4    5 ar
    11    4   17 1
    12    5    6 ar
    13    5   18 1
    14    6    7 ar
    15    6   19 1
    16    7    8 ar
    17    7   20 1
    18    8    9 1
    19    9   12 ar
    20    9   13 ar
@<TRIPOS>SUBSTRUCTURE
1 UNL1 1
@<TRIPOS>COMMENT
aspirin
PLANTSproteinTorsions
102
1 24.3678
42 193.6799
151 198.2477
173 61.1353
432 70.9425
491 347.4654
531 89.7544
563 87.7131
572 216.5385
629 63.4190
730 126.8851
826 9.1995
895 110.7044
921 253.8877
954 193.8773
1044 280.7758
1258 134.7112
1480 156.3503
1534 188.4120
1612 352.3611
1654 163.7292
1680 78.7429
1704 188.5835
1767 143.1110
1795 348.9101
1847 115.0533
1879 344.2371
1921 151.4790
1944 13.9424
1966 141.7398
1975 136.6254
2067 215.1328
2118 161.5032
2167 224.2763
2220 310.3944
2243 41.7791
2272 73.4098
2294 221.2805
2609 193.9356
2728 60.9870
2931 56.6597
3031 149.6216
3044 302.9488
3058 127.3016
3085 220.3619
3166 284.3667
3188 170.2430
3496 99.5297
3614 71.2355
3656 181.0621
3697 222.8770
3722 247.8394
3847 220.3325
3888 94.5241
4051 164.1350
4174 57.4448
4734 187.3219
4804 299.5102
4952 193.2666
5093 198.9460
5103 147.6487
5144 205.6822
5332 262.4137
5363 270.9669
5457 253.4837
5683 123.5326
5900 83.5570
6049 142.0058
6089 135.4293
6125 257.6003
6181 227.7766
6190 225.0394
6214 39.4050
6331 229.8501
6344 259.3196
6432 168.1356
7006 73.3923
7253 282.6604
7344 65.0940
7385 190.5097
7394 49.0893
7408 204.2840
7540 122.4332
7948 203.6855
8021 21.3431
8226 150.6253
8265 162.1366
8391 144.5041
8443 191.7612
8487 46.5536
8515 268.7331
8527 246.3123
8693 143.4489
8705 213.2917
8731 48.6426
8771 246.9090
8793 98.4621
8887 129.8315
8910 115.3406
8921 266.1957
8973 49.4004
8998 225.0154
PLANTSmolcadARTstart hb
PLANTSmolcadARTstart HB
LINES
PLANTSmolcadARTstart HBCH
LINES
PLANTSmolcadARTstart HB-CHO
LINES
PLANTSmolcadARTend
PLANTSmolcadARTstart HB_WATER
LINES
PLANTSmolcadARTend

PLANTSmolcadARTend

