@<TRIPOS>MOLECULE
aspirin_entry_00001_conf_88
20 20 1
SMALL
NO_CHARGES


@<TRIPOS>ATOM
      1 C         -12.6150  -62.0828   -8.7251 C.3       1 UNL1        0.0000
      2 C         -13.7170  -62.4038   -7.7831 C.2       1 UNL1        0.0000
      3 C         -12.7957  -64.5348   -7.0400 C.ar      1 UNL1        0.0000
      4 C         -12.1492  -65.0003   -8.1654 C.ar      1 UNL1        0.0000
      5 C         -11.2098  -66.0119   -8.1400 C.ar      1 UNL1        0.0000
      6 C         -10.9040  -66.5829   -6.9285 C.ar      1 UNL1        0.0000
      7 C         -11.5208  -66.1561   -5.7727 C.ar      1 UNL1        0.0000
      8 C         -12.4651  -65.1305   -5.8384 C.ar      1 UNL1        0.0000
      9 C         -13.0941  -64.7089   -4.5925 C.2       1 UNL1        0.0000
     10 O         -14.7221  -61.6464   -7.6250 O.2       1 UNL1        0.0000
     11 O         -13.7315  -63.5364   -7.0189 O.3       1 UNL1        0.0000
     12 O         -12.9184  -65.3551   -3.5280 O.co2     1 UNL1       -0.5000
     13 O         -13.9061  -63.5887   -4.5335 O.co2     1 UNL1       -0.5000
     14 H         -12.8214  -61.1517   -9.2103 H         1 UNL1        0.0000
     15 H         -12.5364  -62.8575   -9.4587 H         1 UNL1        0.0000
     16 H         -11.6948  -62.0083   -8.1848 H         1 UNL1        0.0000
     17 H         -12.3794  -64.5699   -9.0744 H         1 UNL1        0.0000
     18 H         -10.7491  -66.3297   -9.0077 H         1 UNL1        0.0000
     19 H         -10.2048  -67.3407   -6.8830 H         1 UNL1        0.0000
     20 H         -11.2858  -66.5899   -4.8659 H         1 UNL1        0.0000
@<TRIPOS>BOND
     1    1    2 1
     2    1   14 1
     3    1   15 1
     4    1   16 1
     5    2   10 2
     6    2   11 1
     7    3    4 ar
     8    3    8 ar
     9    3   11 1
    10    4    5 ar
    11    4   17 1
    12    5    6 ar
    13    5   18 1
    14    6    7 ar
    15    6   19 1
    16    7    8 ar
    17    7   20 1
    18    8    9 1
    19    9   12 ar
    20    9   13 ar
@<TRIPOS>SUBSTRUCTURE
1 UNL1 1
@<TRIPOS>COMMENT
aspirin
PLANTSproteinTorsions
102
1 177.3858
42 81.1583
151 34.4757
173 34.8522
432 107.2668
491 33.3457
531 310.5191
563 87.9528
572 78.8455
629 45.1426
730 319.0673
826 163.4432
895 56.7936
921 82.6820
954 50.0075
1044 150.8419
1258 29.8573
1480 166.5611
1534 10.0271
1612 9.0535
1654 15.2539
1680 245.7629
1704 261.9214
1767 283.3898
1795 62.9294
1847 112.0684
1879 43.8215
1921 58.0482
1944 25.5866
1966 240.1519
1975 155.4244
2067 33.2384
2118 226.2058
2167 10.4628
2220 231.0655
2243 57.2127
2272 92.8037
2294 66.7225
2609 31.1234
2728 167.7060
2931 120.5855
3031 93.2339
3044 272.5388
3058 216.8598
3085 18.8148
3166 282.3123
3188 50.6799
3496 229.4527
3614 144.8335
3656 71.4291
3697 165.6611
3722 200.9907
3847 102.1466
3888 87.3440
4051 166.3632
4174 207.8970
4734 177.4880
4804 284.4247
4952 187.0856
5093 276.7036
5103 222.0753
5144 334.9398
5332 97.0753
5363 12.6707
5457 249.7560
5683 252.9775
5900 303.4133
6049 74.4746
6089 267.6252
6125 69.8525
6181 154.0959
6190 305.2488
6214 161.1428
6331 132.7377
6344 150.7961
6432 185.7567
7006 146.1905
7253 65.6706
7344 29.4013
7385 79.1623
7394 269.7541
7408 119.1486
7540 198.4910
7948 157.6763
8021 43.4786
8226 53.9868
8265 221.7420
8391 179.5825
8443 123.8176
8487 180.7794
8515 85.9591
8527 122.4854
8693 255.8739
8705 355.2653
8731 41.6040
8771 197.0058
8793 287.0260
8887 149.9022
8910 200.8456
8921 299.7689
8973 107.4626
8998 241.9162
PLANTSmolcadARTstart hb
PLANTSmolcadARTstart HB
LINES
PLANTSmolcadARTstart HBCH
LINES
PLANTSmolcadARTstart HB-CHO
LINES
PLANTSmolcadARTend
PLANTSmolcadARTstart HB_WATER
LINES
PLANTSmolcadARTend

PLANTSmolcadARTend

