@<TRIPOS>MOLECULE
aspirin_entry_00001_conf_13
20 20 1
SMALL
NO_CHARGES


@<TRIPOS>ATOM
      1 C         -12.3169  -60.1885    0.7459 C.3       1 UNL1        0.0000
      2 C         -12.7764  -58.7896    0.5541 C.2       1 UNL1        0.0000
      3 C         -14.3879  -57.2094   -0.3670 C.ar      1 UNL1        0.0000
      4 C         -14.3354  -56.1805    0.5492 C.ar      1 UNL1        0.0000
      5 C         -14.8558  -54.9235    0.3130 C.ar      1 UNL1        0.0000
      6 C         -15.4564  -54.6875   -0.8998 C.ar      1 UNL1        0.0000
      7 C         -15.5366  -55.6808   -1.8514 C.ar      1 UNL1        0.0000
      8 C         -14.9986  -56.9388   -1.5761 C.ar      1 UNL1        0.0000
      9 C         -15.1046  -57.9612   -2.6100 C.2       1 UNL1        0.0000
     10 O         -12.1674  -57.7964    1.0554 O.2       1 UNL1        0.0000
     11 O         -13.8861  -58.4683   -0.1755 O.3       1 UNL1        0.0000
     12 O         -15.8350  -57.7878   -3.6189 O.co2     1 UNL1       -0.5000
     13 O         -14.4111  -59.1565   -2.5209 O.co2     1 UNL1       -0.5000
     14 H         -11.4325  -60.1932    1.3482 H         1 UNL1        0.0000
     15 H         -12.1022  -60.6268   -0.2062 H         1 UNL1        0.0000
     16 H         -13.0845  -60.7521    1.2331 H         1 UNL1        0.0000
     17 H         -13.8833  -56.3590    1.4593 H         1 UNL1        0.0000
     18 H         -14.7943  -54.1811    1.0279 H         1 UNL1        0.0000
     19 H         -15.8529  -53.7561   -1.1008 H         1 UNL1        0.0000
     20 H         -15.9894  -55.4960   -2.7606 H         1 UNL1        0.0000
@<TRIPOS>BOND
     1    1    2 1
     2    1   14 1
     3    1   15 1
     4    1   16 1
     5    2   10 2
     6    2   11 1
     7    3    4 ar
     8    3    8 ar
     9    3   11 1
    10    4    5 ar
    11    4   17 1
    12    5    6 ar
    13    5   18 1
    14    6    7 ar
    15    6   19 1
    16    7    8 ar
    17    7   20 1
    18    8    9 1
    19    9   12 ar
    20    9   13 ar
@<TRIPOS>SUBSTRUCTURE
1 UNL1 1
@<TRIPOS>COMMENT
aspirin
PLANTSproteinTorsions
102
1 208.0399
42 94.7083
151 351.1786
173 142.8884
432 164.3926
491 16.6943
531 16.5222
563 117.9258
572 212.8116
629 92.5764
730 213.9516
826 53.5498
895 110.7068
921 233.6157
954 197.5003
1044 73.4140
1258 72.2232
1480 47.6813
1534 312.2941
1612 66.1549
1654 346.7727
1680 265.6235
1704 56.0556
1767 119.0224
1795 168.8330
1847 206.8179
1879 287.1837
1921 45.2368
1944 96.7832
1966 115.5823
1975 38.6423
2067 155.4113
2118 68.4672
2167 354.0131
2220 222.8134
2243 170.3273
2272 328.6014
2294 20.6469
2609 114.8759
2728 99.8368
2931 79.6850
3031 30.8986
3044 171.6124
3058 230.9594
3085 22.7767
3166 15.3384
3188 342.9426
3496 5.7522
3614 54.9876
3656 44.0124
3697 161.0681
3722 252.6098
3847 89.8932
3888 117.1259
4051 99.8887
4174 66.0947
4734 188.5750
4804 179.6259
4952 11.5171
5093 283.6720
5103 19.6653
5144 34.4306
5332 240.5620
5363 272.8351
5457 179.1181
5683 223.3563
5900 323.4698
6049 185.9203
6089 58.7758
6125 195.6553
6181 95.4680
6190 285.5641
6214 16.7884
6331 298.4132
6344 29.6496
6432 77.4438
7006 77.8583
7253 212.0909
7344 174.6990
7385 201.2699
7394 294.8105
7408 61.0838
7540 199.2060
7948 259.2782
8021 116.3401
8226 86.4073
8265 216.9155
8391 272.9254
8443 68.7421
8487 127.5451
8515 269.3047
8527 104.5772
8693 222.7485
8705 268.5466
8731 104.8860
8771 126.3230
8793 169.5154
8887 203.1710
8910 104.2961
8921 6.8275
8973 172.8592
8998 166.9904
PLANTSmolcadARTstart hb
PLANTSmolcadARTstart HB
LINES
-15.835 -57.7878 -3.61891 -16.6204 -58.2499 -5.11375 0 255 0 5
PLANTSmolcadARTstart HBCH
LINES
PLANTSmolcadARTstart HB-CHO
LINES
PLANTSmolcadARTend
PLANTSmolcadARTstart HB_WATER
LINES
PLANTSmolcadARTend

PLANTSmolcadARTend

