@<TRIPOS>MOLECULE
aspirin_entry_00001_conf_83
20 20 1
SMALL
NO_CHARGES


@<TRIPOS>ATOM
      1 C         -43.2927  -58.0019    7.2990 C.3       1 UNL1        0.0000
      2 C         -43.5695  -57.3331    8.5955 C.2       1 UNL1        0.0000
      3 C         -42.1162  -55.4160    8.2019 C.ar      1 UNL1        0.0000
      4 C         -41.2904  -55.9362    7.2281 C.ar      1 UNL1        0.0000
      5 C         -40.3925  -55.1758    6.5054 C.ar      1 UNL1        0.0000
      6 C         -40.3204  -53.8300    6.7719 C.ar      1 UNL1        0.0000
      7 C         -41.1226  -53.2585    7.7354 C.ar      1 UNL1        0.0000
      8 C         -42.0184  -54.0598    8.4449 C.ar      1 UNL1        0.0000
      9 C         -42.8486  -53.4155    9.4555 C.2       1 UNL1        0.0000
     10 O         -44.3370  -57.8347    9.4720 O.2       1 UNL1        0.0000
     11 O         -43.0192  -56.1312    8.9411 O.3       1 UNL1        0.0000
     12 O         -42.9292  -52.1624    9.5239 O.co2     1 UNL1       -0.5000
     13 O         -43.5747  -54.1537   10.3750 O.co2     1 UNL1       -0.5000
     14 H         -43.8305  -58.9258    7.2531 H         1 UNL1        0.0000
     15 H         -42.2439  -58.1954    7.2147 H         1 UNL1        0.0000
     16 H         -43.6039  -57.3665    6.4967 H         1 UNL1        0.0000
     17 H         -41.3463  -56.9470    7.0286 H         1 UNL1        0.0000
     18 H         -39.7926  -55.6067    5.7840 H         1 UNL1        0.0000
     19 H         -39.6575  -53.2399    6.2451 H         1 UNL1        0.0000
     20 H         -41.0629  -52.2464    7.9300 H         1 UNL1        0.0000
@<TRIPOS>BOND
     1    1    2 1
     2    1   14 1
     3    1   15 1
     4    1   16 1
     5    2   10 2
     6    2   11 1
     7    3    4 ar
     8    3    8 ar
     9    3   11 1
    10    4    5 ar
    11    4   17 1
    12    5    6 ar
    13    5   18 1
    14    6    7 ar
    15    6   19 1
    16    7    8 ar
    17    7   20 1
    18    8    9 1
    19    9   12 ar
    20    9   13 ar
@<TRIPOS>SUBSTRUCTURE
1 UNL1 1
@<TRIPOS>COMMENT
aspirin
PLANTSproteinTorsions
102
1 198.2101
42 7.2388
151 33.8504
173 183.9883
432 157.0986
491 72.4711
531 191.5940
563 0.2217
572 0.5996
629 50.6504
730 160.8322
826 7.8181
895 51.0041
921 36.9043
954 134.2908
1044 74.0574
1258 133.2309
1480 356.1888
1534 53.9161
1612 292.9705
1654 134.0423
1680 61.3297
1704 136.6047
1767 85.1013
1795 3.2795
1847 328.8305
1879 109.3473
1921 168.8584
1944 218.9862
1966 314.4632
1975 257.7070
2067 13.2420
2118 124.4714
2167 33.2524
2220 40.6526
2243 291.8719
2272 83.6745
2294 209.3648
2609 355.0832
2728 94.5949
2931 218.0000
3031 110.7553
3044 266.5463
3058 147.7068
3085 285.5725
3166 117.3903
3188 78.1133
3496 195.8634
3614 18.7201
3656 122.7447
3697 229.2193
3722 54.8863
3847 141.1652
3888 115.8829
4051 211.9532
4174 254.4709
4734 230.8339
4804 146.0132
4952 237.7043
5093 173.4483
5103 34.4989
5144 248.4044
5332 261.3768
5363 2.2821
5457 189.1272
5683 297.0269
5900 161.0879
6049 262.1920
6089 327.7757
6125 98.7561
6181 124.9372
6190 141.4832
6214 136.0158
6331 20.7020
6344 149.0141
6432 222.9502
7006 73.5048
7253 182.3764
7344 62.1182
7385 270.1092
7394 166.1858
7408 347.1248
7540 191.5483
7948 0.2651
8021 59.5450
8226 71.5439
8265 43.7407
8391 172.8950
8443 138.6248
8487 187.5318
8515 132.8240
8527 270.0388
8693 250.8026
8705 131.6833
8731 214.5187
8771 50.4220
8793 242.4998
8887 118.9304
8910 184.5494
8921 97.9064
8973 270.1223
8998 163.6026
PLANTSmolcadARTstart hb
PLANTSmolcadARTstart HB
LINES
PLANTSmolcadARTstart HBCH
LINES
PLANTSmolcadARTstart HB-CHO
LINES
PLANTSmolcadARTend
PLANTSmolcadARTstart HB_WATER
LINES
PLANTSmolcadARTend

PLANTSmolcadARTend

