@<TRIPOS>MOLECULE
aspirin_entry_00001_conf_28
20 20 1
SMALL
NO_CHARGES


@<TRIPOS>ATOM
      1 C         -12.3892  -59.1405    0.5682 C.3       1 UNL1        0.0000
      2 C         -13.2038  -59.5795   -0.5931 C.2       1 UNL1        0.0000
      3 C         -13.6306  -61.2431   -2.3229 C.ar      1 UNL1        0.0000
      4 C         -13.8542  -60.4226   -3.4082 C.ar      1 UNL1        0.0000
      5 C         -14.3605  -60.8728   -4.6114 C.ar      1 UNL1        0.0000
      6 C         -14.6557  -62.2091   -4.7316 C.ar      1 UNL1        0.0000
      7 C         -14.4520  -63.0732   -3.6779 C.ar      1 UNL1        0.0000
      8 C         -13.9381  -62.5809   -2.4773 C.ar      1 UNL1        0.0000
      9 C         -13.7378  -63.5287   -1.3877 C.2       1 UNL1        0.0000
     10 O         -14.0232  -58.8107   -1.1815 O.2       1 UNL1        0.0000
     11 O         -13.1312  -60.8406   -1.1139 O.3       1 UNL1        0.0000
     12 O         -14.1859  -64.7015   -1.4597 O.co2     1 UNL1       -0.5000
     13 O         -13.0524  -63.1759   -0.2373 O.co2     1 UNL1       -0.5000
     14 H         -12.6139  -58.1192    0.7949 H         1 UNL1        0.0000
     15 H         -11.3503  -59.2325    0.3299 H         1 UNL1        0.0000
     16 H         -12.6166  -59.7532    1.4150 H         1 UNL1        0.0000
     17 H         -13.6312  -59.4194   -3.3166 H         1 UNL1        0.0000
     18 H         -14.5121  -60.2230   -5.3993 H         1 UNL1        0.0000
     19 H         -15.0350  -62.5703   -5.6209 H         1 UNL1        0.0000
     20 H         -14.6761  -64.0762   -3.7757 H         1 UNL1        0.0000
@<TRIPOS>BOND
     1    1    2 1
     2    1   14 1
     3    1   15 1
     4    1   16 1
     5    2   10 2
     6    2   11 1
     7    3    4 ar
     8    3    8 ar
     9    3   11 1
    10    4    5 ar
    11    4   17 1
    12    5    6 ar
    13    5   18 1
    14    6    7 ar
    15    6   19 1
    16    7    8 ar
    17    7   20 1
    18    8    9 1
    19    9   12 ar
    20    9   13 ar
@<TRIPOS>SUBSTRUCTURE
1 UNL1 1
@<TRIPOS>COMMENT
aspirin
PLANTSproteinTorsions
102
1 50.6530
42 204.9634
151 278.7678
173 173.7239
432 102.6261
491 10.9517
531 239.6980
563 136.7751
572 347.8286
629 61.2471
730 48.6652
826 79.4029
895 102.0049
921 241.5817
954 204.3717
1044 14.7442
1258 78.6916
1480 25.7988
1534 194.9134
1612 241.1651
1654 125.5749
1680 258.6966
1704 27.6850
1767 134.7013
1795 166.7063
1847 136.0721
1879 243.6633
1921 57.0227
1944 355.5002
1966 63.1991
1975 20.6265
2067 115.2798
2118 333.9594
2167 148.5870
2220 200.2981
2243 285.1319
2272 159.0240
2294 18.1653
2609 29.6122
2728 319.6472
2931 122.9483
3031 30.4757
3044 36.2496
3058 215.9760
3085 49.7922
3166 173.4094
3188 197.1952
3496 353.9743
3614 46.5081
3656 260.7031
3697 270.6025
3722 272.8672
3847 162.1807
3888 298.9946
4051 206.7127
4174 57.8317
4734 154.5997
4804 230.8832
4952 224.0704
5093 55.2526
5103 10.1926
5144 247.1899
5332 141.0433
5363 63.9056
5457 11.3562
5683 115.4866
5900 87.1563
6049 268.3766
6089 48.2200
6125 149.7419
6181 76.3131
6190 155.0697
6214 249.9192
6331 259.7422
6344 63.6744
6432 156.0555
7006 167.5224
7253 242.3595
7344 130.9002
7385 261.9926
7394 295.9762
7408 243.3340
7540 185.9908
7948 236.8578
8021 131.6454
8226 207.9931
8265 36.5964
8391 239.3801
8443 28.7067
8487 82.7224
8515 177.7100
8527 105.5620
8693 89.3751
8705 245.0156
8731 129.6495
8771 269.0178
8793 185.6398
8887 63.3900
8910 97.0765
8921 78.6935
8973 307.5495
8998 191.1771
PLANTSmolcadARTstart hb
PLANTSmolcadARTstart HB
LINES
PLANTSmolcadARTstart HBCH
LINES
PLANTSmolcadARTstart HB-CHO
LINES
PLANTSmolcadARTend
PLANTSmolcadARTstart HB_WATER
LINES
PLANTSmolcadARTend

PLANTSmolcadARTend

