@<TRIPOS>MOLECULE
aspirin_entry_00001_conf_78
20 20 1
SMALL
NO_CHARGES


@<TRIPOS>ATOM
      1 C          -3.5967  -60.3847    4.8351 C.3       1 UNL1        0.0000
      2 C          -3.5361  -61.1266    6.1199 C.2       1 UNL1        0.0000
      3 C          -2.4738  -62.8041    7.5341 C.ar      1 UNL1        0.0000
      4 C          -2.6966  -62.2859    8.7922 C.ar      1 UNL1        0.0000
      5 C          -2.5224  -63.0095    9.9553 C.ar      1 UNL1        0.0000
      6 C          -2.1059  -64.3145    9.8512 C.ar      1 UNL1        0.0000
      7 C          -1.8682  -64.8820    8.6183 C.ar      1 UNL1        0.0000
      8 C          -2.0557  -64.1188    7.4649 C.ar      1 UNL1        0.0000
      9 C          -1.7931  -64.7574    6.1808 C.2       1 UNL1        0.0000
     10 O          -4.3212  -60.8836    7.0860 O.2       1 UNL1        0.0000
     11 O          -2.6334  -62.1246    6.3568 O.3       1 UNL1        0.0000
     12 O          -1.6512  -66.0039    6.0951 O.co2     1 UNL1       -0.5000
     13 O          -1.6883  -64.0204    5.0131 O.co2     1 UNL1       -0.5000
     14 H          -4.3785  -59.6556    4.8816 H         1 UNL1        0.0000
     15 H          -3.7947  -61.0694    4.0373 H         1 UNL1        0.0000
     16 H          -2.6613  -59.8956    4.6616 H         1 UNL1        0.0000
     17 H          -3.0101  -61.3060    8.8687 H         1 UNL1        0.0000
     18 H          -2.7014  -62.5817   10.8778 H         1 UNL1        0.0000
     19 H          -1.9687  -64.8765   10.7058 H         1 UNL1        0.0000
     20 H          -1.5555  -65.8633    8.5479 H         1 UNL1        0.0000
@<TRIPOS>BOND
     1    1    2 1
     2    1   14 1
     3    1   15 1
     4    1   16 1
     5    2   10 2
     6    2   11 1
     7    3    4 ar
     8    3    8 ar
     9    3   11 1
    10    4    5 ar
    11    4   17 1
    12    5    6 ar
    13    5   18 1
    14    6    7 ar
    15    6   19 1
    16    7    8 ar
    17    7   20 1
    18    8    9 1
    19    9   12 ar
    20    9   13 ar
@<TRIPOS>SUBSTRUCTURE
1 UNL1 1
@<TRIPOS>COMMENT
aspirin
PLANTSproteinTorsions
102
1 229.7998
42 186.1011
151 60.1544
173 263.0924
432 91.3851
491 1.4259
531 302.3584
563 328.3055
572 91.6376
629 89.7276
730 216.7804
826 42.8570
895 24.8996
921 233.9830
954 68.4491
1044 291.8276
1258 40.4198
1480 227.4556
1534 29.5413
1612 17.5750
1654 29.6650
1680 168.6936
1704 261.7380
1767 73.7845
1795 91.8527
1847 149.2423
1879 132.8647
1921 81.9110
1944 3.9431
1966 245.9775
1975 128.0854
2067 106.1183
2118 114.4790
2167 148.8307
2220 258.8279
2243 66.8262
2272 179.8343
2294 292.4827
2609 286.4559
2728 250.8449
2931 138.8004
3031 48.8222
3044 14.8474
3058 299.3582
3085 37.9153
3166 180.9483
3188 41.9873
3496 136.0262
3614 169.2987
3656 92.0837
3697 188.1255
3722 34.1797
3847 85.2309
3888 79.2839
4051 41.3304
4174 44.3809
4734 110.4274
4804 229.5074
4952 194.5540
5093 266.6158
5103 241.6791
5144 18.7115
5332 268.7785
5363 174.4671
5457 49.6558
5683 231.7284
5900 207.8002
6049 70.8814
6089 31.9579
6125 40.0590
6181 192.1381
6190 267.2181
6214 161.3000
6331 19.4052
6344 255.5050
6432 260.5906
7006 204.6715
7253 249.7536
7344 128.8341
7385 75.9253
7394 320.0232
7408 102.0928
7540 17.1789
7948 29.2666
8021 118.3526
8226 267.4426
8265 187.5274
8391 59.6103
8443 97.6630
8487 161.7624
8515 99.8222
8527 135.9117
8693 230.0595
8705 237.8897
8731 33.9309
8771 202.9397
8793 272.1362
8887 232.0056
8910 216.0840
8921 74.1252
8973 165.1651
8998 209.2759
PLANTSmolcadARTstart hb
PLANTSmolcadARTstart HB
LINES
PLANTSmolcadARTstart HBCH
LINES
PLANTSmolcadARTstart HB-CHO
LINES
PLANTSmolcadARTend
PLANTSmolcadARTstart HB_WATER
LINES
PLANTSmolcadARTend

PLANTSmolcadARTend

