@<TRIPOS>MOLECULE
aspirin_entry_00001_conf_86_protein
256 154 102
SMALL
NO_CHARGES


@<TRIPOS>ATOM
      1 H           2.9651  -84.0620    1.6351 H        28 GLY28       0.0000
      2 N           1.9710  -83.9720    1.7370 N.4      28 GLY28       1.0000
      3 H2          1.5333  -84.7997    1.3759 H        28 GLY28       0.0000
      4 H3          1.6625  -83.1834    1.1976 H        28 GLY28       0.0000
      5 HG1        -4.9697  -77.1142    6.2555 H        31 THR31       0.0000
      6 OG1        -5.5490  -77.8520    5.8930 O.3      31 THR31       0.0000
      7 HH         -4.3660  -67.6516    8.1594 H        38 TYR38       0.0000
      8 OH         -4.6290  -67.0170    8.8830 O.3      38 TYR38       0.0000
      9 HH        -15.1963  -63.0763    8.3087 H        39 TYR39       0.0000
     10 OH        -15.2560  -63.1550    7.3150 O.3      39 TYR39       0.0000
     11 HH         -1.5524  -59.1887    1.3912 H        55 TYR55       0.0000
     12 OH         -2.4450  -59.4310    1.7660 O.3      55 TYR55       0.0000
     13 HG1        -7.6483  -52.3177  -11.6873 H        60 THR60       0.0000
     14 OG1        -8.4490  -52.9250  -11.6880 O.3      60 THR60       0.0000
     15 HG1        -8.8939  -50.6470   -5.1645 H        62 THR62       0.0000
     16 OG1        -9.2280  -49.6990   -5.1820 O.3      62 THR62       0.0000
     17 HH         -8.8344  -43.4824    1.9350 H        64 TYR64       0.0000
     18 OH         -9.5040  -43.9480    1.3590 O.3      64 TYR64       0.0000
     19 HG         -1.6434  -46.3823   -5.3448 H        65 SER65       0.0000
     20 OG         -1.6780  -47.2380   -4.8310 O.3      65 SER65       0.0000
     21 HG1        -2.8754  -51.7805    2.4488 H        70 THR70       0.0000
     22 OG1        -2.7710  -50.8080    2.2150 O.3      70 THR70       0.0000
     23 HG1        -7.2146  -42.8813   -2.8658 H        76 THR76       0.0000
     24 OG1        -7.4980  -42.0730   -2.3400 O.3      76 THR76       0.0000
     25 HG         -7.7245  -34.4745    3.5062 H        81 SER81       0.0000
     26 OG         -7.2260  -35.3370    3.5860 O.3      81 SER81       0.0000
     27 HG        -17.7332  -39.8895   12.8530 H        85 SER85       0.0000
     28 OG        -18.4230  -39.3210   12.4060 O.3      85 SER85       0.0000
     29 HG        -21.3554  -41.6658   13.1260 H        87 SER87       0.0000
     30 OG        -21.7540  -41.4260   14.0100 O.3      87 SER87       0.0000
     31 HG1       -21.5381  -37.2098    7.7690 H        89 THR89       0.0000
     32 OG1       -21.9430  -36.3830    7.3650 O.3      89 THR89       0.0000
     33 HG1       -29.3171  -35.0033   13.1633 H        94 THR94       0.0000
     34 OG1       -29.7610  -34.2720   13.6920 O.3      94 THR94       0.0000
     35 HG1       -31.2713  -22.6202   -2.0358 H       106 THR106      0.0000
     36 OG1       -31.9840  -22.2340   -1.4400 O.3     106 THR106      0.0000
     37 HG1       -24.9526  -36.9515   -8.5326 H       118 THR118      0.0000
     38 OG1       -25.4270  -37.7120   -8.0780 O.3     118 THR118      0.0000
     39 HG        -28.6953  -44.4296   -5.9375 H       121 SER121      0.0000
     40 OG        -28.0170  -43.6970   -5.8890 O.3     121 SER121      0.0000
     41 HG        -21.4504  -49.2109  -12.7014 H       126 SER126      0.0000
     42 OG        -21.9940  -50.0310  -12.5270 O.3     126 SER126      0.0000
     43 HG1       -22.1597  -56.6053   -6.9355 H       129 THR129      0.0000
     44 OG1       -21.5190  -57.3710   -6.8150 O.3     129 THR129      0.0000
     45 HH        -16.1480  -59.0093   -6.7163 H       130 TYR130      0.0000
     46 OH        -16.7630  -58.6500   -6.0170 O.3     130 TYR130      0.0000
     47 HG        -29.1835  -67.6504   -3.9587 H       132 SER132      0.0000
     48 OG        -28.2430  -67.4690   -4.2420 O.3     132 SER132      0.0000
     49 HH        -17.7626  -70.4552   -9.3346 H       136 TYR136      0.0000
     50 OH        -18.4010  -69.8190   -9.7630 O.3     136 TYR136      0.0000
     51 HG        -22.4771  -64.8932  -12.7106 H       138 SER138      0.0000
     52 OG        -21.7000  -65.3460  -12.2760 O.3     138 SER138      0.0000
     53 HG        -25.0025  -61.7044  -10.5480 H       141 SER141      0.0000
     54 OG        -24.2850  -62.2830  -10.1630 O.3     141 SER141      0.0000
     55 HG        -28.5598  -65.5474  -16.7290 H       143 SER143      0.0000
     56 OG        -27.8490  -64.9650  -17.1220 O.3     143 SER143      0.0000
     57 HG        -35.6666  -68.3447   -9.6397 H       146 SER146      0.0000
     58 OG        -35.5350  -67.3800   -9.4140 O.3     146 SER146      0.0000
     59 HH        -27.6957  -70.6810   -8.0892 H       147 TYR147      0.0000
     60 OH        -28.4260  -70.4670   -8.7350 O.3     147 TYR147      0.0000
     61 HH        -36.9786  -62.5563   -1.7890 H       148 TYR148      0.0000
     62 OH        -36.4560  -61.7190   -1.6440 O.3     148 TYR148      0.0000
     63 HG1       -26.0186  -58.4984   -7.6428 H       149 THR149      0.0000
     64 OG1       -26.1570  -58.8760   -6.7210 O.3     149 THR149      0.0000
     65 HG        -20.7585  -67.5352   -0.1926 H       154 SER154      0.0000
     66 OG        -20.0840  -66.8360    0.0410 O.3     154 SER154      0.0000
     67 HZ1       -22.1253  -73.4756    1.2494 H       157 LYS157      0.0000
     68 NZ        -21.3030  -73.3640    1.8070 N.4     157 LYS157      1.0000
     69 HZ2       -21.5544  -73.0073    2.7063 H       157 LYS157      0.0000
     70 HZ3       -20.6767  -72.7278    1.3578 H       157 LYS157      0.0000
     71 HG1       -13.1562  -67.3669   11.5119 H       161 THR161      0.0000
     72 OG1       -13.9700  -67.3810   12.1020 O.3     161 THR161      0.0000
     73 HG1       -10.4023  -63.5538   11.0228 H       165 THR165      0.0000
     74 OG1        -9.5520  -63.8260   10.5610 O.3     165 THR165      0.0000
     75 HZ1        -7.1661  -62.5936   15.1203 H       166 LYS166      0.0000
     76 NZ         -7.2730  -62.7880   14.1460 N.4     166 LYS166      1.0000
     77 HZ2        -7.3360  -63.7759   14.0063 H       166 LYS166      0.0000
     78 HZ3        -6.4869  -62.4280   13.6449 H       166 LYS166      0.0000
     79 HZ1       -17.9764  -67.3971   24.6038 H       168 LYS168      0.0000
     80 NZ        -18.1320  -68.0390   23.8530 N.4     168 LYS168      1.0000
     81 HZ2       -19.0262  -67.8634   23.4422 H       168 LYS168      0.0000
     82 HZ3       -18.1017  -68.9750   24.2019 H       168 LYS168      0.0000
     83 HZ1       -15.6268  -76.6396   21.1359 H       169 LYS169      0.0000
     84 NZ        -15.7760  -75.9460   20.4320 N.4     169 LYS169      1.0000
     85 HZ2       -16.5019  -75.3232   20.7236 H       169 LYS169      0.0000
     86 HZ3       -16.0394  -76.3894   19.5757 H       169 LYS169      0.0000
     87 HZ1       -42.0681  -48.2596   31.1499 H       186 LYS186      0.0000
     88 NZ        -42.5640  -49.1260   31.2020 N.4     186 LYS186      1.0000
     89 HZ2       -43.5378  -48.9473   31.3412 H       186 LYS186      0.0000
     90 HZ3       -42.2107  -49.6691   31.9630 H       186 LYS186      0.0000
     91 HG1       -41.5245  -43.5492   11.4267 H       194 THR194      0.0000
     92 OG1       -41.7230  -43.2040   12.3500 O.3     194 THR194      0.0000
     93 HG1       -41.6778  -55.6866    3.2787 H       206 THR206      0.0000
     94 OG1       -41.9280  -54.7860    2.9080 O.3     206 THR206      0.0000
     95 HZ1       -45.7226  -59.7884   -5.5936 H       211 LYS211      0.0000
     96 NZ        -45.0200  -60.4690   -5.8010 N.4     211 LYS211      1.0000
     97 HZ2       -44.6225  -60.2773   -6.6980 H       211 LYS211      0.0000
     98 HZ3       -45.4280  -61.3811   -5.8043 H       211 LYS211      0.0000
     99 HG1       -37.3662  -63.8365    0.1340 H       212 THR212      0.0000
    100 OG1       -37.0600  -64.5640    0.7570 O.3     212 THR212      0.0000
    101 HG        -38.9354  -71.1598   -4.6650 H       213 SER213      0.0000
    102 OG        -39.6210  -70.4680   -4.4390 O.3     213 SER213      0.0000
    103 HZ1       -40.0084  -72.7361   -7.3699 H       215 LYS215      0.0000
    104 NZ        -40.7140  -72.0550   -7.1780 N.4     215 LYS215      1.0000
    105 HZ2       -40.9334  -71.5554   -8.0148 H       215 LYS215      0.0000
    106 HZ3       -40.3843  -71.4175   -6.4826 H       215 LYS215      0.0000
    107 HG1       -38.2962  -62.2224   -4.5048 H       221 THR221      0.0000
    108 OG1       -37.7410  -62.2150   -5.3430 O.3     221 THR221      0.0000
    109 HZ1       -41.2923  -69.7124   -8.2446 H       222 LYS222      0.0000
    110 NZ        -42.2670  -69.5280   -8.1230 N.4     222 LYS222      1.0000
    111 HZ2       -42.6920  -70.2829   -7.6238 H       222 LYS222      0.0000
    112 HZ3       -42.7038  -69.4290   -9.0161 H       222 LYS222      0.0000
    113 HH        -51.9791  -60.8463  -22.5864 H       242 TYR242      0.0000
    114 OH        -51.5270  -60.6600  -21.7160 O.3     242 TYR242      0.0000
    115 HZ1       -67.8998  -52.3505  -20.7429 H       248 LYS248      0.0000
    116 NZ        -68.1830  -51.5330  -20.2430 N.4     248 LYS248      1.0000
    117 HZ2       -69.1752  -51.4301  -20.3025 H       248 LYS248      0.0000
    118 HZ3       -67.7382  -50.7291  -20.6365 H       248 LYS248      0.0000
    119 HZ1       -64.2986  -47.8389  -12.1286 H       251 LYS251      0.0000
    120 NZ        -64.3690  -47.5440  -13.0810 N.4     251 LYS251      1.0000
    121 HZ2       -64.5027  -46.5539  -13.1161 H       251 LYS251      0.0000
    122 HZ3       -65.1431  -48.0012  -13.5169 H       251 LYS251      0.0000
    123 HZ1       -62.7088  -61.5067  -14.4787 H       253 LYS253      0.0000
    124 NZ        -61.7340  -61.4150  -14.2790 N.4     253 LYS253      1.0000
    125 HZ2       -61.3576  -60.6435  -14.7916 H       253 LYS253      0.0000
    126 HZ3       -61.2582  -62.2545  -14.5388 H       253 LYS253      0.0000
    127 HH        -67.6507  -50.3661  -12.0429 H       254 TYR254      0.0000
    128 OH        -67.9490  -51.2120  -11.6040 O.3     254 TYR254      0.0000
    129 HH        -66.1580  -51.7801    3.7955 H       262 TYR262      0.0000
    130 OH        -65.3490  -51.3490    3.4010 O.3     262 TYR262      0.0000
    131 HG        -66.1466  -63.5469   -2.5214 H       265 SER265      0.0000
    132 OG        -65.2160  -63.5150   -2.8830 O.3     265 SER265      0.0000
    133 HH        -59.5636  -61.4428    2.2287 H       275 TYR275      0.0000
    134 OH        -58.7510  -61.6620    1.6930 O.3     275 TYR275      0.0000
    135 HG        -66.7403  -65.1494    3.7916 H       283 SER283      0.0000
    136 OG        -66.4350  -64.2560    4.1190 O.3     283 SER283      0.0000
    137 HZ1       -62.3755  -46.3467  -24.4378 H       317 LYS317      0.0000
    138 NZ        -62.9320  -46.6960  -23.6840 N.4     317 LYS317      1.0000
    139 HZ2       -62.3868  -47.3227  -23.1277 H       317 LYS317      0.0000
    140 HZ3       -63.7272  -47.1778  -24.0498 H       317 LYS317      0.0000
    141 HG1       -59.0026  -40.9452  -29.8207 H       322 THR322      0.0000
    142 OG1       -58.6530  -41.8510  -29.5590 O.3     322 THR322      0.0000
    143 HG1       -50.9852  -45.0622  -21.5380 H       331 THR331      0.0000
    144 OG1       -50.7660  -45.8310  -20.9280 O.3     331 THR331      0.0000
    145 HE2       -51.2347  -43.3314   -8.6841 H       339 GLU339      0.0000
    146 OE2       -51.4690  -42.4210   -8.5640 O.co2   339 GLU339      0.5000
    147 HG1       -46.7101  -46.8301   -6.9043 H       340 THR340      0.0000
    148 OG1       -46.5450  -46.8770   -5.9140 O.3     340 THR340      0.0000
    149 HZ1       -44.1807  -33.9512   -5.4315 H       342 LYS342      0.0000
    150 NZ        -44.2730  -34.8380   -5.8830 N.4     342 LYS342      1.0000
    151 HZ2       -43.3743  -35.2673   -5.9677 H       342 LYS342      0.0000
    152 HZ3       -44.6705  -34.7123   -6.7910 H       342 LYS342      0.0000
    153 HG        -34.7219  -37.4840    7.6484 H       353 SER353      0.0000
    154 OG        -34.8470  -38.0790    6.8560 O.3     353 SER353      0.0000
    155 HH        -29.2931  -39.2968    7.8930 H       355 TYR355      0.0000
    156 OH        -29.4390  -38.9590    6.9650 O.3     355 TYR355      0.0000
    157 HZ1       -37.2244  -29.1254   -7.7926 H       360 LYS360      0.0000
    158 NZ        -37.0810  -30.0700   -8.0870 N.4     360 LYS360      1.0000
    159 HZ2       -36.1130  -30.3035   -8.0030 H       360 LYS360      0.0000
    160 HZ3       -37.3693  -30.1719   -9.0387 H       360 LYS360      0.0000
    161 HH        -31.0219  -40.3643  -15.5434 H       373 TYR373      0.0000
    162 OH        -31.5330  -40.6670  -14.7410 O.3     373 TYR373      0.0000
    163 HH        -38.2944  -48.9566    3.6012 H       385 TYR385      0.0000
    164 OH        -38.5070  -49.7260    2.9980 O.3     385 TYR385      0.0000
    165 HG        -53.3960  -52.9550   21.9106 H       394 SER394      0.0000
    166 OG        -52.8560  -53.6470   22.3880 O.3     394 SER394      0.0000
    167 HZ1       -56.9400  -45.3433   22.4348 H       396 LYS396      0.0000
    168 NZ        -56.8890  -45.1950   21.4480 N.4     396 LYS396      1.0000
    169 HZ2       -55.9880  -44.8332   21.2088 H       396 LYS396      0.0000
    170 HZ3       -57.5950  -44.5450   21.1701 H       396 LYS396      0.0000
    171 HG        -63.9247  -49.5431   19.1806 H       399 SER399      0.0000
    172 OG        -64.8050  -49.1850   19.4900 O.3     399 SER399      0.0000
    173 HH        -63.9685  -55.7533   16.0049 H       402 TYR402      0.0000
    174 OH        -63.4400  -54.9110   16.0920 O.3     402 TYR402      0.0000
    175 HG        -56.4516  -61.4775   21.3651 H       403 SER403      0.0000
    176 OG        -56.3060  -60.7630   20.6820 O.3     403 SER403      0.0000
    177 HH        -46.8850  -57.5493   15.8969 H       404 TYR404      0.0000
    178 OH        -47.2120  -57.3120   16.8100 O.3     404 TYR404      0.0000
    179 HG1       -60.1639  -63.9097    6.5382 H       411 THR411      0.0000
    180 OG1       -61.0480  -63.9800    7.0130 O.3     411 THR411      0.0000
    181 HG        -64.3363  -59.0552   10.3394 H       412 SER412      0.0000
    182 OG        -65.0720  -59.6800   10.0830 O.3     412 SER412      0.0000
    183 HH        -63.8233  -53.2582   15.7562 H       417 TYR417      0.0000
    184 OH        -63.8670  -52.2620   15.7010 O.3     417 TYR417      0.0000
    185 HG        -25.9239  -63.8692    8.1996 H       455 SER455      0.0000
    186 OG        -26.5990  -63.2690    8.6260 O.3     455 SER455      0.0000
    187 HZ1       -11.4564  -55.3874    6.8369 H       468 LYS468      0.0000
    188 NZ        -11.4800  -54.5700    7.4110 N.4     468 LYS468      1.0000
    189 HZ2       -10.7262  -53.9628    7.1619 H       468 LYS468      0.0000
    190 HZ3       -11.3956  -54.8327    8.3713 H       468 LYS468      0.0000
    191 HZ1       -10.6402  -44.3039   14.5179 H       473 LYS473      0.0000
    192 NZ        -11.2340  -43.8560   13.8500 N.4     473 LYS473      1.0000
    193 HZ2       -10.7164  -43.1580   13.3560 H       473 LYS473      0.0000
    194 HZ3       -12.0076  -43.4309   14.3194 H       473 LYS473      0.0000
    195 HH        -22.5740  -48.4471   14.7767 H       475 TYR475      0.0000
    196 OH        -22.0570  -48.1150   15.5640 O.3     475 TYR475      0.0000
    197 HG1       -12.4948  -48.7618   20.1735 H       476 THR476      0.0000
    198 OG1       -13.0660  -49.5060   19.8110 O.3     476 THR476      0.0000
    199 HG        -16.2694  -50.5372   21.7641 H       477 SER477      0.0000
    200 OG        -15.6220  -50.5540   22.5250 O.3     477 SER477      0.0000
    201 HZ1       -21.0977  -46.5943   32.1314 H       485 LYS485      0.0000
    202 NZ        -20.1320  -46.7880   32.3030 N.4     485 LYS485      1.0000
    203 HZ2       -19.9966  -46.9789   33.2747 H       485 LYS485      0.0000
    204 HZ3       -19.5797  -45.9988   32.0370 H       485 LYS485      0.0000
    205 HZ1       -27.1613  -42.7206   23.4139 H       511 LYS511      0.0000
    206 NZ        -26.7900  -43.3340   22.7180 N.4     511 LYS511      1.0000
    207 HZ2       -26.3485  -42.7982   21.9993 H       511 LYS511      0.0000
    208 HZ3       -27.5287  -43.8799   22.3236 H       511 LYS511      0.0000
    209 HG        -31.5101  -42.9570   15.1833 H       516 SER516      0.0000
    210 OG        -31.9800  -42.6720   16.0180 O.3     516 SER516      0.0000
    211 HG        -34.8128  -48.1625    0.7079 H       530 SER530      0.0000
    212 OG        -34.2320  -47.4470    1.0930 O.3     530 SER530      0.0000
    213 HZ1       -26.9228  -47.6902   -9.9250 H       532 LYS532      0.0000
    214 NZ        -27.6550  -48.3070  -10.2110 N.4     532 LYS532      1.0000
    215 HZ2       -27.2913  -48.9884  -10.8445 H       532 LYS532      0.0000
    216 HZ3       -28.3777  -47.7833  -10.6603 H       532 LYS532      0.0000
    217 HG        -35.7472  -43.4404  -19.4603 H       541 SER541      0.0000
    218 OG        -35.8170  -43.9740  -18.6180 O.3     541 SER541      0.0000
    219 HH        -38.4413  -49.4719  -20.7596 H       544 TYR544      0.0000
    220 OH        -39.2750  -49.0250  -21.0780 O.3     544 TYR544      0.0000
    221 HZ1       -39.8440  -39.2331  -26.2266 H       546 LYS546      0.0000
    222 NZ        -38.9760  -38.9140  -25.8470 N.4     546 LYS546      1.0000
    223 HZ2       -38.7844  -37.9909  -26.1793 H       546 LYS546      0.0000
    224 HZ3       -38.2408  -39.5299  -26.1282 H       546 LYS546      0.0000
    225 HG        -44.5723  -40.3851  -24.0889 H       548 SER548      0.0000
    226 OG        -44.5870  -39.4220  -24.3530 O.3     548 SER548      0.0000
    227 HG1       -43.3707  -41.8951  -21.9052 H       549 THR549      0.0000
    228 OG1       -43.1030  -42.0380  -20.9460 O.3     549 THR549      0.0000
    229 HZ1       -43.7472  -34.5480  -13.4884 H       560 LYS560      0.0000
    230 NZ        -44.3980  -33.9200  -13.9130 N.4     560 LYS560      1.0000
    231 HZ2       -45.1807  -34.4346  -14.2611 H       560 LYS560      0.0000
    232 HZ3       -43.9536  -33.4344  -14.6658 H       560 LYS560      0.0000
    233 HG1       -50.2321  -34.3511   -7.4940 H       561 THR561      0.0000
    234 OG1       -50.0060  -33.4230   -7.8080 O.3     561 THR561      0.0000
    235 HG1       -51.6215  -37.1334   -0.6356 H       563 THR563      0.0000
    236 OG1       -51.2400  -36.2740   -0.2790 O.3     563 THR563      0.0000
    237 HZ1       -55.5604  -34.7446    6.2859 H       565 LYS565      0.0000
    238 NZ        -55.2080  -35.3570    5.5790 N.4     565 LYS565      1.0000
    239 HZ2       -55.9709  -35.7702    5.0824 H       565 LYS565      0.0000
    240 HZ3       -54.6568  -36.0755    6.0035 H       565 LYS565      0.0000
    241 HZ1       -52.8042  -34.0433   -6.6059 H       566 LYS566      0.0000
    242 NZ        -52.4230  -34.8340   -6.1280 N.4     566 LYS566      1.0000
    243 HZ2       -51.5504  -34.5832   -5.7092 H       566 LYS566      0.0000
    244 HZ3       -52.2803  -35.5808   -6.7770 H       566 LYS566      0.0000
    245 HG1       -61.2590  -40.8576    1.0229 H       572 THR572      0.0000
    246 OG1       -61.3190  -41.3360    1.9050 O.3     572 THR572      0.0000
    247 HZ1       -71.5836  -43.4098    0.5031 H       573 LYS573      0.0000
    248 NZ        -71.0950  -42.6030    0.8330 N.4     573 LYS573      1.0000
    249 HZ2       -71.7496  -41.9385    1.1916 H       573 LYS573      0.0000
    250 HZ3       -70.5788  -42.1937    0.0813 H       573 LYS573      0.0000
    251 HG1       -64.9977  -40.5750    7.1363 H       574 THR574      0.0000
    252 OG1       -64.6450  -40.3960    6.2120 O.3     574 THR574      0.0000
    253 HH        -50.3115  -37.5640   12.1238 H       577 TYR577      0.0000
    254 OH        -50.9160  -36.9720   12.6540 O.3     577 TYR577      0.0000
    255 HG        -48.8412  -38.4541   10.2961 H       579 SER579      0.0000
    256 OG        -49.7460  -38.1280   10.0250 O.3     579 SER579      0.0000
@<TRIPOS>BOND
     1    2    4 1
     2    2    1 1
     3    2    3 1
     4    6    5 1
     5    8    7 1
     6   10    9 1
     7   12   11 1
     8   14   13 1
     9   16   15 1
    10   18   17 1
    11   20   19 1
    12   22   21 1
    13   24   23 1
    14   26   25 1
    15   28   27 1
    16   30   29 1
    17   32   31 1
    18   34   33 1
    19   36   35 1
    20   38   37 1
    21   40   39 1
    22   42   41 1
    23   44   43 1
    24   46   45 1
    25   48   47 1
    26   50   49 1
    27   52   51 1
    28   54   53 1
    29   56   55 1
    30   58   57 1
    31   60   59 1
    32   62   61 1
    33   64   63 1
    34   66   65 1
    35   68   69 1
    36   68   70 1
    37   68   67 1
    38   72   71 1
    39   74   73 1
    40   76   75 1
    41   76   77 1
    42   76   78 1
    43   80   79 1
    44   80   81 1
    45   80   82 1
    46   84   83 1
    47   84   85 1
    48   84   86 1
    49   88   89 1
    50   88   87 1
    51   88   90 1
    52   92   91 1
    53   94   93 1
    54   96   95 1
    55   96   97 1
    56   96   98 1
    57  100   99 1
    58  102  101 1
    59  104  105 1
    60  104  106 1
    61  104  103 1
    62  108  107 1
    63  110  109 1
    64  110  111 1
    65  110  112 1
    66  114  113 1
    67  116  115 1
    68  116  117 1
    69  116  118 1
    70  120  122 1
    71  120  119 1
    72  120  121 1
    73  124  125 1
    74  124  126 1
    75  124  123 1
    76  128  127 1
    77  130  129 1
    78  132  131 1
    79  134  133 1
    80  136  135 1
    81  138  137 1
    82  138  139 1
    83  138  140 1
    84  142  141 1
    85  144  143 1
    86  146  145 1
    87  148  147 1
    88  150  149 1
    89  150  151 1
    90  150  152 1
    91  154  153 1
    92  156  155 1
    93  158  157 1
    94  158  160 1
    95  158  159 1
    96  162  161 1
    97  164  163 1
    98  166  165 1
    99  168  167 1
   100  168  169 1
   101  168  170 1
   102  172  171 1
   103  174  173 1
   104  176  175 1
   105  178  177 1
   106  180  179 1
   107  182  181 1
   108  184  183 1
   109  186  185 1
   110  188  187 1
   111  188  189 1
   112  188  190 1
   113  192  191 1
   114  192  193 1
   115  192  194 1
   116  196  195 1
   117  198  197 1
   118  200  199 1
   119  202  201 1
   120  202  203 1
   121  202  204 1
   122  206  205 1
   123  206  207 1
   124  206  208 1
   125  210  209 1
   126  212  211 1
   127  214  213 1
   128  214  215 1
   129  214  216 1
   130  218  217 1
   131  220  219 1
   132  222  221 1
   133  222  223 1
   134  222  224 1
   135  226  225 1
   136  228  227 1
   137  230  231 1
   138  230  229 1
   139  230  232 1
   140  234  233 1
   141  236  235 1
   142  238  237 1
   143  238  239 1
   144  238  240 1
   145  242  241 1
   146  242  243 1
   147  242  244 1
   148  246  245 1
   149  248  250 1
   150  248  247 1
   151  248  249 1
   152  252  251 1
   153  254  253 1
   154  256  255 1
@<TRIPOS>SUBSTRUCTURE
28 GLY28 1
31 THR31 5
38 TYR38 7
39 TYR39 9
55 TYR55 11
60 THR60 13
62 THR62 15
64 TYR64 17
65 SER65 19
70 THR70 21
76 THR76 23
81 SER81 25
85 SER85 27
87 SER87 29
89 THR89 31
94 THR94 33
106 THR106 35
118 THR118 37
121 SER121 39
126 SER126 41
129 THR129 43
130 TYR130 45
132 SER132 47
136 TYR136 49
138 SER138 51
141 SER141 53
143 SER143 55
146 SER146 57
147 TYR147 59
148 TYR148 61
149 THR149 63
154 SER154 65
157 LYS157 67
161 THR161 71
165 THR165 73
166 LYS166 75
168 LYS168 79
169 LYS169 83
186 LYS186 87
194 THR194 91
206 THR206 93
211 LYS211 95
212 THR212 99
213 SER213 101
215 LYS215 103
221 THR221 107
222 LYS222 109
242 TYR242 113
248 LYS248 115
251 LYS251 119
253 LYS253 123
254 TYR254 127
262 TYR262 129
265 SER265 131
275 TYR275 133
283 SER283 135
317 LYS317 137
322 THR322 141
331 THR331 143
339 GLU339 145
340 THR340 147
342 LYS342 149
353 SER353 153
355 TYR355 155
360 LYS360 157
373 TYR373 161
385 TYR385 163
394 SER394 165
396 LYS396 167
399 SER399 171
402 TYR402 173
403 SER403 175
404 TYR404 177
411 THR411 179
412 SER412 181
417 TYR417 183
455 SER455 185
468 LYS468 187
473 LYS473 191
475 TYR475 195
476 THR476 197
477 SER477 199
485 LYS485 201
511 LYS511 205
516 SER516 209
530 SER530 211
532 LYS532 213
541 SER541 217
544 TYR544 219
546 LYS546 221
548 SER548 225
549 THR549 227
560 LYS560 229
561 THR561 233
563 THR563 235
565 LYS565 237
566 LYS566 241
572 THR572 245
573 LYS573 247
574 THR574 251
577 TYR577 253
579 SER579 255
@<TRIPOS>COMMENT
