@<TRIPOS>MOLECULE
aspirin_entry_00001_conf_24
20 20 1
SMALL
NO_CHARGES


@<TRIPOS>ATOM
      1 C         -37.6799  -63.3072    4.8082 C.3       1 UNL1        0.0000
      2 C         -36.2783  -63.3920    5.2908 C.2       1 UNL1        0.0000
      3 C         -33.8903  -63.1185    4.8846 C.ar      1 UNL1        0.0000
      4 C         -33.4327  -63.0369    6.1826 C.ar      1 UNL1        0.0000
      5 C         -32.0947  -63.0741    6.5219 C.ar      1 UNL1        0.0000
      6 C         -31.1725  -63.1997    5.5114 C.ar      1 UNL1        0.0000
      7 C         -31.5754  -63.2848    4.1965 C.ar      1 UNL1        0.0000
      8 C         -32.9370  -63.2441    3.8929 C.ar      1 UNL1        0.0000
      9 C         -33.3204  -63.3372    2.4893 C.2       1 UNL1        0.0000
     10 O         -35.9831  -63.7561    6.4693 O.2       1 UNL1        0.0000
     11 O         -35.2043  -63.0860    4.5034 O.3       1 UNL1        0.0000
     12 O         -32.4762  -63.6359    1.6064 O.co2     1 UNL1       -0.5000
     13 O         -34.6206  -63.0997    2.0761 O.co2     1 UNL1       -0.5000
     14 H         -38.3454  -63.5938    5.5955 H         1 UNL1        0.0000
     15 H         -37.8101  -63.9648    3.9744 H         1 UNL1        0.0000
     16 H         -37.8931  -62.3031    4.5073 H         1 UNL1        0.0000
     17 H         -34.1265  -62.9434    6.9405 H         1 UNL1        0.0000
     18 H         -31.7957  -63.0101    7.5081 H         1 UNL1        0.0000
     19 H         -30.1663  -63.2302    5.7391 H         1 UNL1        0.0000
     20 H         -30.8766  -63.3792    3.4425 H         1 UNL1        0.0000
@<TRIPOS>BOND
     1    1    2 1
     2    1   14 1
     3    1   15 1
     4    1   16 1
     5    2   10 2
     6    2   11 1
     7    3    4 ar
     8    3    8 ar
     9    3   11 1
    10    4    5 ar
    11    4   17 1
    12    5    6 ar
    13    5   18 1
    14    6    7 ar
    15    6   19 1
    16    7    8 ar
    17    7   20 1
    18    8    9 1
    19    9   12 ar
    20    9   13 ar
@<TRIPOS>SUBSTRUCTURE
1 UNL1 1
@<TRIPOS>COMMENT
aspirin
PLANTSproteinTorsions
102
1 114.8405
42 162.9793
151 52.1860
173 3.5717
432 70.1141
491 252.0773
531 240.3323
563 221.9982
572 357.9892
629 320.0520
730 44.6713
826 270.6302
895 81.7294
921 106.5083
954 225.6743
1044 330.7771
1258 59.9389
1480 235.9282
1534 333.5525
1612 27.5390
1654 31.9834
1680 169.5319
1704 32.5276
1767 24.8095
1795 166.2187
1847 95.8133
1879 60.0383
1921 251.5697
1944 2.4982
1966 205.5743
1975 245.7394
2067 73.7383
2118 209.7834
2167 180.3653
2220 162.2922
2243 84.3226
2272 262.8992
2294 63.2009
2609 73.0969
2728 245.6333
2931 57.6985
3031 74.3400
3044 245.6517
3058 277.9974
3085 142.4923
3166 163.0723
3188 211.3975
3496 128.6143
3614 201.9309
3656 61.0876
3697 133.5110
3722 0.1378
3847 121.9807
3888 333.7402
4051 172.1894
4174 159.4722
4734 120.6801
4804 161.9298
4952 82.8141
5093 213.9673
5103 215.0031
5144 57.0311
5332 118.5976
5363 15.4834
5457 46.7352
5683 65.8410
5900 242.2491
6049 342.1122
6089 146.1597
6125 330.9720
6181 115.8815
6190 98.8100
6214 166.0989
6331 91.5136
6344 200.3130
6432 175.1887
7006 247.6454
7253 300.6437
7344 141.0762
7385 93.1258
7394 347.0799
7408 87.6155
7540 207.5617
7948 345.0923
8021 99.3131
8226 257.2618
8265 157.7396
8391 171.8831
8443 185.2965
8487 332.7536
8515 170.3628
8527 21.0925
8693 314.7639
8705 226.3573
8731 196.7470
8771 199.4716
8793 69.0492
8887 172.2887
8910 59.3186
8921 241.4639
8973 283.0722
8998 93.5649
PLANTSmolcadARTstart hb
PLANTSmolcadARTstart HB
LINES
PLANTSmolcadARTstart HBCH
LINES
PLANTSmolcadARTstart HB-CHO
LINES
PLANTSmolcadARTend
PLANTSmolcadARTstart HB_WATER
LINES
PLANTSmolcadARTend

PLANTSmolcadARTend

