@<TRIPOS>MOLECULE
aspirin_entry_00001_conf_97
20 20 1
SMALL
NO_CHARGES


@<TRIPOS>ATOM
      1 C         -27.2418  -26.9487    9.8465 C.3       1 UNL1        0.0000
      2 C         -25.8027  -26.8971    9.4845 C.2       1 UNL1        0.0000
      3 C         -24.0584  -26.8767    7.7817 C.ar      1 UNL1        0.0000
      4 C         -23.0683  -26.1400    8.3966 C.ar      1 UNL1        0.0000
      5 C         -21.7637  -26.0932    7.9467 C.ar      1 UNL1        0.0000
      6 C         -21.4369  -26.8202    6.8278 C.ar      1 UNL1        0.0000
      7 C         -22.3878  -27.5733    6.1743 C.ar      1 UNL1        0.0000
      8 C         -23.6963  -27.5959    6.6594 C.ar      1 UNL1        0.0000
      9 C         -24.6714  -28.4054    5.9386 C.2       1 UNL1        0.0000
     10 O         -24.8836  -26.7992   10.3530 O.2       1 UNL1        0.0000
     11 O         -25.3618  -26.9520    8.1924 O.3       1 UNL1        0.0000
     12 O         -25.9052  -28.2552    6.1303 O.co2     1 UNL1       -0.5000
     13 O         -24.2794  -29.3665    5.0220 O.co2     1 UNL1       -0.5000
     14 H         -27.3436  -26.8911   10.9101 H         1 UNL1        0.0000
     15 H         -27.6644  -27.8674    9.4972 H         1 UNL1        0.0000
     16 H         -27.7531  -26.1257    9.3932 H         1 UNL1        0.0000
     17 H         -23.3152  -25.5951    9.2372 H         1 UNL1        0.0000
     18 H         -21.0531  -25.5280    8.4384 H         1 UNL1        0.0000
     19 H         -20.4683  -26.8020    6.4718 H         1 UNL1        0.0000
     20 H         -22.1348  -28.1172    5.3342 H         1 UNL1        0.0000
@<TRIPOS>BOND
     1    1    2 1
     2    1   14 1
     3    1   15 1
     4    1   16 1
     5    2   10 2
     6    2   11 1
     7    3    4 ar
     8    3    8 ar
     9    3   11 1
    10    4    5 ar
    11    4   17 1
    12    5    6 ar
    13    5   18 1
    14    6    7 ar
    15    6   19 1
    16    7    8 ar
    17    7   20 1
    18    8    9 1
    19    9   12 ar
    20    9   13 ar
@<TRIPOS>SUBSTRUCTURE
1 UNL1 1
@<TRIPOS>COMMENT
aspirin
PLANTSproteinTorsions
102
1 336.2192
42 91.7089
151 13.2312
173 119.5526
432 104.1644
491 2.5569
531 52.6595
563 125.4303
572 109.4180
629 152.8088
730 20.4055
826 63.8544
895 349.1423
921 346.8785
954 96.2949
1044 16.6603
1258 169.6919
1480 257.9692
1534 3.2709
1612 179.8870
1654 129.0874
1680 121.0429
1704 25.0382
1767 214.7554
1795 175.5267
1847 156.7495
1879 143.4713
1921 257.3713
1944 169.1963
1966 169.7933
1975 258.6830
2067 230.1365
2118 234.8998
2167 358.7358
2220 189.1203
2243 224.1894
2272 183.5963
2294 304.8396
2609 19.0041
2728 42.0756
2931 83.5239
3031 112.4852
3044 10.6506
3058 194.0258
3085 174.7654
3166 85.0145
3188 73.7805
3496 62.7723
3614 31.3588
3656 73.7389
3697 72.0937
3722 67.1717
3847 230.9891
3888 257.0713
4051 170.7446
4174 311.9765
4734 2.5002
4804 203.5772
4952 183.9220
5093 36.1557
5103 115.8746
5144 47.4679
5332 276.4451
5363 283.4395
5457 65.5974
5683 69.2837
5900 159.8483
6049 135.2527
6089 175.7924
6125 296.8448
6181 236.1591
6190 249.1086
6214 95.7793
6331 214.2063
6344 346.6945
6432 49.0198
7006 180.6924
7253 60.4241
7344 87.8142
7385 63.4494
7394 162.8697
7408 301.5903
7540 165.5453
7948 163.2102
8021 138.1003
8226 240.7362
8265 274.8726
8391 251.0338
8443 150.7125
8487 193.3419
8515 250.3615
8527 106.8375
8693 128.2863
8705 172.2809
8731 164.9528
8771 206.2726
8793 173.5920
8887 265.4608
8910 46.2017
8921 265.1035
8973 107.1780
8998 338.6326
PLANTSmolcadARTstart hb
PLANTSmolcadARTstart HB
LINES
PLANTSmolcadARTstart HBCH
LINES
PLANTSmolcadARTstart HB-CHO
LINES
PLANTSmolcadARTend
PLANTSmolcadARTstart HB_WATER
LINES
PLANTSmolcadARTend

PLANTSmolcadARTend

