@<TRIPOS>MOLECULE
aspirin_entry_00001_conf_40
20 20 1
SMALL
NO_CHARGES


@<TRIPOS>ATOM
      1 C         -13.5167  -61.2056    1.2354 C.3       1 UNL1        0.0000
      2 C         -13.8045  -60.0769    0.3145 C.2       1 UNL1        0.0000
      3 C         -14.5859  -57.7951   -0.0388 C.ar      1 UNL1        0.0000
      4 C         -15.2084  -57.8835   -1.2658 C.ar      1 UNL1        0.0000
      5 C         -15.5436  -56.7836   -2.0304 C.ar      1 UNL1        0.0000
      6 C         -15.2408  -55.5364   -1.5404 C.ar      1 UNL1        0.0000
      7 C         -14.6184  -55.3910   -0.3198 C.ar      1 UNL1        0.0000
      8 C         -14.2955  -56.5266    0.4245 C.ar      1 UNL1        0.0000
      9 C         -13.6378  -56.3284    1.7105 C.2       1 UNL1        0.0000
     10 O         -13.6693  -60.1708   -0.9432 O.2       1 UNL1        0.0000
     11 O         -14.2362  -58.8564    0.7514 O.3       1 UNL1        0.0000
     12 O         -13.5398  -55.1817    2.2172 O.co2     1 UNL1       -0.5000
     13 O         -13.0970  -57.3884    2.4187 O.co2     1 UNL1       -0.5000
     14 H         -13.1953  -62.0544    0.6686 H         1 UNL1        0.0000
     15 H         -14.4027  -61.4556    1.7804 H         1 UNL1        0.0000
     16 H         -12.7457  -60.9196    1.9196 H         1 UNL1        0.0000
     17 H         -15.4359  -58.8208   -1.6321 H         1 UNL1        0.0000
     18 H         -16.0099  -56.8956   -2.9448 H         1 UNL1        0.0000
     19 H         -15.4813  -54.6984   -2.0928 H         1 UNL1        0.0000
     20 H         -14.3941  -54.4505    0.0420 H         1 UNL1        0.0000
@<TRIPOS>BOND
     1    1    2 1
     2    1   14 1
     3    1   15 1
     4    1   16 1
     5    2   10 2
     6    2   11 1
     7    3    4 ar
     8    3    8 ar
     9    3   11 1
    10    4    5 ar
    11    4   17 1
    12    5    6 ar
    13    5   18 1
    14    6    7 ar
    15    6   19 1
    16    7    8 ar
    17    7   20 1
    18    8    9 1
    19    9   12 ar
    20    9   13 ar
@<TRIPOS>SUBSTRUCTURE
1 UNL1 1
@<TRIPOS>COMMENT
aspirin
PLANTSproteinTorsions
102
1 47.7989
42 156.6329
151 283.6027
173 66.7482
432 166.7647
491 44.4059
531 40.0100
563 104.1913
572 49.3652
629 84.4080
730 249.8233
826 68.1289
895 112.7049
921 218.9005
954 81.3525
1044 76.2278
1258 75.6911
1480 45.6581
1534 181.2361
1612 263.6031
1654 191.6906
1680 306.5581
1704 20.9609
1767 66.2315
1795 167.8031
1847 207.9084
1879 89.7527
1921 25.9395
1944 99.7166
1966 62.6318
1975 350.7477
2067 109.7205
2118 71.2209
2167 153.7785
2220 204.4019
2243 107.8313
2272 333.4823
2294 175.4004
2609 117.2486
2728 94.7505
2931 63.2721
3031 51.9985
3044 134.8018
3058 158.7201
3085 126.2118
3166 3.1838
3188 9.3312
3496 196.1084
3614 214.1050
3656 60.0117
3697 153.4776
3722 249.7559
3847 88.1712
3888 169.3719
4051 213.2729
4174 43.9523
4734 139.1852
4804 163.9548
4952 5.9651
5093 88.2096
5103 12.5605
5144 25.5218
5332 245.6148
5363 45.4622
5457 183.8202
5683 93.9146
5900 338.5007
6049 181.5927
6089 196.6349
6125 88.2261
6181 108.3126
6190 259.8163
6214 267.8409
6331 339.5845
6344 245.8911
6432 274.3022
7006 199.8247
7253 194.4559
7344 165.9476
7385 187.3543
7394 241.8624
7408 55.5160
7540 196.2702
7948 331.3036
8021 114.1290
8226 102.8517
8265 249.4113
8391 144.8476
8443 275.7697
8487 129.3059
8515 269.3888
8527 188.3697
8693 219.8291
8705 328.6744
8731 235.8114
8771 217.6707
8793 213.1500
8887 309.9058
8910 231.0224
8921 11.5097
8973 49.7991
8998 169.8079
PLANTSmolcadARTstart hb
PLANTSmolcadARTstart HB
LINES
PLANTSmolcadARTstart HBCH
LINES
PLANTSmolcadARTstart HB-CHO
LINES
PLANTSmolcadARTend
PLANTSmolcadARTstart HB_WATER
LINES
PLANTSmolcadARTend

PLANTSmolcadARTend

