@<TRIPOS>MOLECULE
aspirin_entry_00001_conf_96
20 20 1
SMALL
NO_CHARGES


@<TRIPOS>ATOM
      1 C         -14.8473  -34.7556   -5.5263 C.3       1 UNL1        0.0000
      2 C         -14.6622  -33.4109   -4.9245 C.2       1 UNL1        0.0000
      3 C         -12.2252  -33.4616   -4.9498 C.ar      1 UNL1        0.0000
      4 C         -11.9427  -34.2208   -6.0654 C.ar      1 UNL1        0.0000
      5 C         -10.7095  -34.7949   -6.3033 C.ar      1 UNL1        0.0000
      6 C          -9.7128  -34.5973   -5.3787 C.ar      1 UNL1        0.0000
      7 C          -9.9415  -33.8473   -4.2457 C.ar      1 UNL1        0.0000
      8 C         -11.2011  -33.2826   -4.0402 C.ar      1 UNL1        0.0000
      9 C         -11.4009  -32.4964   -2.8287 C.2       1 UNL1        0.0000
     10 O         -15.6379  -32.6679   -4.6009 O.2       1 UNL1        0.0000
     11 O         -13.4306  -32.8749   -4.6741 O.3       1 UNL1        0.0000
     12 O         -12.5560  -32.1769   -2.4478 O.co2     1 UNL1       -0.5000
     13 O         -10.3330  -32.0718   -2.0561 O.co2     1 UNL1       -0.5000
     14 H         -15.8928  -34.9601   -5.6261 H         1 UNL1        0.0000
     15 H         -14.3984  -35.4934   -4.8949 H         1 UNL1        0.0000
     16 H         -14.3842  -34.7815   -6.4902 H         1 UNL1        0.0000
     17 H         -12.6920  -34.3676   -6.7593 H         1 UNL1        0.0000
     18 H         -10.5410  -35.3563   -7.1533 H         1 UNL1        0.0000
     19 H          -8.7822  -35.0156   -5.5337 H         1 UNL1        0.0000
     20 H          -9.1875  -33.7030   -3.5554 H         1 UNL1        0.0000
@<TRIPOS>BOND
     1    1    2 1
     2    1   14 1
     3    1   15 1
     4    1   16 1
     5    2   10 2
     6    2   11 1
     7    3    4 ar
     8    3    8 ar
     9    3   11 1
    10    4    5 ar
    11    4   17 1
    12    5    6 ar
    13    5   18 1
    14    6    7 ar
    15    6   19 1
    16    7    8 ar
    17    7   20 1
    18    8    9 1
    19    9   12 ar
    20    9   13 ar
@<TRIPOS>SUBSTRUCTURE
1 UNL1 1
@<TRIPOS>COMMENT
aspirin
PLANTSproteinTorsions
102
1 324.1085
42 125.1367
151 323.1618
173 351.0036
432 219.6637
491 224.2584
531 78.9013
563 72.1126
572 139.4348
629 173.4101
730 22.1251
826 281.3219
895 341.1823
921 254.3390
954 332.5099
1044 106.4759
1258 145.8386
1480 113.8544
1534 21.6570
1612 242.5756
1654 150.0764
1680 71.2110
1704 26.9451
1767 277.5643
1795 12.4031
1847 21.9383
1879 307.8345
1921 97.3587
1944 324.3923
1966 188.1108
1975 184.5673
2067 319.3936
2118 143.7884
2167 260.4188
2220 60.9042
2243 176.3525
2272 81.4956
2294 237.2299
2609 262.6227
2728 339.8783
2931 26.2582
3031 108.9267
3044 254.2589
3058 157.5164
3085 126.4028
3166 105.9618
3188 246.2195
3496 18.4142
3614 316.5911
3656 211.1598
3697 157.8672
3722 105.8922
3847 356.9486
3888 226.8267
4051 191.4006
4174 31.8852
4734 291.5837
4804 71.4247
4952 157.3898
5093 170.8079
5103 196.9437
5144 71.2271
5332 133.0493
5363 197.5906
5457 261.6677
5683 260.5406
5900 122.1109
6049 286.1677
6089 300.0840
6125 90.9161
6181 100.1623
6190 253.1311
6214 130.0751
6331 33.7271
6344 250.4356
6432 247.8952
7006 254.7832
7253 183.2434
7344 193.2548
7385 238.1400
7394 81.1873
7408 187.0174
7540 193.5372
7948 42.8999
8021 120.0037
8226 256.3630
8265 23.0722
8391 297.5688
8443 247.5008
8487 58.9390
8515 177.0146
8527 93.5649
8693 61.3731
8705 212.0447
8731 253.6069
8771 306.2823
8793 267.0379
8887 126.4043
8910 148.2816
8921 92.3599
8973 146.8574
8998 208.4933
PLANTSmolcadARTstart hb
PLANTSmolcadARTstart HB
LINES
PLANTSmolcadARTstart HBCH
LINES
PLANTSmolcadARTstart HB-CHO
LINES
PLANTSmolcadARTend
PLANTSmolcadARTstart HB_WATER
LINES
PLANTSmolcadARTend

PLANTSmolcadARTend

