@<TRIPOS>MOLECULE
aspirin_entry_00001_conf_01
20 20 1
SMALL
NO_CHARGES


@<TRIPOS>ATOM
      1 C         -12.7949  -61.1112    1.1950 C.3       1 UNL1        0.0000
      2 C         -13.6201  -60.0149    0.6275 C.2       1 UNL1        0.0000
      3 C         -14.1764  -58.5552   -1.2439 C.ar      1 UNL1        0.0000
      4 C         -14.5129  -57.3884   -0.5909 C.ar      1 UNL1        0.0000
      5 C         -15.1623  -56.3341   -1.2021 C.ar      1 UNL1        0.0000
      6 C         -15.4887  -56.4560   -2.5310 C.ar      1 UNL1        0.0000
      7 C         -15.1762  -57.6008   -3.2312 C.ar      1 UNL1        0.0000
      8 C         -14.5190  -58.6451   -2.5790 C.ar      1 UNL1        0.0000
      9 C         -14.2069  -59.8385   -3.3563 C.2       1 UNL1        0.0000
     10 O         -14.4620  -59.3660    1.3195 O.2       1 UNL1        0.0000
     11 O         -13.5339  -59.6234   -0.6787 O.3       1 UNL1        0.0000
     12 O         -13.3768  -60.6850   -2.9369 O.co2     1 UNL1       -0.5000
     13 O         -14.8070  -60.0837   -4.5799 O.co2     1 UNL1       -0.5000
     14 H         -13.0337  -61.2371    2.2304 H         1 UNL1        0.0000
     15 H         -11.7585  -60.8651    1.0956 H         1 UNL1        0.0000
     16 H         -12.9981  -62.0196    0.6680 H         1 UNL1        0.0000
     17 H         -14.2664  -57.2981    0.4069 H         1 UNL1        0.0000
     18 H         -15.3952  -55.4774   -0.6749 H         1 UNL1        0.0000
     19 H         -15.9741  -55.6818   -3.0107 H         1 UNL1        0.0000
     20 H         -15.4245  -57.6850   -4.2296 H         1 UNL1        0.0000
@<TRIPOS>BOND
     1    1    2 1
     2    1   14 1
     3    1   15 1
     4    1   16 1
     5    2   10 2
     6    2   11 1
     7    3    4 ar
     8    3    8 ar
     9    3   11 1
    10    4    5 ar
    11    4   17 1
    12    5    6 ar
    13    5   18 1
    14    6    7 ar
    15    6   19 1
    16    7    8 ar
    17    7   20 1
    18    8    9 1
    19    9   12 ar
    20    9   13 ar
@<TRIPOS>SUBSTRUCTURE
1 UNL1 1
@<TRIPOS>COMMENT
aspirin
PLANTSproteinTorsions
102
1 227.8839
42 90.0747
151 337.3109
173 170.5539
432 53.7036
491 45.6837
531 1.3800
563 98.7414
572 206.4355
629 214.4516
730 246.9737
826 123.3979
895 95.2573
921 314.7670
954 106.0558
1044 103.9019
1258 59.1157
1480 26.9741
1534 205.7097
1612 12.9481
1654 143.3415
1680 339.2693
1704 41.9497
1767 181.4399
1795 80.3312
1847 286.0533
1879 296.4302
1921 54.1103
1944 130.2849
1966 25.2439
1975 85.2623
2067 141.6921
2118 74.4898
2167 75.8248
2220 61.0029
2243 292.1412
2272 91.4091
2294 7.9312
2609 64.6512
2728 110.5061
2931 154.1882
3031 300.4966
3044 190.7713
3058 144.6316
3085 243.9499
3166 4.9962
3188 243.1925
3496 17.6706
3614 63.5112
3656 45.9466
3697 174.0677
3722 260.0947
3847 45.6705
3888 125.9449
4051 246.3683
4174 183.3072
4734 76.0698
4804 110.3686
4952 222.9882
5093 207.4680
5103 54.8916
5144 252.7330
5332 188.6046
5363 154.7193
5457 190.5714
5683 220.1782
5900 20.2535
6049 217.8535
6089 48.1366
6125 53.1513
6181 283.2256
6190 93.7260
6214 225.6705
6331 227.5299
6344 291.4894
6432 87.1796
7006 279.4405
7253 218.1407
7344 141.7903
7385 198.3715
7394 235.0746
7408 104.5337
7540 268.4346
7948 63.5547
8021 205.4380
8226 125.0598
8265 134.3560
8391 259.9967
8443 93.2421
8487 86.7049
8515 266.4846
8527 154.8943
8693 268.4145
8705 260.4513
8731 264.9552
8771 54.9253
8793 35.8093
8887 165.7289
8910 120.3308
8921 110.3306
8973 144.2659
8998 158.1179
PLANTSmolcadARTstart hb
PLANTSmolcadARTstart HB
LINES
-14.462 -59.366 1.31952 -16.346 -59.843 1.833 0 255 0 5
-13.3768 -60.685 -2.93691 -11.654 -59.599 -3.055 0 255 0 5
-14.807 -60.0837 -4.57993 -16.0501 -59.1381 -5.51724 0 255 0 5
PLANTSmolcadARTstart HBCH
LINES
PLANTSmolcadARTstart HB-CHO
LINES
PLANTSmolcadARTend
PLANTSmolcadARTstart HB_WATER
LINES
PLANTSmolcadARTend

PLANTSmolcadARTend

