@<TRIPOS>MOLECULE
aspirin_entry_00001_conf_68
20 20 1
SMALL
NO_CHARGES


@<TRIPOS>ATOM
      1 C         -43.7318  -32.1909   -8.0418 C.3       1 UNL1        0.0000
      2 C         -42.5423  -32.5505   -7.2290 C.2       1 UNL1        0.0000
      3 C         -41.1800  -33.3775   -9.0736 C.ar      1 UNL1        0.0000
      4 C         -40.5502  -32.4475   -9.8731 C.ar      1 UNL1        0.0000
      5 C         -40.2802  -32.6524  -11.2117 C.ar      1 UNL1        0.0000
      6 C         -40.6593  -33.8470  -11.7743 C.ar      1 UNL1        0.0000
      7 C         -41.2925  -34.8112  -11.0208 C.ar      1 UNL1        0.0000
      8 C         -41.5480  -34.5676   -9.6705 C.ar      1 UNL1        0.0000
      9 C         -42.2198  -35.6140   -8.9093 C.2       1 UNL1        0.0000
     10 O         -42.4450  -32.2630   -5.9975 O.2       1 UNL1        0.0000
     11 O         -41.4669  -33.2169   -7.7450 O.3       1 UNL1        0.0000
     12 O         -42.6106  -36.6708   -9.4677 O.co2     1 UNL1       -0.5000
     13 O         -42.4542  -35.4847   -7.5507 O.co2     1 UNL1       -0.5000
     14 H         -44.4412  -31.6775   -7.4269 H         1 UNL1        0.0000
     15 H         -44.1779  -33.0809   -8.4337 H         1 UNL1        0.0000
     16 H         -43.4330  -31.5563   -8.8494 H         1 UNL1        0.0000
     17 H         -40.2653  -31.5511   -9.4489 H         1 UNL1        0.0000
     18 H         -39.8056  -31.9281  -11.7739 H         1 UNL1        0.0000
     19 H         -40.4686  -34.0245  -12.7730 H         1 UNL1        0.0000
     20 H         -41.5744  -35.7066  -11.4505 H         1 UNL1        0.0000
@<TRIPOS>BOND
     1    1    2 1
     2    1   14 1
     3    1   15 1
     4    1   16 1
     5    2   10 2
     6    2   11 1
     7    3    4 ar
     8    3    8 ar
     9    3   11 1
    10    4    5 ar
    11    4   17 1
    12    5    6 ar
    13    5   18 1
    14    6    7 ar
    15    6   19 1
    16    7    8 ar
    17    7   20 1
    18    8    9 1
    19    9   12 ar
    20    9   13 ar
@<TRIPOS>SUBSTRUCTURE
1 UNL1 1
@<TRIPOS>COMMENT
aspirin
PLANTSproteinTorsions
102
1 49.1401
42 108.6562
151 257.9217
173 337.1436
432 148.1206
491 216.7944
531 168.2931
563 281.5708
572 163.2496
629 329.4573
730 220.2805
826 285.2821
895 103.9364
921 157.7944
954 67.7660
1044 270.6537
1258 44.0669
1480 108.6616
1534 208.4551
1612 344.2875
1654 316.9320
1680 240.9241
1704 21.5323
1767 166.0526
1795 345.3846
1847 226.7735
1879 170.7844
1921 294.2668
1944 275.9086
1966 6.5849
1975 23.8583
2067 115.6112
2118 201.9615
2167 177.8035
2220 153.7968
2243 129.2810
2272 291.5275
2294 243.4625
2609 277.9626
2728 282.7704
2931 229.5681
3031 227.5229
3044 175.3820
3058 208.3109
3085 39.7164
3166 302.5255
3188 265.8878
3496 220.1272
3614 128.9842
3656 200.3290
3697 21.2870
3722 88.8112
3847 203.4120
3888 104.7193
4051 223.0305
4174 55.2485
4734 293.2587
4804 178.9473
4952 2.2650
5093 272.4019
5103 306.7006
5144 313.7853
5332 224.7308
5363 157.2634
5457 252.3901
5683 291.8017
5900 173.4068
6049 247.5437
6089 312.8568
6125 161.7224
6181 131.5995
6190 213.9883
6214 210.1043
6331 64.5029
6344 103.7667
6432 81.2786
7006 58.7125
7253 97.4315
7344 135.8070
7385 273.7173
7394 19.1527
7408 179.3306
7540 309.3484
7948 115.3227
8021 243.1827
8226 72.8661
8265 135.0395
8391 96.2657
8443 86.7562
8487 279.0144
8515 298.3720
8527 86.6266
8693 129.8231
8705 211.1030
8731 303.4063
8771 303.4717
8793 47.8336
8887 78.0055
8910 39.6761
8921 286.8045
8973 119.7551
8998 98.0560
PLANTSmolcadARTstart hb
PLANTSmolcadARTstart HB
LINES
PLANTSmolcadARTstart HBCH
LINES
-42.4542 -35.4847 -7.55066 -43.6999 -35.4052 -6.47313 255 0 0 5
PLANTSmolcadARTstart HB-CHO
LINES
PLANTSmolcadARTend
PLANTSmolcadARTstart HB_WATER
LINES
PLANTSmolcadARTend

PLANTSmolcadARTend

