@<TRIPOS>MOLECULE
aspirin_entry_00001_conf_90
20 20 1
SMALL
NO_CHARGES


@<TRIPOS>ATOM
      1 C         -14.9966  -59.4067   -3.6136 C.3       1 UNL1        0.0000
      2 C         -13.9526  -59.8854   -2.6724 C.2       1 UNL1        0.0000
      3 C         -14.1118  -57.9962   -1.1401 C.ar      1 UNL1        0.0000
      4 C         -14.6365  -57.0383   -1.9815 C.ar      1 UNL1        0.0000
      5 C         -15.1236  -55.8233   -1.5420 C.ar      1 UNL1        0.0000
      6 C         -15.0829  -55.5572   -0.1948 C.ar      1 UNL1        0.0000
      7 C         -14.5684  -56.4794    0.6903 C.ar      1 UNL1        0.0000
      8 C         -14.0857  -57.6969    0.2081 C.ar      1 UNL1        0.0000
      9 C         -13.5499  -58.6444    1.1781 C.2       1 UNL1        0.0000
     10 O         -13.2981  -60.9546   -2.8655 O.2       1 UNL1        0.0000
     11 O         -13.6190  -59.2116   -1.5315 O.3       1 UNL1        0.0000
     12 O         -13.3485  -58.3040    2.3719 O.co2     1 UNL1       -0.5000
     13 O         -13.2418  -59.9473    0.8244 O.co2     1 UNL1       -0.5000
     14 H         -15.0819  -60.0933   -4.4298 H         1 UNL1        0.0000
     15 H         -14.7246  -58.4416   -3.9865 H         1 UNL1        0.0000
     16 H         -15.9339  -59.3404   -3.1024 H         1 UNL1        0.0000
     17 H         -14.6671  -57.2399   -2.9929 H         1 UNL1        0.0000
     18 H         -15.5086  -55.1342   -2.2075 H         1 UNL1        0.0000
     19 H         -15.4411  -54.6562    0.1589 H         1 UNL1        0.0000
     20 H         -14.5413  -56.2724    1.7013 H         1 UNL1        0.0000
@<TRIPOS>BOND
     1    1    2 1
     2    1   14 1
     3    1   15 1
     4    1   16 1
     5    2   10 2
     6    2   11 1
     7    3    4 ar
     8    3    8 ar
     9    3   11 1
    10    4    5 ar
    11    4   17 1
    12    5    6 ar
    13    5   18 1
    14    6    7 ar
    15    6   19 1
    16    7    8 ar
    17    7   20 1
    18    8    9 1
    19    9   12 ar
    20    9   13 ar
@<TRIPOS>SUBSTRUCTURE
1 UNL1 1
@<TRIPOS>COMMENT
aspirin
PLANTSproteinTorsions
102
1 221.7639
42 104.4137
151 64.7113
173 132.3559
432 146.1990
491 131.9696
531 29.2789
563 108.7288
572 33.2635
629 200.3342
730 262.5983
826 24.9795
895 2.9364
921 31.3322
954 192.1213
1044 14.9612
1258 94.9606
1480 2.4046
1534 224.4740
1612 6.1821
1654 146.5133
1680 266.2219
1704 62.1869
1767 120.7195
1795 145.4459
1847 209.2240
1879 332.0179
1921 20.2066
1944 131.5742
1966 219.5798
1975 63.1616
2067 114.9601
2118 71.8280
2167 277.8542
2220 148.2699
2243 236.7200
2272 95.9352
2294 348.5744
2609 180.7179
2728 36.6844
2931 68.3799
3031 89.7138
3044 141.4639
3058 172.7085
3085 43.9700
3166 91.6498
3188 124.2368
3496 69.1436
3614 54.5506
3656 166.3805
3697 257.7321
3722 252.9115
3847 116.7578
3888 137.8732
4051 106.1951
4174 250.4181
4734 178.4197
4804 119.3617
4952 215.0453
5093 62.4549
5103 7.0249
5144 348.1256
5332 210.6328
5363 292.4500
5457 179.5308
5683 257.3196
5900 86.8995
6049 261.2323
6089 141.9527
6125 91.3060
6181 121.8295
6190 215.9837
6214 211.6713
6331 228.7686
6344 245.8251
6432 113.8835
7006 80.6541
7253 249.2423
7344 123.2035
7385 29.1448
7394 147.6676
7408 70.0000
7540 107.8086
7948 266.6909
8021 121.3232
8226 84.9202
8265 99.5130
8391 111.3151
8443 102.8742
8487 82.5050
8515 273.3044
8527 153.5406
8693 265.4301
8705 249.4621
8731 114.3427
8771 265.4406
8793 180.6615
8887 189.4380
8910 109.5754
8921 82.2677
8973 172.4151
8998 247.5757
PLANTSmolcadARTstart hb
PLANTSmolcadARTstart HB
LINES
PLANTSmolcadARTstart HBCH
LINES
PLANTSmolcadARTstart HB-CHO
LINES
PLANTSmolcadARTend
PLANTSmolcadARTstart HB_WATER
LINES
PLANTSmolcadARTend

PLANTSmolcadARTend

