@<TRIPOS>MOLECULE
aspirin_entry_00001_conf_69
20 20 1
SMALL
NO_CHARGES


@<TRIPOS>ATOM
      1 C         -41.9326  -32.3756  -18.5948 C.3       1 UNL1        0.0000
      2 C         -40.7531  -33.2672  -18.7305 C.2       1 UNL1        0.0000
      3 C         -39.0181  -34.2649  -20.1221 C.ar      1 UNL1        0.0000
      4 C         -38.0444  -34.5917  -19.2023 C.ar      1 UNL1        0.0000
      5 C         -37.0065  -35.4625  -19.4692 C.ar      1 UNL1        0.0000
      6 C         -36.9430  -36.0328  -20.7174 C.ar      1 UNL1        0.0000
      7 C         -37.8900  -35.7405  -21.6746 C.ar      1 UNL1        0.0000
      8 C         -38.9247  -34.8557  -21.3673 C.ar      1 UNL1        0.0000
      9 C         -39.9057  -34.5737  -22.4084 C.2       1 UNL1        0.0000
     10 O         -40.3068  -33.9601  -17.7664 O.2       1 UNL1        0.0000
     11 O         -40.0626  -33.4086  -19.9010 O.3       1 UNL1        0.0000
     12 O         -41.0049  -34.0294  -22.1312 O.co2     1 UNL1       -0.5000
     13 O         -39.6675  -34.8940  -23.7343 O.co2     1 UNL1       -0.5000
     14 H         -42.3059  -32.4290  -17.5934 H         1 UNL1        0.0000
     15 H         -42.6956  -32.6877  -19.2768 H         1 UNL1        0.0000
     16 H         -41.6459  -31.3691  -18.8165 H         1 UNL1        0.0000
     17 H         -38.0939  -34.1632  -18.2650 H         1 UNL1        0.0000
     18 H         -36.2982  -35.6797  -18.7500 H         1 UNL1        0.0000
     19 H         -36.1771  -36.6872  -20.9416 H         1 UNL1        0.0000
     20 H         -37.8359  -36.1730  -22.6104 H         1 UNL1        0.0000
@<TRIPOS>BOND
     1    1    2 1
     2    1   14 1
     3    1   15 1
     4    1   16 1
     5    2   10 2
     6    2   11 1
     7    3    4 ar
     8    3    8 ar
     9    3   11 1
    10    4    5 ar
    11    4   17 1
    12    5    6 ar
    13    5   18 1
    14    6    7 ar
    15    6   19 1
    16    7    8 ar
    17    7   20 1
    18    8    9 1
    19    9   12 ar
    20    9   13 ar
@<TRIPOS>SUBSTRUCTURE
1 UNL1 1
@<TRIPOS>COMMENT
aspirin
PLANTSproteinTorsions
102
1 160.5552
42 17.9457
151 87.2412
173 137.3423
432 77.4066
491 177.5645
531 210.0367
563 280.0121
572 154.9010
629 148.2222
730 33.4057
826 172.6617
895 326.7852
921 288.6582
954 31.3879
1044 26.4283
1258 250.2670
1480 217.4599
1534 166.1002
1612 223.0262
1654 293.2324
1680 35.9193
1704 40.7237
1767 152.7103
1795 89.3464
1847 277.0400
1879 63.8056
1921 174.6713
1944 18.3616
1966 156.0072
1975 14.3821
2067 116.2337
2118 88.7739
2167 139.1292
2220 344.5082
2243 52.4568
2272 49.2122
2294 225.8371
2609 86.1413
2728 141.9115
2931 72.2053
3031 102.7415
3044 156.9672
3058 252.7669
3085 240.6093
3166 61.3910
3188 165.6439
3496 242.0913
3614 4.8904
3656 21.1530
3697 281.9106
3722 101.3610
3847 38.7077
3888 35.9310
4051 148.5552
4174 265.1556
4734 187.7495
4804 41.0629
4952 140.1969
5093 155.8442
5103 231.4623
5144 246.4246
5332 216.5301
5363 156.0901
5457 5.9706
5683 3.6270
5900 354.7657
6049 20.1670
6089 186.8522
6125 80.5238
6181 143.1810
6190 228.6166
6214 129.2992
6331 45.5879
6344 143.5943
6432 75.3339
7006 92.9300
7253 330.3560
7344 314.1722
7385 194.0481
7394 155.8130
7408 73.1893
7540 264.3647
7948 269.0820
8021 202.0892
8226 223.6140
8265 73.8895
8391 206.5105
8443 137.5514
8487 118.1060
8515 37.3475
8527 115.7649
8693 177.5943
8705 317.6045
8731 220.3114
8771 165.8921
8793 65.7378
8887 180.3101
8910 205.7339
8921 25.7718
8973 60.5575
8998 234.7625
PLANTSmolcadARTstart hb
PLANTSmolcadARTstart HB
LINES
PLANTSmolcadARTstart HBCH
LINES
PLANTSmolcadARTstart HB-CHO
LINES
PLANTSmolcadARTend
PLANTSmolcadARTstart HB_WATER
LINES
PLANTSmolcadARTend

PLANTSmolcadARTend

