@<TRIPOS>MOLECULE
aspirin_entry_00001_conf_92
20 20 1
SMALL
NO_CHARGES


@<TRIPOS>ATOM
      1 C         -14.2115  -56.3435    1.5565 C.3       1 UNL1        0.0000
      2 C         -14.5246  -55.8438    0.1937 C.2       1 UNL1        0.0000
      3 C         -15.8444  -55.9894   -1.8506 C.ar      1 UNL1        0.0000
      4 C         -16.4325  -54.7719   -2.1205 C.ar      1 UNL1        0.0000
      5 C         -16.8039  -54.3702   -3.3883 C.ar      1 UNL1        0.0000
      6 C         -16.5737  -55.2302   -4.4347 C.ar      1 UNL1        0.0000
      7 C         -15.9892  -56.4595   -4.2208 C.ar      1 UNL1        0.0000
      8 C         -15.6272  -56.8301   -2.9249 C.ar      1 UNL1        0.0000
      9 C         -15.0116  -58.1391   -2.7424 C.2       1 UNL1        0.0000
     10 O         -13.9415  -54.8391   -0.3155 O.2       1 UNL1        0.0000
     11 O         -15.4609  -56.4278   -0.6121 O.3       1 UNL1        0.0000
     12 O         -15.0333  -58.9980   -3.6607 O.co2     1 UNL1       -0.5000
     13 O         -14.3848  -58.4862   -1.5574 O.co2     1 UNL1       -0.5000
     14 H         -13.4503  -55.7317    1.9937 H         1 UNL1        0.0000
     15 H         -13.8652  -57.3538    1.4947 H         1 UNL1        0.0000
     16 H         -15.0929  -56.3048    2.1614 H         1 UNL1        0.0000
     17 H         -16.6040  -54.1269   -1.3337 H         1 UNL1        0.0000
     18 H         -17.2416  -53.4484   -3.5456 H         1 UNL1        0.0000
     19 H         -16.8420  -54.9531   -5.3919 H         1 UNL1        0.0000
     20 H         -15.8192  -57.1003   -5.0121 H         1 UNL1        0.0000
@<TRIPOS>BOND
     1    1    2 1
     2    1   14 1
     3    1   15 1
     4    1   16 1
     5    2   10 2
     6    2   11 1
     7    3    4 ar
     8    3    8 ar
     9    3   11 1
    10    4    5 ar
    11    4   17 1
    12    5    6 ar
    13    5   18 1
    14    6    7 ar
    15    6   19 1
    16    7    8 ar
    17    7   20 1
    18    8    9 1
    19    9   12 ar
    20    9   13 ar
@<TRIPOS>SUBSTRUCTURE
1 UNL1 1
@<TRIPOS>COMMENT
aspirin
PLANTSproteinTorsions
102
1 174.4831
42 110.6858
151 87.0439
173 138.1811
432 26.3087
491 40.7236
531 66.1562
563 129.0492
572 68.5648
629 98.4417
730 246.3317
826 336.5684
895 28.6383
921 336.8636
954 136.6112
1044 69.4656
1258 151.6375
1480 12.2214
1534 151.6210
1612 25.9790
1654 146.0930
1680 287.3640
1704 52.6544
1767 191.2467
1795 176.0958
1847 19.5718
1879 165.7973
1921 329.1189
1944 67.8996
1966 169.4053
1975 356.0424
2067 302.7101
2118 172.7780
2167 340.9800
2220 4.7171
2243 107.7092
2272 54.9434
2294 354.1708
2609 82.8271
2728 75.4946
2931 71.4832
3031 329.6045
3044 251.5479
3058 220.8204
3085 296.8099
3166 34.5603
3188 276.7549
3496 267.9254
3614 81.7959
3656 76.4278
3697 59.1479
3722 227.5368
3847 35.6178
3888 115.3305
4051 258.3329
4174 171.8802
4734 64.5227
4804 273.6932
4952 112.3274
5093 110.7515
5103 32.8327
5144 137.2074
5332 168.6829
5363 98.5974
5457 117.3686
5683 27.4540
5900 351.3003
6049 180.9584
6089 20.5975
6125 23.9556
6181 323.1357
6190 181.7163
6214 348.1562
6331 118.1815
6344 295.8222
6432 125.3099
7006 284.9389
7253 260.9370
7344 186.0114
7385 253.3461
7394 299.7154
7408 259.9786
7540 303.3113
7948 229.9599
8021 204.6977
8226 94.6668
8265 106.7150
8391 236.6069
8443 66.1674
8487 74.0815
8515 238.7539
8527 105.0572
8693 248.0074
8705 293.4579
8731 290.8256
8771 61.2150
8793 52.2390
8887 159.6401
8910 103.3230
8921 258.2349
8973 169.9878
8998 214.4543
PLANTSmolcadARTstart hb
PLANTSmolcadARTstart HB
LINES
-15.0333 -58.998 -3.66074 -16.4276 -58.547 -5.08257 0 255 0 5
PLANTSmolcadARTstart HBCH
LINES
PLANTSmolcadARTstart HB-CHO
LINES
PLANTSmolcadARTend
PLANTSmolcadARTstart HB_WATER
LINES
PLANTSmolcadARTend

PLANTSmolcadARTend

