@<TRIPOS>MOLECULE
aspirin_entry_00001_conf_49
20 20 1
SMALL
NO_CHARGES


@<TRIPOS>ATOM
      1 C          -2.7912  -66.4016    4.4912 C.3       1 UNL1        0.0000
      2 C          -1.5402  -65.7726    3.9969 C.2       1 UNL1        0.0000
      3 C          -2.3655  -63.4804    4.0814 C.ar      1 UNL1        0.0000
      4 C          -3.7157  -63.6234    3.8421 C.ar      1 UNL1        0.0000
      5 C          -4.6466  -62.6428    4.1224 C.ar      1 UNL1        0.0000
      6 C          -4.2018  -61.4635    4.6692 C.ar      1 UNL1        0.0000
      7 C          -2.8628  -61.2678    4.9281 C.ar      1 UNL1        0.0000
      8 C          -1.9519  -62.2827    4.6314 C.ar      1 UNL1        0.0000
      9 C          -0.5446  -62.0349    4.9210 C.2       1 UNL1        0.0000
     10 O          -0.5067  -66.4471    3.7042 O.2       1 UNL1        0.0000
     11 O          -1.4093  -64.4241    3.8198 O.3       1 UNL1        0.0000
     12 O          -0.1586  -60.9158    5.3452 O.co2     1 UNL1       -0.5000
     13 O           0.4162  -63.0155    4.7393 O.co2     1 UNL1       -0.5000
     14 H          -2.6582  -67.4618    4.5479 H         1 UNL1        0.0000
     15 H          -3.5924  -66.1782    3.8183 H         1 UNL1        0.0000
     16 H          -3.0234  -66.0178    5.4623 H         1 UNL1        0.0000
     17 H          -4.0483  -64.5099    3.4322 H         1 UNL1        0.0000
     18 H          -5.6494  -62.7922    3.9274 H         1 UNL1        0.0000
     19 H          -4.8779  -60.7151    4.8880 H         1 UNL1        0.0000
     20 H          -2.5360  -60.3790    5.3392 H         1 UNL1        0.0000
@<TRIPOS>BOND
     1    1    2 1
     2    1   14 1
     3    1   15 1
     4    1   16 1
     5    2   10 2
     6    2   11 1
     7    3    4 ar
     8    3    8 ar
     9    3   11 1
    10    4    5 ar
    11    4   17 1
    12    5    6 ar
    13    5   18 1
    14    6    7 ar
    15    6   19 1
    16    7    8 ar
    17    7   20 1
    18    8    9 1
    19    9   12 ar
    20    9   13 ar
@<TRIPOS>SUBSTRUCTURE
1 UNL1 1
@<TRIPOS>COMMENT
aspirin
PLANTSproteinTorsions
102
1 109.8686
42 153.7513
151 77.9201
173 86.0994
432 64.3932
491 57.1050
531 1.0905
563 21.7156
572 86.9928
629 88.7114
730 34.8736
826 149.6208
895 174.2335
921 53.3710
954 26.9608
1044 109.8794
1258 20.0397
1480 260.9960
1534 171.2020
1612 24.6130
1654 60.2463
1680 227.7309
1704 114.8947
1767 81.0457
1795 102.3561
1847 144.3919
1879 88.0416
1921 73.7690
1944 14.3700
1966 148.6738
1975 276.2252
2067 61.3142
2118 212.4259
2167 106.1246
2220 235.6948
2243 71.3149
2272 48.0413
2294 82.9642
2609 81.8053
2728 231.5347
2931 186.3275
3031 220.5466
3044 5.5770
3058 225.2931
3085 26.5447
3166 244.1421
3188 87.2672
3496 239.8459
3614 176.3308
3656 27.6294
3697 6.8302
3722 210.6053
3847 96.3728
3888 350.4125
4051 58.2677
4174 192.5464
4734 105.5620
4804 227.8031
4952 74.8490
5093 257.8961
5103 228.0552
5144 3.3988
5332 15.6353
5363 9.8958
5457 151.3846
5683 131.1364
5900 186.3287
6049 57.9442
6089 276.2549
6125 64.3546
6181 185.4144
6190 287.3820
6214 202.1227
6331 47.8830
6344 264.1701
6432 127.4556
7006 114.5523
7253 1.8820
7344 240.0054
7385 67.1865
7394 231.6654
7408 338.3770
7540 206.3328
7948 141.1925
8021 95.0003
8226 267.6238
8265 18.1719
8391 234.7070
8443 137.0699
8487 169.6232
8515 81.7641
8527 143.4777
8693 270.0468
8705 211.4006
8731 238.6074
8771 179.0307
8793 150.2822
8887 215.4812
8910 227.5630
8921 308.7959
8973 127.7925
8998 107.2915
PLANTSmolcadARTstart hb
PLANTSmolcadARTstart HB
LINES
PLANTSmolcadARTstart HBCH
LINES
PLANTSmolcadARTstart HB-CHO
LINES
PLANTSmolcadARTend
PLANTSmolcadARTstart HB_WATER
LINES
PLANTSmolcadARTend

PLANTSmolcadARTend

