@<TRIPOS>MOLECULE
aspirin_entry_00001_conf_67
20 20 1
SMALL
NO_CHARGES


@<TRIPOS>ATOM
      1 C          -2.3484  -58.1213    6.3950 C.3       1 UNL1        0.0000
      2 C          -2.9379  -58.9818    5.3382 C.2       1 UNL1        0.0000
      3 C          -3.0274  -61.0082    6.6903 C.ar      1 UNL1        0.0000
      4 C          -3.2275  -60.5319    7.9687 C.ar      1 UNL1        0.0000
      5 C          -3.0024  -61.2835    9.1050 C.ar      1 UNL1        0.0000
      6 C          -2.5563  -62.5738    8.9514 C.ar      1 UNL1        0.0000
      7 C          -2.3393  -63.0996    7.6965 C.ar      1 UNL1        0.0000
      8 C          -2.5785  -62.3091    6.5714 C.ar      1 UNL1        0.0000
      9 C          -2.3364  -62.9039    5.2625 C.2       1 UNL1        0.0000
     10 O          -3.2029  -58.5500    4.1755 O.2       1 UNL1        0.0000
     11 O          -3.2373  -60.2999    5.5382 O.3       1 UNL1        0.0000
     12 O          -2.1532  -64.1418    5.1382 O.co2     1 UNL1       -0.5000
     13 O          -2.2969  -62.1334    4.1126 O.co2     1 UNL1       -0.5000
     14 H          -2.2014  -57.1341    6.0093 H         1 UNL1        0.0000
     15 H          -1.4076  -58.5278    6.7020 H         1 UNL1        0.0000
     16 H          -3.0111  -58.0826    7.2339 H         1 UNL1        0.0000
     17 H          -3.5633  -59.5630    8.0823 H         1 UNL1        0.0000
     18 H          -3.1658  -60.8869   10.0441 H         1 UNL1        0.0000
     19 H          -2.3808  -63.1561    9.7853 H         1 UNL1        0.0000
     20 H          -2.0042  -64.0701    7.5890 H         1 UNL1        0.0000
@<TRIPOS>BOND
     1    1    2 1
     2    1   14 1
     3    1   15 1
     4    1   16 1
     5    2   10 2
     6    2   11 1
     7    3    4 ar
     8    3    8 ar
     9    3   11 1
    10    4    5 ar
    11    4   17 1
    12    5    6 ar
    13    5   18 1
    14    6    7 ar
    15    6   19 1
    16    7    8 ar
    17    7   20 1
    18    8    9 1
    19    9   12 ar
    20    9   13 ar
@<TRIPOS>SUBSTRUCTURE
1 UNL1 1
@<TRIPOS>COMMENT
aspirin
PLANTSproteinTorsions
102
1 181.3620
42 169.9469
151 119.2355
173 96.4914
432 108.1557
491 311.0591
531 103.5054
563 74.6276
572 260.6069
629 43.1645
730 342.1569
826 88.7499
895 169.7021
921 131.4976
954 37.2740
1044 308.8433
1258 226.6461
1480 261.5657
1534 172.4598
1612 26.4038
1654 331.2364
1680 159.9886
1704 253.8863
1767 91.4257
1795 349.2344
1847 33.8217
1879 89.4639
1921 107.7540
1944 12.8386
1966 152.1536
1975 231.5666
2067 228.5034
2118 118.2396
2167 86.4126
2220 54.1882
2243 47.2143
2272 168.8221
2294 22.0483
2609 282.8012
2728 209.0207
2931 105.1426
3031 28.7658
3044 280.5300
3058 214.5772
3085 18.0530
3166 209.9242
3188 206.3390
3496 146.9983
3614 189.4833
3656 17.3390
3697 170.0447
3722 120.8983
3847 28.8424
3888 8.5972
4051 271.0771
4174 14.8506
4734 228.3324
4804 113.5438
4952 284.2113
5093 199.7231
5103 284.8156
5144 110.6635
5332 72.0769
5363 170.6794
5457 224.5533
5683 149.4318
5900 2.8752
6049 135.4084
6089 16.8861
6125 129.0605
6181 226.7284
6190 285.6976
6214 68.6084
6331 97.5416
6344 264.6340
6432 114.9821
7006 201.9247
7253 116.4490
7344 257.0216
7385 349.1804
7394 249.9029
7408 89.1944
7540 159.6366
7948 19.3832
8021 89.6446
8226 253.7252
8265 240.9922
8391 69.1343
8443 268.9695
8487 298.2701
8515 201.8059
8527 130.7571
8693 251.9070
8705 266.4878
8731 190.4656
8771 104.3359
8793 235.9830
8887 85.8617
8910 191.3171
8921 48.2447
8973 258.0267
8998 78.6720
PLANTSmolcadARTstart hb
PLANTSmolcadARTstart HB
LINES
-3.20291 -58.55 4.17549 -2.6533 -59.6512 2.71683 0 255 0 5
-3.20291 -58.55 4.17549 -2.63 -56.738 3.648 0 255 0 5
PLANTSmolcadARTstart HBCH
LINES
PLANTSmolcadARTstart HB-CHO
LINES
PLANTSmolcadARTend
PLANTSmolcadARTstart HB_WATER
LINES
PLANTSmolcadARTend

PLANTSmolcadARTend

