@<TRIPOS>MOLECULE
aspirin_entry_00001_conf_43
20 20 1
SMALL
NO_CHARGES


@<TRIPOS>ATOM
      1 C         -12.7794  -44.3598   -2.9746 C.3       1 UNL1        0.0000
      2 C         -13.0354  -44.4383   -1.5141 C.2       1 UNL1        0.0000
      3 C         -13.4303  -45.7739    0.4865 C.ar      1 UNL1        0.0000
      4 C         -12.8713  -44.9936    1.4762 C.ar      1 UNL1        0.0000
      5 C         -13.1127  -45.1830    2.8225 C.ar      1 UNL1        0.0000
      6 C         -13.9553  -46.2027    3.1932 C.ar      1 UNL1        0.0000
      7 C         -14.5406  -47.0131    2.2449 C.ar      1 UNL1        0.0000
      8 C         -14.2726  -46.7904    0.8934 C.ar      1 UNL1        0.0000
      9 C         -14.9121  -47.6704   -0.0773 C.2       1 UNL1        0.0000
     10 O         -13.1015  -43.4086   -0.7765 O.2       1 UNL1        0.0000
     11 O         -13.2193  -45.6222   -0.8572 O.3       1 UNL1        0.0000
     12 O         -14.4799  -47.7572   -1.2551 O.co2     1 UNL1       -0.5000
     13 O         -16.0147  -48.4385    0.2572 O.co2     1 UNL1       -0.5000
     14 H         -12.6694  -43.3351   -3.2621 H         1 UNL1        0.0000
     15 H         -13.6021  -44.7924   -3.5043 H         1 UNL1        0.0000
     16 H         -11.8833  -44.8951   -3.2086 H         1 UNL1        0.0000
     17 H         -12.2393  -44.2276    1.1961 H         1 UNL1        0.0000
     18 H         -12.6728  -44.5742    3.5310 H         1 UNL1        0.0000
     19 H         -14.1521  -46.3646    4.1933 H         1 UNL1        0.0000
     20 H         -15.1728  -47.7773    2.5311 H         1 UNL1        0.0000
@<TRIPOS>BOND
     1    1    2 1
     2    1   14 1
     3    1   15 1
     4    1   16 1
     5    2   10 2
     6    2   11 1
     7    3    4 ar
     8    3    8 ar
     9    3   11 1
    10    4    5 ar
    11    4   17 1
    12    5    6 ar
    13    5   18 1
    14    6    7 ar
    15    6   19 1
    16    7    8 ar
    17    7   20 1
    18    8    9 1
    19    9   12 ar
    20    9   13 ar
@<TRIPOS>SUBSTRUCTURE
1 UNL1 1
@<TRIPOS>COMMENT
aspirin
PLANTSproteinTorsions
102
1 12.3615
42 151.4967
151 13.1921
173 145.5452
432 62.8960
491 346.0584
531 6.1273
563 162.3459
572 166.3463
629 190.5192
730 188.5534
826 324.9782
895 351.5219
921 137.7895
954 64.0060
1044 171.2061
1258 233.1043
1480 292.9792
1534 93.7524
1612 3.3113
1654 65.1574
1680 257.9842
1704 11.6739
1767 71.7343
1795 89.0416
1847 296.0051
1879 116.2661
1921 345.9594
1944 66.6437
1966 340.5387
1975 5.0050
2067 94.6554
2118 212.6981
2167 239.3881
2220 60.8789
2243 304.7656
2272 230.3767
2294 135.9597
2609 98.6838
2728 165.4555
2931 212.4144
3031 316.3882
3044 173.8037
3058 191.8511
3085 33.6554
3166 356.2329
3188 305.9961
3496 64.6896
3614 53.8480
3656 61.5547
3697 37.1816
3722 270.0844
3847 349.6711
3888 110.0372
4051 102.3171
4174 98.3627
4734 151.4837
4804 80.9068
4952 8.0514
5093 46.4233
5103 36.9465
5144 328.0300
5332 134.9160
5363 304.8984
5457 192.1084
5683 112.4958
5900 181.3928
6049 235.9823
6089 276.2828
6125 105.1012
6181 33.2977
6190 244.0824
6214 6.7686
6331 242.2726
6344 266.4205
6432 148.5176
7006 128.5648
7253 199.4283
7344 132.6937
7385 204.6854
7394 93.2531
7408 73.3875
7540 282.9110
7948 281.8802
8021 202.7028
8226 144.0672
8265 88.8316
8391 339.7322
8443 94.7283
8487 85.7659
8515 277.5113
8527 181.5179
8693 166.8071
8705 162.8392
8731 227.8408
8771 149.0429
8793 18.3817
8887 109.4631
8910 129.2240
8921 72.4356
8973 183.4480
8998 211.4561
PLANTSmolcadARTstart hb
PLANTSmolcadARTstart HB
LINES
-16.0147 -48.4385 0.257163 -17.186 -48.736 -1.273 0 255 0 5
PLANTSmolcadARTstart HBCH
LINES
PLANTSmolcadARTstart HB-CHO
LINES
PLANTSmolcadARTend
PLANTSmolcadARTstart HB_WATER
LINES
PLANTSmolcadARTend

PLANTSmolcadARTend

