@<TRIPOS>MOLECULE
aspirin_entry_00001_conf_54
20 20 1
SMALL
NO_CHARGES


@<TRIPOS>ATOM
      1 C         -25.8031  -20.7850    9.4985 C.3       1 UNL1        0.0000
      2 C         -26.9301  -20.2337    8.7043 C.2       1 UNL1        0.0000
      3 C         -29.3067  -19.7386    8.4825 C.ar      1 UNL1        0.0000
      4 C         -29.4944  -19.8417    7.1205 C.ar      1 UNL1        0.0000
      5 C         -30.6148  -19.3662    6.4682 C.ar      1 UNL1        0.0000
      6 C         -31.5931  -18.7595    7.2179 C.ar      1 UNL1        0.0000
      7 C         -31.4561  -18.6296    8.5828 C.ar      1 UNL1        0.0000
      8 C         -30.3093  -19.1232    9.2065 C.ar      1 UNL1        0.0000
      9 C         -30.2040  -18.9654   10.6521 C.2       1 UNL1        0.0000
     10 O         -26.7759  -19.7614    7.5373 O.2       1 UNL1        0.0000
     11 O         -28.2144  -20.1948    9.1694 O.3       1 UNL1        0.0000
     12 O         -29.3662  -19.6279   11.3159 O.co2     1 UNL1       -0.5000
     13 O         -31.0186  -18.0868   11.3463 O.co2     1 UNL1       -0.5000
     14 H         -24.8985  -20.7106    8.9319 H         1 UNL1        0.0000
     15 H         -25.9971  -21.8120    9.7271 H         1 UNL1        0.0000
     16 H         -25.7026  -20.2300   10.4074 H         1 UNL1        0.0000
     17 H         -28.7591  -20.2983    6.5590 H         1 UNL1        0.0000
     18 H         -30.7148  -19.4650    5.4454 H         1 UNL1        0.0000
     19 H         -32.4403  -18.3960    6.7539 H         1 UNL1        0.0000
     20 H         -32.1956  -18.1726    9.1396 H         1 UNL1        0.0000
@<TRIPOS>BOND
     1    1    2 1
     2    1   14 1
     3    1   15 1
     4    1   16 1
     5    2   10 2
     6    2   11 1
     7    3    4 ar
     8    3    8 ar
     9    3   11 1
    10    4    5 ar
    11    4   17 1
    12    5    6 ar
    13    5   18 1
    14    6    7 ar
    15    6   19 1
    16    7    8 ar
    17    7   20 1
    18    8    9 1
    19    9   12 ar
    20    9   13 ar
@<TRIPOS>SUBSTRUCTURE
1 UNL1 1
@<TRIPOS>COMMENT
aspirin
PLANTSproteinTorsions
102
1 179.1977
42 4.4096
151 2.8104
173 96.2599
432 220.5680
491 19.4121
531 100.6948
563 301.9122
572 81.1028
629 324.0267
730 88.7027
826 80.5796
895 39.1784
921 257.2008
954 271.3044
1044 299.5294
1258 287.1010
1480 150.3294
1534 41.0087
1612 55.1936
1654 71.4132
1680 161.2199
1704 262.9207
1767 268.7657
1795 204.9153
1847 268.6110
1879 260.0344
1921 266.5848
1944 70.9475
1966 76.1385
1975 262.1180
2067 153.7265
2118 187.2394
2167 56.3460
2220 120.5285
2243 71.6252
2272 98.7649
2294 301.0757
2609 35.0143
2728 163.7609
2931 105.8801
3031 319.5486
3044 57.2437
3058 311.2463
3085 30.7824
3166 237.5876
3188 78.7238
3496 156.4523
3614 346.6877
3656 270.0017
3697 205.1267
3722 142.4035
3847 235.6618
3888 244.5496
4051 57.4396
4174 157.8280
4734 53.8488
4804 231.4718
4952 241.4216
5093 74.2600
5103 249.5035
5144 7.5283
5332 128.2345
5363 27.1910
5457 226.0348
5683 145.8349
5900 181.9152
6049 177.0213
6089 266.4977
6125 283.7377
6181 269.1408
6190 268.6715
6214 281.2266
6331 139.3604
6344 276.3924
6432 138.9544
7006 229.6691
7253 148.0471
7344 259.1046
7385 291.6889
7394 253.2234
7408 328.0095
7540 341.5332
7948 50.9279
8021 189.8417
8226 273.6600
8265 6.8710
8391 167.7988
8443 294.6193
8487 259.2062
8515 213.8396
8527 223.8214
8693 225.1984
8705 287.4116
8731 266.8406
8771 242.4000
8793 223.1580
8887 116.4328
8910 203.9146
8921 181.6711
8973 139.4953
8998 296.8465
PLANTSmolcadARTstart hb
PLANTSmolcadARTstart HB
LINES
PLANTSmolcadARTstart HBCH
LINES
PLANTSmolcadARTstart HB-CHO
LINES
PLANTSmolcadARTend
PLANTSmolcadARTstart HB_WATER
LINES
PLANTSmolcadARTend

PLANTSmolcadARTend

