@<TRIPOS>MOLECULE
aspirin_entry_00001_conf_65
20 20 1
SMALL
NO_CHARGES


@<TRIPOS>ATOM
      1 C           0.1197  -63.8268    4.5869 C.3       1 UNL1        0.0000
      2 C          -0.2163  -64.0174    6.0206 C.2       1 UNL1        0.0000
      3 C          -2.4132  -62.9673    5.9047 C.ar      1 UNL1        0.0000
      4 C          -2.8303  -63.2905    4.6309 C.ar      1 UNL1        0.0000
      5 C          -3.8810  -62.6627    3.9916 C.ar      1 UNL1        0.0000
      6 C          -4.5448  -61.6642    4.6622 C.ar      1 UNL1        0.0000
      7 C          -4.1689  -61.3010    5.9371 C.ar      1 UNL1        0.0000
      8 C          -3.1020  -61.9591    6.5506 C.ar      1 UNL1        0.0000
      9 C          -2.7366  -61.5443    7.8997 C.2       1 UNL1        0.0000
     10 O           0.5560  -64.6164    6.8289 O.2       1 UNL1        0.0000
     11 O          -1.3791  -63.5621    6.5754 O.3       1 UNL1        0.0000
     12 O          -3.4023  -60.6692    8.5101 O.co2     1 UNL1       -0.5000
     13 O          -1.6480  -62.0928    8.5567 O.co2     1 UNL1       -0.5000
     14 H           1.0751  -64.2639    4.3841 H         1 UNL1        0.0000
     15 H           0.1517  -62.7809    4.3644 H         1 UNL1        0.0000
     16 H          -0.6251  -64.2979    3.9806 H         1 UNL1        0.0000
     17 H          -2.3313  -64.0411    4.1289 H         1 UNL1        0.0000
     18 H          -4.1606  -62.9369    3.0363 H         1 UNL1        0.0000
     19 H          -5.3338  -61.1798    4.2061 H         1 UNL1        0.0000
     20 H          -4.6726  -60.5498    6.4348 H         1 UNL1        0.0000
@<TRIPOS>BOND
     1    1    2 1
     2    1   14 1
     3    1   15 1
     4    1   16 1
     5    2   10 2
     6    2   11 1
     7    3    4 ar
     8    3    8 ar
     9    3   11 1
    10    4    5 ar
    11    4   17 1
    12    5    6 ar
    13    5   18 1
    14    6    7 ar
    15    6   19 1
    16    7    8 ar
    17    7   20 1
    18    8    9 1
    19    9   12 ar
    20    9   13 ar
@<TRIPOS>SUBSTRUCTURE
1 UNL1 1
@<TRIPOS>COMMENT
aspirin
PLANTSproteinTorsions
102
1 220.7127
42 231.3505
151 47.6084
173 4.5156
432 213.0113
491 196.0360
531 326.3160
563 181.1865
572 88.6978
629 77.4999
730 237.5945
826 92.0788
895 341.5367
921 84.7781
954 338.9440
1044 351.9322
1258 54.3697
1480 80.2469
1534 55.8838
1612 159.9957
1654 273.4717
1680 52.8509
1704 88.9714
1767 354.3038
1795 238.2033
1847 149.5231
1879 129.3116
1921 314.5321
1944 50.8994
1966 94.9328
1975 228.7421
2067 244.0392
2118 55.6579
2167 99.3974
2220 98.8553
2243 226.2617
2272 52.7768
2294 43.2022
2609 323.7236
2728 112.5145
2931 188.4869
3031 257.1511
3044 9.2274
3058 199.2437
3085 165.3879
3166 256.4131
3188 299.7076
3496 221.6708
3614 29.9452
3656 284.0444
3697 68.4113
3722 33.4832
3847 161.1989
3888 92.5041
4051 102.0661
4174 181.9134
4734 28.5291
4804 5.3509
4952 304.1512
5093 164.1242
5103 108.1227
5144 44.5760
5332 35.6357
5363 236.8668
5457 190.0976
5683 138.8683
5900 83.9778
6049 115.9889
6089 186.9562
6125 49.4523
6181 144.0112
6190 69.9548
6214 224.6800
6331 105.9513
6344 246.9746
6432 282.6397
7006 111.5434
7253 151.6100
7344 262.4379
7385 62.4028
7394 245.1617
7408 73.1599
7540 176.7219
7948 276.3520
8021 175.0835
8226 121.1918
8265 136.2366
8391 181.5279
8443 12.2108
8487 300.9413
8515 158.6776
8527 165.5074
8693 89.3443
8705 243.7990
8731 285.5628
8771 239.7687
8793 96.6534
8887 73.1073
8910 88.0319
8921 29.4655
8973 150.2246
8998 230.7896
PLANTSmolcadARTstart hb
PLANTSmolcadARTstart HB
LINES
PLANTSmolcadARTstart HBCH
LINES
PLANTSmolcadARTstart HB-CHO
LINES
PLANTSmolcadARTend
PLANTSmolcadARTstart HB_WATER
LINES
PLANTSmolcadARTend

PLANTSmolcadARTend

