@<TRIPOS>MOLECULE
aspirin_entry_00001_conf_53
20 20 1
SMALL
NO_CHARGES


@<TRIPOS>ATOM
      1 C         -31.1178  -63.3290    1.0713 C.3       1 UNL1        0.0000
      2 C         -32.3468  -63.6158    1.8537 C.2       1 UNL1        0.0000
      3 C         -33.8340  -63.0784    3.7089 C.ar      1 UNL1        0.0000
      4 C         -35.0589  -63.4522    3.1982 C.ar      1 UNL1        0.0000
      5 C         -36.1936  -63.5982    3.9714 C.ar      1 UNL1        0.0000
      6 C         -36.0945  -63.3586    5.3205 C.ar      1 UNL1        0.0000
      7 C         -34.8944  -62.9819    5.8828 C.ar      1 UNL1        0.0000
      8 C         -33.7690  -62.8451    5.0688 C.ar      1 UNL1        0.0000
      9 C         -32.5191  -62.4449    5.7037 C.2       1 UNL1        0.0000
     10 O         -33.1663  -64.5273    1.5275 O.2       1 UNL1        0.0000
     11 O         -32.6856  -62.9220    2.9810 O.3       1 UNL1        0.0000
     12 O         -32.4785  -62.1550    6.9268 O.co2     1 UNL1       -0.5000
     13 O         -31.3357  -62.3669    4.9888 O.co2     1 UNL1       -0.5000
     14 H         -31.0635  -63.9961    0.2365 H         1 UNL1        0.0000
     15 H         -30.2588  -63.4665    1.6940 H         1 UNL1        0.0000
     16 H         -31.1462  -62.3188    0.7206 H         1 UNL1        0.0000
     17 H         -35.1315  -63.6326    2.1849 H         1 UNL1        0.0000
     18 H         -37.0916  -63.8806    3.5472 H         1 UNL1        0.0000
     19 H         -36.9283  -63.4611    5.9200 H         1 UNL1        0.0000
     20 H         -34.8275  -62.8037    6.8975 H         1 UNL1        0.0000
@<TRIPOS>BOND
     1    1    2 1
     2    1   14 1
     3    1   15 1
     4    1   16 1
     5    2   10 2
     6    2   11 1
     7    3    4 ar
     8    3    8 ar
     9    3   11 1
    10    4    5 ar
    11    4   17 1
    12    5    6 ar
    13    5   18 1
    14    6    7 ar
    15    6   19 1
    16    7    8 ar
    17    7   20 1
    18    8    9 1
    19    9   12 ar
    20    9   13 ar
@<TRIPOS>SUBSTRUCTURE
1 UNL1 1
@<TRIPOS>COMMENT
aspirin
PLANTSproteinTorsions
102
1 201.8577
42 6.1803
151 36.4588
173 25.7166
432 82.0105
491 115.1910
531 343.4238
563 183.7522
572 124.2699
629 163.0166
730 84.8562
826 180.5693
895 73.2036
921 211.5286
954 129.7964
1044 206.5540
1258 38.7991
1480 328.4074
1534 96.1232
1612 340.0285
1654 41.0246
1680 316.9244
1704 9.7156
1767 160.0409
1795 178.7048
1847 65.4712
1879 25.1468
1921 337.3774
1944 238.1268
1966 157.0065
1975 81.0783
2067 92.5219
2118 58.0547
2167 5.1761
2220 18.6892
2243 41.7106
2272 251.1261
2294 58.0936
2609 76.7235
2728 186.4520
2931 63.1365
3031 114.8371
3044 189.5447
3058 100.9166
3085 111.7870
3166 263.2756
3188 72.8662
3496 145.5418
3614 124.3597
3656 96.7573
3697 183.9422
3722 152.1679
3847 140.7882
3888 31.4842
4051 87.9016
4174 128.2063
4734 110.0339
4804 179.6429
4952 84.1337
5093 235.0996
5103 223.2155
5144 347.6683
5332 86.8762
5363 70.7228
5457 295.2381
5683 356.6316
5900 269.5539
6049 103.5843
6089 64.6516
6125 302.6348
6181 203.4149
6190 342.1869
6214 116.6080
6331 267.6030
6344 206.7870
6432 175.8374
7006 159.1098
7253 131.0637
7344 288.6707
7385 59.2102
7394 256.8808
7408 63.8121
7540 144.4554
7948 297.7766
8021 105.0137
8226 17.6215
8265 173.6125
8391 220.5850
8443 185.7502
8487 133.2231
8515 193.0565
8527 67.8977
8693 271.4800
8705 260.5880
8731 171.2818
8771 241.5690
8793 218.2554
8887 153.1659
8910 260.3801
8921 217.5758
8973 154.8733
8998 189.7070
PLANTSmolcadARTstart hb
PLANTSmolcadARTstart HB
LINES
-31.3357 -62.3669 4.98881 -30.4 -61.31 6.488 0 255 0 5
PLANTSmolcadARTstart HBCH
LINES
PLANTSmolcadARTstart HB-CHO
LINES
PLANTSmolcadARTend
PLANTSmolcadARTstart HB_WATER
LINES
PLANTSmolcadARTend

PLANTSmolcadARTend

