@<TRIPOS>MOLECULE
aspirin_entry_00001_conf_02
20 20 1
SMALL
NO_CHARGES


@<TRIPOS>ATOM
      1 C         -42.2854  -56.6280    5.3613 C.3       1 UNL1        0.0000
      2 C         -42.2639  -57.2857    6.6924 C.2       1 UNL1        0.0000
      3 C         -41.6998  -55.2779    7.9545 C.ar      1 UNL1        0.0000
      4 C         -40.9084  -54.5801    7.0670 C.ar      1 UNL1        0.0000
      5 C         -40.6022  -53.2413    7.2100 C.ar      1 UNL1        0.0000
      6 C         -41.1148  -52.5708    8.2940 C.ar      1 UNL1        0.0000
      7 C         -41.9111  -53.2202    9.2120 C.ar      1 UNL1        0.0000
      8 C         -42.1988  -54.5741    9.0333 C.ar      1 UNL1        0.0000
      9 C         -43.0451  -55.2231   10.0275 C.2       1 UNL1        0.0000
     10 O         -42.4623  -58.5294    6.8425 O.2       1 UNL1        0.0000
     11 O         -42.0285  -56.6025    7.8521 O.3       1 UNL1        0.0000
     12 O         -43.3160  -54.6552   11.1164 O.co2     1 UNL1       -0.5000
     13 O         -43.5784  -56.4830    9.8138 O.co2     1 UNL1       -0.5000
     14 H         -42.4871  -57.3590    4.6064 H         1 UNL1        0.0000
     15 H         -41.3353  -56.1737    5.1730 H         1 UNL1        0.0000
     16 H         -43.0485  -55.8785    5.3465 H         1 UNL1        0.0000
     17 H         -40.5249  -55.0848    6.2529 H         1 UNL1        0.0000
     18 H         -40.0053  -52.7572    6.5205 H         1 UNL1        0.0000
     19 H         -40.9007  -51.5695    8.4232 H         1 UNL1        0.0000
     20 H         -42.2927  -52.7097   10.0241 H         1 UNL1        0.0000
@<TRIPOS>BOND
     1    1    2 1
     2    1   14 1
     3    1   15 1
     4    1   16 1
     5    2   10 2
     6    2   11 1
     7    3    4 ar
     8    3    8 ar
     9    3   11 1
    10    4    5 ar
    11    4   17 1
    12    5    6 ar
    13    5   18 1
    14    6    7 ar
    15    6   19 1
    16    7    8 ar
    17    7   20 1
    18    8    9 1
    19    9   12 ar
    20    9   13 ar
@<TRIPOS>SUBSTRUCTURE
1 UNL1 1
@<TRIPOS>COMMENT
aspirin
PLANTSproteinTorsions
102
1 34.3061
42 127.8834
151 199.5187
173 44.7486
432 104.5610
491 121.1395
531 185.9905
563 130.3589
572 108.1909
629 35.1038
730 186.5615
826 16.6121
895 15.8380
921 30.8469
954 40.4603
1044 44.3048
1258 157.0094
1480 345.3931
1534 44.2931
1612 80.6220
1654 205.3192
1680 225.6066
1704 243.8356
1767 72.6151
1795 25.6275
1847 59.1632
1879 106.9481
1921 103.1836
1944 49.0398
1966 262.8411
1975 138.9207
2067 239.7901
2118 124.5782
2167 253.7865
2220 177.0697
2243 228.7302
2272 53.7281
2294 43.5505
2609 207.1135
2728 164.0412
2931 77.4282
3031 253.8182
3044 268.7742
3058 166.7860
3085 182.5056
3166 30.1835
3188 323.2665
3496 198.1780
3614 53.7777
3656 119.8505
3697 135.4559
3722 14.1223
3847 75.4718
3888 237.5425
4051 104.5816
4174 179.2633
4734 233.0989
4804 268.5569
4952 223.6458
5093 121.1192
5103 95.7748
5144 268.5662
5332 226.5581
5363 1.4372
5457 269.5309
5683 319.5655
5900 54.1075
6049 208.3533
6089 134.8239
6125 142.1034
6181 94.7001
6190 143.5556
6214 103.2134
6331 75.5947
6344 273.4143
6432 236.7352
7006 245.6895
7253 125.7288
7344 195.9090
7385 153.2474
7394 171.1207
7408 258.7415
7540 246.0462
7948 309.2935
8021 199.7832
8226 267.2407
8265 180.9020
8391 269.5329
8443 247.4858
8487 228.0804
8515 146.5232
8527 98.3124
8693 266.0217
8705 149.8625
8731 239.7219
8771 262.1785
8793 269.7180
8887 219.9776
8910 268.7465
8921 177.2548
8973 164.6087
8998 238.0777
PLANTSmolcadARTstart hb
PLANTSmolcadARTstart HB
LINES
-43.5784 -56.483 9.81378 -42.471 -57.987 11.235 0 255 0 5
PLANTSmolcadARTstart HBCH
LINES
PLANTSmolcadARTstart HB-CHO
LINES
-42.4623 -58.5294 6.84249 -43.2 -58.952 4.492 0 255 255 5
-42.4623 -58.5294 6.84249 -41.89 -59.24 9.17 0 255 255 5
PLANTSmolcadARTend
PLANTSmolcadARTstart HB_WATER
LINES
PLANTSmolcadARTend

PLANTSmolcadARTend

