@<TRIPOS>MOLECULE
aspirin_entry_00001_conf_18
20 20 1
SMALL
NO_CHARGES


@<TRIPOS>ATOM
      1 C         -44.7606  -37.7443    7.1151 C.3       1 UNL1        0.0000
      2 C         -45.3084  -37.3303    8.4317 C.2       1 UNL1        0.0000
      3 C         -43.6599  -35.5840    8.8503 C.ar      1 UNL1        0.0000
      4 C         -42.5409  -36.0292    8.1791 C.ar      1 UNL1        0.0000
      5 C         -41.4774  -35.2133    7.8471 C.ar      1 UNL1        0.0000
      6 C         -41.5400  -33.8884    8.2049 C.ar      1 UNL1        0.0000
      7 C         -42.6349  -33.3911    8.8775 C.ar      1 UNL1        0.0000
      8 C         -43.6908  -34.2468    9.1953 C.ar      1 UNL1        0.0000
      9 C         -44.8300  -33.6804    9.9072 C.2       1 UNL1        0.0000
     10 O         -46.3477  -37.8558    8.9342 O.2       1 UNL1        0.0000
     11 O         -44.7351  -36.3558    9.1989 O.3       1 UNL1        0.0000
     12 O         -44.9555  -32.4363   10.0417 O.co2     1 UNL1       -0.5000
     13 O         -45.8112  -34.4853   10.4614 O.co2     1 UNL1       -0.5000
     14 H         -45.3725  -38.5191    6.7027 H         1 UNL1        0.0000
     15 H         -43.7626  -38.1081    7.2429 H         1 UNL1        0.0000
     16 H         -44.7520  -36.9044    6.4527 H         1 UNL1        0.0000
     17 H         -42.4958  -37.0243    7.9104 H         1 UNL1        0.0000
     18 H         -40.6583  -35.5887    7.3431 H         1 UNL1        0.0000
     19 H         -40.7580  -33.2580    7.9680 H         1 UNL1        0.0000
     20 H         -42.6749  -32.3943    9.1429 H         1 UNL1        0.0000
@<TRIPOS>BOND
     1    1    2 1
     2    1   14 1
     3    1   15 1
     4    1   16 1
     5    2   10 2
     6    2   11 1
     7    3    4 ar
     8    3    8 ar
     9    3   11 1
    10    4    5 ar
    11    4   17 1
    12    5    6 ar
    13    5   18 1
    14    6    7 ar
    15    6   19 1
    16    7    8 ar
    17    7   20 1
    18    8    9 1
    19    9   12 ar
    20    9   13 ar
@<TRIPOS>SUBSTRUCTURE
1 UNL1 1
@<TRIPOS>COMMENT
aspirin
PLANTSproteinTorsions
102
1 200.6407
42 123.6814
151 39.6754
173 122.5646
432 161.8376
491 219.1536
531 51.4316
563 126.7381
572 101.3733
629 41.1199
730 191.8387
826 10.9941
895 351.9876
921 354.0126
954 115.1853
1044 77.0958
1258 137.1374
1480 127.7521
1534 42.7309
1612 59.5709
1654 163.9212
1680 233.8895
1704 239.6022
1767 46.0720
1795 15.7019
1847 328.0826
1879 193.4903
1921 102.7863
1944 355.4814
1966 40.4682
1975 202.8158
2067 13.5971
2118 152.6380
2167 239.0671
2220 189.8459
2243 174.8287
2272 83.7672
2294 124.9979
2609 242.4386
2728 92.0369
2931 176.4057
3031 123.5432
3044 106.2627
3058 148.2926
3085 231.9453
3166 355.3030
3188 234.9335
3496 158.1870
3614 19.8420
3656 119.6030
3697 261.1249
3722 11.7624
3847 69.8161
3888 113.3209
4051 28.5587
4174 246.9407
4734 229.3761
4804 70.2706
4952 323.6318
5093 159.9410
5103 60.7237
5144 174.7136
5332 318.8298
5363 49.3440
5457 187.0219
5683 215.2332
5900 109.8809
6049 334.4976
6089 230.9374
6125 111.1632
6181 123.7711
6190 265.7723
6214 272.4910
6331 55.4394
6344 121.2638
6432 27.8516
7006 71.8783
7253 68.5582
7344 87.7337
7385 267.6990
7394 319.1422
7408 233.2364
7540 254.5477
7948 60.6795
8021 253.1914
8226 18.7981
8265 60.1793
8391 11.8291
8443 219.0898
8487 213.6669
8515 174.2784
8527 273.2162
8693 114.9306
8705 44.4355
8731 212.3097
8771 276.8067
8793 239.2534
8887 194.8898
8910 105.1085
8921 205.1893
8973 140.0676
8998 302.8885
PLANTSmolcadARTstart hb
PLANTSmolcadARTstart HB
LINES
-46.3477 -37.8558 8.93418 -47.597 -39.254 8.287 0 255 0 5
PLANTSmolcadARTstart HBCH
LINES
-45.8112 -34.4853 10.4614 -45.579 -34.804 12.524 255 0 0 5
PLANTSmolcadARTstart HB-CHO
LINES
PLANTSmolcadARTend
PLANTSmolcadARTstart HB_WATER
LINES
PLANTSmolcadARTend

PLANTSmolcadARTend

