@<TRIPOS>MOLECULE
aspirin_entry_00001_conf_31
20 20 1
SMALL
NO_CHARGES


@<TRIPOS>ATOM
      1 C         -39.4298  -63.3027    3.0617 C.3       1 UNL1        0.0000
      2 C         -39.2134  -62.1560    3.9799 C.2       1 UNL1        0.0000
      3 C         -39.4800  -59.7874    4.4906 C.ar      1 UNL1        0.0000
      4 C         -38.5651  -58.7881    4.2348 C.ar      1 UNL1        0.0000
      5 C         -38.3989  -57.6824    5.0452 C.ar      1 UNL1        0.0000
      6 C         -39.1883  -57.5739    6.1643 C.ar      1 UNL1        0.0000
      7 C         -40.1184  -58.5443    6.4672 C.ar      1 UNL1        0.0000
      8 C         -40.2576  -59.6474    5.6236 C.ar      1 UNL1        0.0000
      9 C         -41.2531  -60.6510    5.9805 C.2       1 UNL1        0.0000
     10 O         -38.5801  -62.2672    5.0732 O.2       1 UNL1        0.0000
     11 O         -39.6781  -60.8984    3.7163 O.3       1 UNL1        0.0000
     12 O         -41.7572  -60.6814    7.1323 O.co2     1 UNL1       -0.5000
     13 O         -41.6783  -61.6052    5.0715 O.co2     1 UNL1       -0.5000
     14 H         -38.9778  -64.1800    3.4751 H         1 UNL1        0.0000
     15 H         -38.9869  -63.0872    2.1120 H         1 UNL1        0.0000
     16 H         -40.4796  -63.4661    2.9370 H         1 UNL1        0.0000
     17 H         -37.9735  -58.8707    3.3936 H         1 UNL1        0.0000
     18 H         -37.7012  -56.9568    4.8157 H         1 UNL1        0.0000
     19 H         -39.0835  -56.7568    6.7859 H         1 UNL1        0.0000
     20 H         -40.7082  -58.4559    7.3099 H         1 UNL1        0.0000
@<TRIPOS>BOND
     1    1    2 1
     2    1   14 1
     3    1   15 1
     4    1   16 1
     5    2   10 2
     6    2   11 1
     7    3    4 ar
     8    3    8 ar
     9    3   11 1
    10    4    5 ar
    11    4   17 1
    12    5    6 ar
    13    5   18 1
    14    6    7 ar
    15    6   19 1
    16    7    8 ar
    17    7   20 1
    18    8    9 1
    19    9   12 ar
    20    9   13 ar
@<TRIPOS>SUBSTRUCTURE
1 UNL1 1
@<TRIPOS>COMMENT
aspirin
PLANTSproteinTorsions
102
1 165.9910
42 31.8602
151 81.7562
173 109.0066
432 236.5951
491 58.2088
531 271.3149
563 249.7377
572 282.5803
629 118.3739
730 73.7059
826 179.3538
895 127.8582
921 68.9886
954 154.3064
1044 314.2838
1258 83.1420
1480 67.1964
1534 171.6428
1612 333.4283
1654 257.9677
1680 67.6809
1704 208.0061
1767 274.0083
1795 190.0464
1847 137.2401
1879 113.0399
1921 186.2703
1944 171.2919
1966 121.7803
1975 88.6890
2067 315.2253
2118 17.5856
2167 70.6819
2220 4.2336
2243 202.3017
2272 80.2172
2294 47.5066
2609 92.9546
2728 288.3584
2931 180.9559
3031 5.0651
3044 112.8992
3058 223.7308
3085 33.0743
3166 213.0243
3188 41.1367
3496 277.0627
3614 99.3846
3656 31.9116
3697 252.8993
3722 84.7375
3847 199.0230
3888 81.2875
4051 16.3793
4174 70.2747
4734 175.2463
4804 292.1490
4952 204.8158
5093 201.3617
5103 44.6621
5144 30.3824
5332 111.7429
5363 59.9477
5457 255.5926
5683 247.4477
5900 41.2307
6049 72.0353
6089 133.2303
6125 46.3470
6181 118.8563
6190 76.7679
6214 146.9248
6331 115.1085
6344 69.2165
6432 219.1967
7006 182.4970
7253 142.1549
7344 202.7822
7385 90.4598
7394 275.5884
7408 69.7108
7540 239.8759
7948 25.6646
8021 162.4462
8226 95.6327
8265 317.1273
8391 166.5026
8443 101.8849
8487 249.8119
8515 16.2299
8527 200.5849
8693 103.8777
8705 258.6826
8731 291.2060
8771 263.2748
8793 139.9912
8887 185.5979
8910 151.3624
8921 100.1122
8973 54.3082
8998 158.9014
PLANTSmolcadARTstart hb
PLANTSmolcadARTstart HB
LINES
PLANTSmolcadARTstart HBCH
LINES
PLANTSmolcadARTstart HB-CHO
LINES
-38.5801 -62.2672 5.0732 -37.486 -61.093 6.901 0 255 255 5
-41.7572 -60.6814 7.13226 -41.89 -59.24 9.17 0 255 255 5
PLANTSmolcadARTend
PLANTSmolcadARTstart HB_WATER
LINES
PLANTSmolcadARTend

PLANTSmolcadARTend

