@<TRIPOS>MOLECULE
aspirin_entry_00001_conf_10
20 20 1
SMALL
NO_CHARGES


@<TRIPOS>ATOM
      1 C         -40.4182  -57.8513    6.4683 C.3       1 UNL1        0.0000
      2 C         -40.5725  -56.5517    5.7668 C.2       1 UNL1        0.0000
      3 C         -42.0886  -55.5654    7.4010 C.ar      1 UNL1        0.0000
      4 C         -42.8646  -56.6281    7.8125 C.ar      1 UNL1        0.0000
      5 C         -43.6121  -56.6205    8.9735 C.ar      1 UNL1        0.0000
      6 C         -43.5789  -55.4938    9.7589 C.ar      1 UNL1        0.0000
      7 C         -42.8204  -54.4028    9.3942 C.ar      1 UNL1        0.0000
      8 C         -42.0777  -54.4483    8.2135 C.ar      1 UNL1        0.0000
      9 C         -41.2888  -53.2729    7.8645 C.2       1 UNL1        0.0000
     10 O         -40.0076  -56.3030    4.6587 O.2       1 UNL1        0.0000
     11 O         -41.3333  -55.5296    6.2603 O.3       1 UNL1        0.0000
     12 O         -41.2059  -52.2932    8.6486 O.co2     1 UNL1       -0.5000
     13 O         -40.6061  -53.1891    6.6627 O.co2     1 UNL1       -0.5000
     14 H         -39.7811  -58.4918    5.8950 H         1 UNL1        0.0000
     15 H         -41.3775  -58.3112    6.5815 H         1 UNL1        0.0000
     16 H         -39.9855  -57.6865    7.4326 H         1 UNL1        0.0000
     17 H         -42.8879  -57.4739    7.2220 H         1 UNL1        0.0000
     18 H         -44.1796  -57.4394    9.2443 H         1 UNL1        0.0000
     19 H         -44.1287  -55.4633   10.6318 H         1 UNL1        0.0000
     20 H         -42.8003  -53.5597    9.9896 H         1 UNL1        0.0000
@<TRIPOS>BOND
     1    1    2 1
     2    1   14 1
     3    1   15 1
     4    1   16 1
     5    2   10 2
     6    2   11 1
     7    3    4 ar
     8    3    8 ar
     9    3   11 1
    10    4    5 ar
    11    4   17 1
    12    5    6 ar
    13    5   18 1
    14    6    7 ar
    15    6   19 1
    16    7    8 ar
    17    7   20 1
    18    8    9 1
    19    9   12 ar
    20    9   13 ar
@<TRIPOS>SUBSTRUCTURE
1 UNL1 1
@<TRIPOS>COMMENT
aspirin
PLANTSproteinTorsions
102
1 224.3064
42 90.5518
151 236.8838
173 354.4897
432 120.1363
491 167.7523
531 34.3269
563 59.6386
572 125.7912
629 350.8881
730 132.1911
826 287.3604
895 51.5463
921 41.4975
954 113.7878
1044 47.8123
1258 199.1802
1480 134.5981
1534 347.9207
1612 46.4077
1654 165.4962
1680 51.9773
1704 244.4710
1767 224.9600
1795 2.9887
1847 199.5908
1879 119.4274
1921 144.6264
1944 65.7715
1966 328.4133
1975 158.2709
2067 189.6788
2118 307.1125
2167 312.9046
2220 55.7763
2243 211.4302
2272 104.7814
2294 182.6878
2609 245.8681
2728 100.6597
2931 65.9068
3031 290.8736
3044 285.4929
3058 158.2432
3085 182.2603
3166 2.5178
3188 328.3578
3496 184.3968
3614 13.7062
3656 108.5681
3697 136.2536
3722 97.3132
3847 278.6392
3888 245.6701
4051 285.5162
4174 161.8383
4734 222.2680
4804 273.1099
4952 260.5159
5093 175.5335
5103 91.2403
5144 82.0177
5332 266.2195
5363 301.1624
5457 145.3718
5683 111.9432
5900 123.9988
6049 204.3461
6089 78.5600
6125 134.1106
6181 82.4855
6190 252.4646
6214 248.7893
6331 83.1997
6344 277.2272
6432 232.1236
7006 265.5803
7253 101.4877
7344 108.0190
7385 227.8896
7394 186.4156
7408 286.6021
7540 257.1469
7948 243.8857
8021 251.4651
8226 40.7710
8265 194.1808
8391 171.0200
8443 161.3228
8487 220.1994
8515 131.0695
8527 10.5396
8693 280.5646
8705 19.3249
8731 212.2972
8771 263.8228
8793 260.3167
8887 222.8617
8910 123.7085
8921 123.1409
8973 147.4475
8998 172.2326
PLANTSmolcadARTstart hb
PLANTSmolcadARTstart HB
LINES
PLANTSmolcadARTstart HBCH
LINES
PLANTSmolcadARTstart HB-CHO
LINES
PLANTSmolcadARTend
PLANTSmolcadARTstart HB_WATER
LINES
PLANTSmolcadARTend

PLANTSmolcadARTend

