@<TRIPOS>MOLECULE
aspirin_entry_00001_conf_58
20 20 1
SMALL
NO_CHARGES


@<TRIPOS>ATOM
      1 C         -28.0044  -59.3893   35.3506 C.3       1 UNL1        0.0000
      2 C         -28.7033  -58.3341   34.5742 C.2       1 UNL1        0.0000
      3 C         -27.1858  -58.3838   32.6671 C.ar      1 UNL1        0.0000
      4 C         -25.9775  -58.7181   33.2407 C.ar      1 UNL1        0.0000
      5 C         -24.8952  -59.1827   32.5199 C.ar      1 UNL1        0.0000
      6 C         -25.0320  -59.3190   31.1597 C.ar      1 UNL1        0.0000
      7 C         -26.2177  -58.9986   30.5353 C.ar      1 UNL1        0.0000
      8 C         -27.2897  -58.5324   31.2977 C.ar      1 UNL1        0.0000
      9 C         -28.5261  -58.2048   30.5979 C.2       1 UNL1        0.0000
     10 O         -29.7400  -57.7436   35.0047 O.2       1 UNL1        0.0000
     11 O         -28.2828  -57.9204   33.3417 O.3       1 UNL1        0.0000
     12 O         -28.5606  -58.1369   29.3426 O.co2     1 UNL1       -0.5000
     13 O         -29.7028  -57.9553   31.2840 O.co2     1 UNL1       -0.5000
     14 H         -28.5121  -59.5427   36.2799 H         1 UNL1        0.0000
     15 H         -26.9970  -59.0834   35.5409 H         1 UNL1        0.0000
     16 H         -28.0007  -60.3005   34.7903 H         1 UNL1        0.0000
     17 H         -25.8765  -58.6160   34.2624 H         1 UNL1        0.0000
     18 H         -24.0079  -59.4221   32.9905 H         1 UNL1        0.0000
     19 H         -24.2378  -59.6646   30.5986 H         1 UNL1        0.0000
     20 H         -26.3131  -59.1038   29.5127 H         1 UNL1        0.0000
@<TRIPOS>BOND
     1    1    2 1
     2    1   14 1
     3    1   15 1
     4    1   16 1
     5    2   10 2
     6    2   11 1
     7    3    4 ar
     8    3    8 ar
     9    3   11 1
    10    4    5 ar
    11    4   17 1
    12    5    6 ar
    13    5   18 1
    14    6    7 ar
    15    6   19 1
    16    7    8 ar
    17    7   20 1
    18    8    9 1
    19    9   12 ar
    20    9   13 ar
@<TRIPOS>SUBSTRUCTURE
1 UNL1 1
@<TRIPOS>COMMENT
aspirin
PLANTSproteinTorsions
102
1 337.3204
42 248.6876
151 59.2251
173 216.0084
432 99.5945
491 129.7685
531 197.2605
563 287.6426
572 279.7921
629 193.6678
730 93.7278
826 152.8132
895 229.0088
921 229.4529
954 25.0672
1044 298.7917
1258 122.3369
1480 90.7256
1534 228.4583
1612 194.4722
1654 73.2632
1680 214.8063
1704 23.0238
1767 127.7874
1795 120.6954
1847 30.3973
1879 111.2181
1921 83.9395
1944 165.8924
1966 45.0760
1975 23.6800
2067 69.3194
2118 107.3509
2167 237.3711
2220 207.6377
2243 216.5337
2272 206.0929
2294 185.9559
2609 257.3681
2728 203.3148
2931 319.1640
3031 159.0531
3044 4.2465
3058 167.8204
3085 202.6443
3166 5.4922
3188 21.8795
3496 125.9470
3614 184.6213
3656 167.7013
3697 170.0954
3722 122.1139
3847 357.3894
3888 282.5020
4051 69.6585
4174 290.5255
4734 10.0149
4804 320.1960
4952 204.7874
5093 162.6685
5103 327.6572
5144 118.8356
5332 195.0440
5363 299.1129
5457 89.4217
5683 202.7886
5900 316.3216
6049 84.8797
6089 25.4317
6125 120.6526
6181 51.2171
6190 43.5261
6214 75.6812
6331 251.7137
6344 26.7410
6432 294.8256
7006 259.0337
7253 151.6250
7344 266.5431
7385 286.6835
7394 122.6888
7408 239.9487
7540 62.3828
7948 81.5420
8021 48.3911
8226 153.3756
8265 158.1839
8391 155.2168
8443 114.7482
8487 250.0991
8515 193.6487
8527 178.2279
8693 174.3575
8705 297.3961
8731 55.1772
8771 73.5138
8793 165.5298
8887 53.1937
8910 341.4207
8921 17.0236
8973 144.6439
8998 95.9398
PLANTSmolcadARTstart hb
PLANTSmolcadARTstart HB
LINES
PLANTSmolcadARTstart HBCH
LINES
-29.7028 -57.9553 31.284 -31.117 -59.475 30.92 255 0 0 5
-29.7028 -57.9553 31.284 -30.947 -57.322 29.762 255 0 0 5
PLANTSmolcadARTstart HB-CHO
LINES
PLANTSmolcadARTend
PLANTSmolcadARTstart HB_WATER
LINES
PLANTSmolcadARTend

PLANTSmolcadARTend

