@<TRIPOS>MOLECULE
aspirin_entry_00001_conf_20
20 20 1
SMALL
NO_CHARGES


@<TRIPOS>ATOM
      1 C         -14.8073  -63.7165   -0.2708 C.3       1 UNL1        0.0000
      2 C         -13.9405  -62.8296    0.5459 C.2       1 UNL1        0.0000
      3 C         -13.5875  -61.1550   -1.1900 C.ar      1 UNL1        0.0000
      4 C         -13.6994  -61.8726   -2.3620 C.ar      1 UNL1        0.0000
      5 C         -13.9189  -61.2890   -3.5940 C.ar      1 UNL1        0.0000
      6 C         -14.0322  -59.9211   -3.6528 C.ar      1 UNL1        0.0000
      7 C         -13.9279  -59.1558   -2.5118 C.ar      1 UNL1        0.0000
      8 C         -13.7061  -59.7820   -1.2844 C.ar      1 UNL1        0.0000
      9 C         -13.6020  -58.9356   -0.1019 C.2       1 UNL1        0.0000
     10 O         -13.6697  -63.0708    1.7613 O.2       1 UNL1        0.0000
     11 O         -13.3705  -61.6909    0.0505 O.3       1 UNL1        0.0000
     12 O         -13.1208  -59.3801    0.9716 O.co2     1 UNL1       -0.5000
     13 O         -14.0282  -57.6181   -0.1140 O.co2     1 UNL1       -0.5000
     14 H         -15.1355  -64.5415    0.3264 H         1 UNL1        0.0000
     15 H         -14.2533  -64.0818   -1.1099 H         1 UNL1        0.0000
     16 H         -15.6563  -63.1651   -0.6164 H         1 UNL1        0.0000
     17 H         -13.6149  -62.8998   -2.3160 H         1 UNL1        0.0000
     18 H         -13.9968  -61.8650   -4.4474 H         1 UNL1        0.0000
     19 H         -14.1968  -59.4609   -4.5618 H         1 UNL1        0.0000
     20 H         -14.0142  -58.1284   -2.5638 H         1 UNL1        0.0000
@<TRIPOS>BOND
     1    1    2 1
     2    1   14 1
     3    1   15 1
     4    1   16 1
     5    2   10 2
     6    2   11 1
     7    3    4 ar
     8    3    8 ar
     9    3   11 1
    10    4    5 ar
    11    4   17 1
    12    5    6 ar
    13    5   18 1
    14    6    7 ar
    15    6   19 1
    16    7    8 ar
    17    7   20 1
    18    8    9 1
    19    9   12 ar
    20    9   13 ar
@<TRIPOS>SUBSTRUCTURE
1 UNL1 1
@<TRIPOS>COMMENT
aspirin
PLANTSproteinTorsions
102
1 218.4076
42 31.8071
151 222.5764
173 167.5513
432 155.0029
491 9.5284
531 37.8141
563 68.3994
572 171.0045
629 353.9820
730 265.6106
826 60.0209
895 46.4938
921 152.9181
954 64.5413
1044 349.2829
1258 77.4590
1480 27.0747
1534 340.8936
1612 5.6869
1654 139.8727
1680 257.8842
1704 1.0912
1767 100.1521
1795 170.2086
1847 257.2856
1879 270.6681
1921 111.5519
1944 19.5566
1966 123.5651
1975 272.0607
2067 191.7530
2118 259.1010
2167 202.9173
2220 233.9899
2243 315.9112
2272 204.8049
2294 347.1812
2609 161.7915
2728 99.6875
2931 54.7690
3031 70.0091
3044 217.8051
3058 172.4863
3085 35.2542
3166 267.1769
3188 344.7851
3496 7.1686
3614 153.6434
3656 46.4573
3697 123.4656
3722 248.0052
3847 308.7799
3888 320.0241
4051 196.3812
4174 54.6927
4734 151.1971
4804 225.2259
4952 216.5677
5093 44.2961
5103 306.3619
5144 281.2863
5332 159.3324
5363 54.6567
5457 324.4889
5683 128.3703
5900 182.3436
6049 176.0784
6089 140.5879
6125 104.8655
6181 101.2502
6190 142.2403
6214 9.2755
6331 231.2549
6344 124.8096
6432 142.5669
7006 327.1098
7253 217.2655
7344 341.5447
7385 263.0503
7394 294.3656
7408 72.5829
7540 190.1975
7948 247.2085
8021 124.5384
8226 83.0885
8265 110.8440
8391 103.1822
8443 63.6218
8487 112.7122
8515 274.5192
8527 95.3492
8693 236.9355
8705 214.2687
8731 160.2274
8771 23.4955
8793 168.0593
8887 184.0521
8910 262.3160
8921 87.4297
8973 78.3669
8998 101.6942
PLANTSmolcadARTstart hb
PLANTSmolcadARTstart HB
LINES
PLANTSmolcadARTstart HBCH
LINES
PLANTSmolcadARTstart HB-CHO
LINES
PLANTSmolcadARTend
PLANTSmolcadARTstart HB_WATER
LINES
PLANTSmolcadARTend

PLANTSmolcadARTend

