@<TRIPOS>MOLECULE
aspirin_entry_00001_conf_74
20 20 1
SMALL
NO_CHARGES


@<TRIPOS>ATOM
      1 C         -13.7242  -41.8742   -0.0716 C.3       1 UNL1        0.0000
      2 C         -13.9393  -43.2287    0.4975 C.2       1 UNL1        0.0000
      3 C         -14.7628  -45.5101    0.2535 C.ar      1 UNL1        0.0000
      4 C         -15.1740  -45.8361    1.5284 C.ar      1 UNL1        0.0000
      5 C         -15.3980  -47.1325    1.9479 C.ar      1 UNL1        0.0000
      6 C         -15.2010  -48.1495    1.0455 C.ar      1 UNL1        0.0000
      7 C         -14.7898  -47.8795   -0.2416 C.ar      1 UNL1        0.0000
      8 C         -14.5740  -46.5561   -0.6288 C.ar      1 UNL1        0.0000
      9 C         -14.1396  -46.3142   -1.9993 C.2       1 UNL1        0.0000
     10 O         -13.5895  -43.5368    1.6771 O.2       1 UNL1        0.0000
     11 O         -14.5293  -44.2416   -0.2045 O.3       1 UNL1        0.0000
     12 O         -13.7677  -47.2623   -2.7370 O.co2     1 UNL1       -0.5000
     13 O         -14.1179  -45.0387   -2.5381 O.co2     1 UNL1       -0.5000
     14 H         -13.2492  -41.2527    0.6585 H         1 UNL1        0.0000
     15 H         -14.6671  -41.4481   -0.3434 H         1 UNL1        0.0000
     16 H         -13.1021  -41.9467   -0.9388 H         1 UNL1        0.0000
     17 H         -15.3223  -45.0712    2.2048 H         1 UNL1        0.0000
     18 H         -15.7061  -47.3319    2.9130 H         1 UNL1        0.0000
     19 H         -15.3620  -49.1270    1.3345 H         1 UNL1        0.0000
     20 H         -14.6440  -48.6489   -0.9142 H         1 UNL1        0.0000
@<TRIPOS>BOND
     1    1    2 1
     2    1   14 1
     3    1   15 1
     4    1   16 1
     5    2   10 2
     6    2   11 1
     7    3    4 ar
     8    3    8 ar
     9    3   11 1
    10    4    5 ar
    11    4   17 1
    12    5    6 ar
    13    5   18 1
    14    6    7 ar
    15    6   19 1
    16    7    8 ar
    17    7   20 1
    18    8    9 1
    19    9   12 ar
    20    9   13 ar
@<TRIPOS>SUBSTRUCTURE
1 UNL1 1
@<TRIPOS>COMMENT
aspirin
PLANTSproteinTorsions
102
1 208.7821
42 50.3201
151 2.5821
173 79.1001
432 73.7894
491 271.0711
531 51.9540
563 19.7989
572 223.9728
629 99.8915
730 214.4630
826 77.8749
895 15.1514
921 2.4202
954 185.4965
1044 119.8328
1258 315.3621
1480 92.6231
1534 319.9804
1612 77.0855
1654 148.8067
1680 288.8070
1704 46.6373
1767 166.2654
1795 139.1564
1847 7.9545
1879 320.5365
1921 10.4796
1944 163.5296
1966 166.6837
1975 33.6009
2067 137.6898
2118 69.5527
2167 175.6237
2220 65.2811
2243 186.1143
2272 311.8503
2294 112.8680
2609 352.5360
2728 78.2101
2931 5.9330
3031 183.8021
3044 167.5440
3058 178.7465
3085 327.1748
3166 239.9578
3188 352.2953
3496 6.0790
3614 149.0085
3656 160.9052
3697 237.8399
3722 249.7421
3847 71.8956
3888 171.6267
4051 241.5193
4174 75.9473
4734 224.7902
4804 207.2045
4952 9.5701
5093 273.4214
5103 124.3542
5144 280.6797
5332 198.8711
5363 84.2780
5457 323.6429
5683 116.4911
5900 129.2558
6049 193.6373
6089 171.0189
6125 343.6501
6181 119.6908
6190 253.5862
6214 322.6577
6331 235.8330
6344 25.4315
6432 97.4107
7006 189.9189
7253 236.5838
7344 166.8382
7385 197.9966
7394 222.9915
7408 121.8135
7540 48.8457
7948 337.7828
8021 138.0148
8226 84.3489
8265 214.6732
8391 310.4950
8443 277.6908
8487 115.2741
8515 254.8252
8527 350.2808
8693 219.3780
8705 301.7981
8731 154.2571
8771 207.6974
8793 169.1026
8887 20.2499
8910 249.0383
8921 71.8216
8973 71.5414
8998 209.4391
PLANTSmolcadARTstart hb
PLANTSmolcadARTstart HB
LINES
PLANTSmolcadARTstart HBCH
LINES
PLANTSmolcadARTstart HB-CHO
LINES
PLANTSmolcadARTend
PLANTSmolcadARTstart HB_WATER
LINES
PLANTSmolcadARTend

PLANTSmolcadARTend

