@<TRIPOS>MOLECULE
aspirin_entry_00001_conf_82
20 20 1
SMALL
NO_CHARGES


@<TRIPOS>ATOM
      1 C         -31.1069  -39.8722    3.2669 C.3       1 UNL1        0.0000
      2 C         -31.9168  -41.1167    3.2540 C.2       1 UNL1        0.0000
      3 C         -32.7022  -43.1311    4.3800 C.ar      1 UNL1        0.0000
      4 C         -32.9362  -43.9814    3.3202 C.ar      1 UNL1        0.0000
      5 C         -33.6701  -45.1462    3.4264 C.ar      1 UNL1        0.0000
      6 C         -34.1931  -45.4737    4.6539 C.ar      1 UNL1        0.0000
      7 C         -33.9899  -44.6590    5.7464 C.ar      1 UNL1        0.0000
      8 C         -33.2421  -43.4897    5.5998 C.ar      1 UNL1        0.0000
      9 C         -33.0509  -42.6562    6.7806 C.2       1 UNL1        0.0000
     10 O         -32.6035  -41.4736    2.2491 O.2       1 UNL1        0.0000
     11 O         -31.9821  -41.9687    4.3202 O.3       1 UNL1        0.0000
     12 O         -33.2330  -43.1190    7.9356 O.co2     1 UNL1       -0.5000
     13 O         -32.6659  -41.3301    6.6768 O.co2     1 UNL1       -0.5000
     14 H         -31.2096  -39.3709    2.3272 H         1 UNL1        0.0000
     15 H         -30.0785  -40.1181    3.4294 H         1 UNL1        0.0000
     16 H         -31.4493  -39.2324    4.0529 H         1 UNL1        0.0000
     17 H         -32.5422  -43.7344    2.3992 H         1 UNL1        0.0000
     18 H         -33.8207  -45.7548    2.6061 H         1 UNL1        0.0000
     19 H         -34.7451  -46.3393    4.7593 H         1 UNL1        0.0000
     20 H         -34.3859  -44.9117    6.6656 H         1 UNL1        0.0000
@<TRIPOS>BOND
     1    1    2 1
     2    1   14 1
     3    1   15 1
     4    1   16 1
     5    2   10 2
     6    2   11 1
     7    3    4 ar
     8    3    8 ar
     9    3   11 1
    10    4    5 ar
    11    4   17 1
    12    5    6 ar
    13    5   18 1
    14    6    7 ar
    15    6   19 1
    16    7    8 ar
    17    7   20 1
    18    8    9 1
    19    9   12 ar
    20    9   13 ar
@<TRIPOS>SUBSTRUCTURE
1 UNL1 1
@<TRIPOS>COMMENT
aspirin
PLANTSproteinTorsions
102
1 253.8170
42 351.5271
151 39.1344
173 89.4258
432 221.4055
491 160.6183
531 262.8089
563 247.7997
572 261.0186
629 125.7617
730 262.8771
826 131.8531
895 6.1056
921 71.9289
954 25.1984
1044 25.9632
1258 141.1015
1480 258.4120
1534 352.7845
1612 70.0620
1654 86.3051
1680 3.3891
1704 51.9858
1767 12.1609
1795 72.8493
1847 130.8007
1879 141.0381
1921 148.9718
1944 27.5385
1966 74.6419
1975 252.4263
2067 263.7369
2118 86.4210
2167 75.7939
2220 9.2119
2243 43.8781
2272 67.1619
2294 216.2943
2609 47.6322
2728 298.8318
2931 252.2465
3031 108.2502
3044 44.0718
3058 189.0533
3085 127.1675
3166 239.8114
3188 185.0208
3496 232.2840
3614 161.8058
3656 303.1905
3697 50.7142
3722 105.6510
3847 221.4942
3888 77.3908
4051 202.2316
4174 174.8601
4734 179.6640
4804 142.2884
4952 33.4556
5093 221.1680
5103 54.1820
5144 38.9178
5332 12.4513
5363 309.9078
5457 127.5300
5683 245.8592
5900 187.4769
6049 52.1826
6089 185.6755
6125 6.2884
6181 176.0665
6190 199.0920
6214 184.6933
6331 126.3877
6344 68.5479
6432 153.0934
7006 244.4536
7253 183.5639
7344 97.2571
7385 269.3049
7394 199.5497
7408 45.0276
7540 328.4630
7948 171.5420
8021 261.8250
8226 205.9938
8265 80.9056
8391 195.1548
8443 284.1381
8487 273.4604
8515 232.5249
8527 98.4147
8693 279.3651
8705 6.1989
8731 255.1771
8771 294.4056
8793 46.0660
8887 6.8183
8910 179.0307
8921 120.8997
8973 92.6938
8998 311.1982
PLANTSmolcadARTstart hb
PLANTSmolcadARTstart HB
LINES
PLANTSmolcadARTstart HBCH
LINES
PLANTSmolcadARTstart HB-CHO
LINES
PLANTSmolcadARTend
PLANTSmolcadARTstart HB_WATER
LINES
PLANTSmolcadARTend

PLANTSmolcadARTend

