@<TRIPOS>MOLECULE
aspirin_entry_00001_conf_59
20 20 1
SMALL
NO_CHARGES


@<TRIPOS>ATOM
      1 C          -1.8524  -58.5249   -3.6349 C.3       1 UNL1        0.0000
      2 C          -0.3805  -58.4525   -3.8164 C.2       1 UNL1        0.0000
      3 C          -0.4155  -56.5918   -5.3908 C.ar      1 UNL1        0.0000
      4 C          -1.5998  -56.7892   -6.0687 C.ar      1 UNL1        0.0000
      5 C          -2.2085  -55.8165   -6.8369 C.ar      1 UNL1        0.0000
      6 C          -1.6007  -54.5878   -6.9287 C.ar      1 UNL1        0.0000
      7 C          -0.4158  -54.3371   -6.2718 C.ar      1 UNL1        0.0000
      8 C           0.1691  -55.3455   -5.5044 C.ar      1 UNL1        0.0000
      9 C           1.4225  -55.0387   -4.8258 C.2       1 UNL1        0.0000
     10 O           0.4186  -59.2492   -3.2371 O.2       1 UNL1        0.0000
     11 O           0.2218  -57.5255   -4.6194 O.3       1 UNL1        0.0000
     12 O           1.8516  -53.8583   -4.7618 O.co2     1 UNL1       -0.5000
     13 O           2.1858  -56.0293   -4.2309 O.co2     1 UNL1       -0.5000
     14 H          -2.0896  -59.3257   -2.9660 H         1 UNL1        0.0000
     15 H          -2.3199  -58.7005   -4.5811 H         1 UNL1        0.0000
     16 H          -2.2071  -57.6016   -3.2276 H         1 UNL1        0.0000
     17 H          -2.0554  -57.7122   -5.9981 H         1 UNL1        0.0000
     18 H          -3.0965  -56.0072   -7.3280 H         1 UNL1        0.0000
     19 H          -2.0359  -53.8440   -7.4965 H         1 UNL1        0.0000
     20 H           0.0350  -53.4113   -6.3454 H         1 UNL1        0.0000
@<TRIPOS>BOND
     1    1    2 1
     2    1   14 1
     3    1   15 1
     4    1   16 1
     5    2   10 2
     6    2   11 1
     7    3    4 ar
     8    3    8 ar
     9    3   11 1
    10    4    5 ar
    11    4   17 1
    12    5    6 ar
    13    5   18 1
    14    6    7 ar
    15    6   19 1
    16    7    8 ar
    17    7   20 1
    18    8    9 1
    19    9   12 ar
    20    9   13 ar
@<TRIPOS>SUBSTRUCTURE
1 UNL1 1
@<TRIPOS>COMMENT
aspirin
PLANTSproteinTorsions
102
1 83.9285
42 14.7876
151 41.2390
173 318.5400
432 72.6014
491 53.5140
531 6.4659
563 124.2809
572 356.6107
629 21.5515
730 192.0716
826 27.8198
895 4.6670
921 1.5476
954 34.2151
1044 314.0825
1258 32.5227
1480 53.5323
1534 58.4866
1612 83.0684
1654 138.2633
1680 198.6144
1704 330.0794
1767 20.9560
1795 342.5300
1847 182.8996
1879 56.0358
1921 92.4027
1944 43.6738
1966 43.2674
1975 216.9563
2067 5.6958
2118 356.2905
2167 21.0937
2220 55.3979
2243 221.8075
2272 124.4995
2294 255.0026
2609 228.5198
2728 332.5452
2931 236.9379
3031 133.0229
3044 263.6627
3058 181.6562
3085 226.9347
3166 22.0445
3188 77.0290
3496 146.9560
3614 346.6361
3656 248.6544
3697 300.0042
3722 270.9127
3847 135.7290
3888 239.5546
4051 64.0155
4174 253.5484
4734 156.2114
4804 118.1270
4952 167.2111
5093 159.1240
5103 65.9882
5144 180.4104
5332 260.1600
5363 266.7388
5457 125.5411
5683 138.6069
5900 46.5190
6049 194.6335
6089 338.1945
6125 180.5230
6181 249.9479
6190 218.5256
6214 269.5651
6331 240.3428
6344 262.0189
6432 279.0721
7006 47.1637
7253 105.3489
7344 57.5135
7385 206.9534
7394 230.6933
7408 223.4382
7540 264.3630
7948 243.8130
8021 59.6874
8226 75.6287
8265 266.6117
8391 260.0577
8443 273.1756
8487 202.8595
8515 248.8048
8527 69.4224
8693 244.6860
8705 163.8896
8731 139.2594
8771 279.6913
8793 303.2495
8887 194.0396
8910 84.1886
8921 187.2205
8973 275.0162
8998 311.4725
PLANTSmolcadARTstart hb
PLANTSmolcadARTstart HB
LINES
PLANTSmolcadARTstart HBCH
LINES
PLANTSmolcadARTstart HB-CHO
LINES
PLANTSmolcadARTend
PLANTSmolcadARTstart HB_WATER
LINES
PLANTSmolcadARTend

PLANTSmolcadARTend

