@<TRIPOS>MOLECULE
aspirin_entry_00001_conf_71
20 20 1
SMALL
NO_CHARGES


@<TRIPOS>ATOM
      1 C         -15.2605  -54.1008   -0.1802 C.3       1 UNL1        0.0000
      2 C         -14.7726  -55.4589    0.1693 C.2       1 UNL1        0.0000
      3 C         -14.4537  -57.7986   -0.4361 C.ar      1 UNL1        0.0000
      4 C         -14.0889  -58.2814    0.8028 C.ar      1 UNL1        0.0000
      5 C         -13.7641  -59.6025    1.0395 C.ar      1 UNL1        0.0000
      6 C         -13.8080  -60.4805   -0.0162 C.ar      1 UNL1        0.0000
      7 C         -14.1655  -60.0508   -1.2756 C.ar      1 UNL1        0.0000
      8 C         -14.4876  -58.7076   -1.4757 C.ar      1 UNL1        0.0000
      9 C         -14.8605  -58.2945   -2.8232 C.2       1 UNL1        0.0000
     10 O         -14.3127  -55.7447    1.3163 O.2       1 UNL1        0.0000
     11 O         -14.7831  -56.5000   -0.7156 O.3       1 UNL1        0.0000
     12 O         -14.7032  -59.0666   -3.8034 O.co2     1 UNL1       -0.5000
     13 O         -15.3971  -57.0431   -3.0751 O.co2     1 UNL1       -0.5000
     14 H         -15.1553  -53.4558    0.6670 H         1 UNL1        0.0000
     15 H         -16.2913  -54.1540   -0.4619 H         1 UNL1        0.0000
     16 H         -14.6870  -53.7153   -0.9968 H         1 UNL1        0.0000
     17 H         -14.0572  -57.6210    1.5948 H         1 UNL1        0.0000
     18 H         -13.4965  -59.9217    1.9843 H         1 UNL1        0.0000
     19 H         -13.5699  -61.4732    0.1350 H         1 UNL1        0.0000
     20 H         -14.1964  -60.7164   -2.0640 H         1 UNL1        0.0000
@<TRIPOS>BOND
     1    1    2 1
     2    1   14 1
     3    1   15 1
     4    1   16 1
     5    2   10 2
     6    2   11 1
     7    3    4 ar
     8    3    8 ar
     9    3   11 1
    10    4    5 ar
    11    4   17 1
    12    5    6 ar
    13    5   18 1
    14    6    7 ar
    15    6   19 1
    16    7    8 ar
    17    7   20 1
    18    8    9 1
    19    9   12 ar
    20    9   13 ar
@<TRIPOS>SUBSTRUCTURE
1 UNL1 1
@<TRIPOS>COMMENT
aspirin
PLANTSproteinTorsions
102
1 216.2488
42 4.5732
151 285.3427
173 140.0504
432 64.4241
491 293.9651
531 331.5901
563 358.0665
572 165.7316
629 141.4786
730 249.6364
826 151.7042
895 88.7752
921 158.8331
954 121.8962
1044 71.9468
1258 78.0040
1480 30.0511
1534 222.0932
1612 6.1435
1654 134.1871
1680 311.6055
1704 68.2330
1767 224.2700
1795 81.2975
1847 262.3370
1879 258.3701
1921 30.4141
1944 104.4476
1966 65.4832
1975 62.5186
2067 106.5483
2118 9.5835
2167 232.6186
2220 216.6504
2243 347.9688
2272 101.7084
2294 11.7382
2609 154.7405
2728 212.4115
2931 33.4590
3031 92.5029
3044 181.5443
3058 141.5909
3085 347.1038
3166 15.7029
3188 125.7421
3496 240.6221
3614 55.6717
3656 237.7239
3697 56.7695
3722 296.5359
3847 72.8645
3888 116.9498
4051 241.9943
4174 214.0650
4734 204.0437
4804 124.0886
4952 4.1364
5093 33.1841
5103 114.2318
5144 279.2142
5332 212.3120
5363 268.3714
5457 27.5929
5683 226.5796
5900 122.6222
6049 320.9918
6089 104.7401
6125 227.7792
6181 283.5232
6190 142.8747
6214 59.5676
6331 307.0714
6344 114.6998
6432 109.7866
7006 77.8196
7253 241.9071
7344 122.9454
7385 34.0330
7394 239.0946
7408 54.1520
7540 249.2186
7948 265.2731
8021 216.3384
8226 69.5720
8265 227.6836
8391 114.5322
8443 55.2908
8487 219.1628
8515 273.8971
8527 331.6610
8693 217.6951
8705 260.6057
8731 109.5146
8771 264.1176
8793 174.2424
8887 207.8988
8910 257.7430
8921 89.4945
8973 119.2681
8998 293.8024
PLANTSmolcadARTstart hb
PLANTSmolcadARTstart HB
LINES
-14.7032 -59.0666 -3.8034 -16.2239 -58.8638 -5.20463 0 255 0 5
PLANTSmolcadARTstart HBCH
LINES
PLANTSmolcadARTstart HB-CHO
LINES
PLANTSmolcadARTend
PLANTSmolcadARTstart HB_WATER
LINES
PLANTSmolcadARTend

PLANTSmolcadARTend

