@<TRIPOS>MOLECULE
aspirin_entry_00001_conf_34
20 20 1
SMALL
NO_CHARGES


@<TRIPOS>ATOM
      1 C         -44.2342  -56.1131    9.5921 C.3       1 UNL1        0.0000
      2 C         -43.2383  -55.0889    9.9968 C.2       1 UNL1        0.0000
      3 C         -41.7822  -55.3743    8.0628 C.ar      1 UNL1        0.0000
      4 C         -41.9247  -56.7180    7.7890 C.ar      1 UNL1        0.0000
      5 C         -41.5267  -57.2994    6.6014 C.ar      1 UNL1        0.0000
      6 C         -40.9600  -56.4945    5.6431 C.ar      1 UNL1        0.0000
      7 C         -40.7935  -55.1448    5.8651 C.ar      1 UNL1        0.0000
      8 C         -41.2086  -54.5935    7.0782 C.ar      1 UNL1        0.0000
      9 C         -41.0144  -53.1616    7.2725 C.2       1 UNL1        0.0000
     10 O         -43.3201  -54.4523   11.0909 O.2       1 UNL1        0.0000
     11 O         -42.1617  -54.7568    9.2238 O.3       1 UNL1        0.0000
     12 O         -40.6801  -52.4182    6.3148 O.co2     1 UNL1       -0.5000
     13 O         -41.1873  -52.5685    8.5118 O.co2     1 UNL1       -0.5000
     14 H         -44.9821  -56.2023   10.3521 H         1 UNL1        0.0000
     15 H         -43.7439  -57.0551    9.4622 H         1 UNL1        0.0000
     16 H         -44.6931  -55.8198    8.6714 H         1 UNL1        0.0000
     17 H         -42.3512  -57.3211    8.5094 H         1 UNL1        0.0000
     18 H         -41.6527  -58.3110    6.4378 H         1 UNL1        0.0000
     19 H         -40.6545  -56.9050    4.7468 H         1 UNL1        0.0000
     20 H         -40.3669  -54.5463    5.1402 H         1 UNL1        0.0000
@<TRIPOS>BOND
     1    1    2 1
     2    1   14 1
     3    1   15 1
     4    1   16 1
     5    2   10 2
     6    2   11 1
     7    3    4 ar
     8    3    8 ar
     9    3   11 1
    10    4    5 ar
    11    4   17 1
    12    5    6 ar
    13    5   18 1
    14    6    7 ar
    15    6   19 1
    16    7    8 ar
    17    7   20 1
    18    8    9 1
    19    9   12 ar
    20    9   13 ar
@<TRIPOS>SUBSTRUCTURE
1 UNL1 1
@<TRIPOS>COMMENT
aspirin
PLANTSproteinTorsions
102
1 33.8914
42 135.0871
151 235.2253
173 170.3985
432 122.5592
491 61.6814
531 185.8019
563 98.9160
572 107.0315
629 38.1421
730 156.2538
826 0.3669
895 17.6157
921 246.6301
954 42.6447
1044 18.5360
1258 198.5623
1480 341.2419
1534 349.2263
1612 83.5957
1654 198.6086
1680 214.6174
1704 21.6278
1767 26.6407
1795 27.6552
1847 330.9811
1879 122.6891
1921 146.7069
1944 354.8182
1966 258.7471
1975 156.7720
2067 103.7945
2118 292.8082
2167 23.6358
2220 54.6696
2243 185.7060
2272 117.7416
2294 43.7779
2609 277.5487
2728 347.4295
2931 24.8946
3031 214.9340
3044 285.0700
3058 163.0160
3085 179.0623
3166 58.1033
3188 86.1449
3496 189.1879
3614 134.2347
3656 255.2812
3697 167.9077
3722 284.2938
3847 64.9021
3888 301.3049
4051 97.9058
4174 289.2718
4734 228.9187
4804 32.9319
4952 260.9439
5093 177.9610
5103 92.9772
5144 75.9985
5332 257.0163
5363 48.0438
5457 243.0676
5683 325.7240
5900 120.1258
6049 266.1535
6089 289.4421
6125 138.2236
6181 90.7859
6190 186.2110
6214 90.2533
6331 198.2939
6344 25.3391
6432 265.8627
7006 265.4262
7253 94.4747
7344 88.5220
7385 265.5685
7394 190.6163
7408 246.6647
7540 232.7141
7948 69.7689
8021 252.8188
8226 28.8731
8265 179.9224
8391 287.2017
8443 210.9922
8487 237.0501
8515 133.9982
8527 348.9473
8693 255.0884
8705 58.1568
8731 226.9739
8771 39.0012
8793 284.0818
8887 210.0110
8910 270.0222
8921 170.9928
8973 157.9438
8998 213.9256
PLANTSmolcadARTstart hb
PLANTSmolcadARTstart HB
LINES
PLANTSmolcadARTstart HBCH
LINES
PLANTSmolcadARTstart HB-CHO
LINES
PLANTSmolcadARTend
PLANTSmolcadARTstart HB_WATER
LINES
PLANTSmolcadARTend

PLANTSmolcadARTend

