@<TRIPOS>MOLECULE
aspirin_entry_00001_conf_58_protein
256 154 102
SMALL
NO_CHARGES


@<TRIPOS>ATOM
      1 H           1.7050  -84.8896    1.4303 H        28 GLY28       0.0000
      2 N           1.9710  -83.9720    1.7370 N.4      28 GLY28       1.0000
      3 H2          1.4963  -83.2924    1.1714 H        28 GLY28       0.0000
      4 H3          2.9607  -83.8637    1.6073 H        28 GLY28       0.0000
      5 HG1        -5.8984  -78.6517    6.3929 H        31 THR31       0.0000
      6 OG1        -5.5490  -77.8520    5.8930 O.3      31 THR31       0.0000
      7 HH         -3.9433  -67.3728    8.2515 H        38 TYR38       0.0000
      8 OH         -4.6290  -67.0170    8.8830 O.3      38 TYR38       0.0000
      9 HH        -16.1748  -62.7639    7.3260 H        39 TYR39       0.0000
     10 OH        -15.2560  -63.1550    7.3150 O.3      39 TYR39       0.0000
     11 HH         -2.7644  -59.5662    2.7018 H        55 TYR55       0.0000
     12 OH         -2.4450  -59.4310    1.7660 O.3      55 TYR55       0.0000
     13 HG1        -8.5686  -53.0816  -12.6735 H        60 THR60       0.0000
     14 OG1        -8.4490  -52.9250  -11.6880 O.3      60 THR60       0.0000
     15 HG1        -8.8743  -49.8250   -4.2495 H        62 THR62       0.0000
     16 OG1        -9.2280  -49.6990   -5.1820 O.3      62 THR62       0.0000
     17 HH         -8.9514  -43.8145    2.1798 H        64 TYR64       0.0000
     18 OH         -9.5040  -43.9480    1.3590 O.3      64 TYR64       0.0000
     19 HG         -1.9650  -46.3108   -5.0662 H        65 SER65       0.0000
     20 OG         -1.6780  -47.2380   -4.8310 O.3      65 SER65       0.0000
     21 HG1        -1.9238  -50.2820    2.3446 H        70 THR70       0.0000
     22 OG1        -2.7710  -50.8080    2.2150 O.3      70 THR70       0.0000
     23 HG1        -7.3523  -41.7740   -1.3916 H        76 THR76       0.0000
     24 OG1        -7.4980  -42.0730   -2.3400 O.3      76 THR76       0.0000
     25 HG         -7.6487  -34.4325    3.5406 H        81 SER81       0.0000
     26 OG         -7.2260  -35.3370    3.5860 O.3      81 SER81       0.0000
     27 HG        -18.8399  -39.0152   13.2612 H        85 SER85       0.0000
     28 OG        -18.4230  -39.3210   12.4060 O.3      85 SER85       0.0000
     29 HG        -21.2218  -41.7804   14.7775 H        87 SER87       0.0000
     30 OG        -21.7540  -41.4260   14.0100 O.3      87 SER87       0.0000
     31 HG1       -21.5007  -37.1062    7.9055 H        89 THR89       0.0000
     32 OG1       -21.9430  -36.3830    7.3650 O.3      89 THR89       0.0000
     33 HG1       -29.5139  -35.2465   13.6692 H        94 THR94       0.0000
     34 OG1       -29.7610  -34.2720   13.6920 O.3      94 THR94       0.0000
     35 HG1       -31.9568  -23.1219   -1.9122 H       106 THR106      0.0000
     36 OG1       -31.9840  -22.2340   -1.4400 O.3     106 THR106      0.0000
     37 HG1       -24.9686  -36.9269   -8.5064 H       118 THR118      0.0000
     38 OG1       -25.4270  -37.7120   -8.0780 O.3     118 THR118      0.0000
     39 HG        -28.3759  -44.2869   -5.1663 H       121 SER121      0.0000
     40 OG        -28.0170  -43.6970   -5.8890 O.3     121 SER121      0.0000
     41 HG        -21.4802  -49.2486  -12.8768 H       126 SER126      0.0000
     42 OG        -21.9940  -50.0310  -12.5270 O.3     126 SER126      0.0000
     43 HG1       -22.5016  -57.5548   -6.9253 H       129 THR129      0.0000
     44 OG1       -21.5190  -57.3710   -6.8150 O.3     129 THR129      0.0000
     45 HH        -16.9552  -57.7428   -5.6478 H       130 TYR130      0.0000
     46 OH        -16.7630  -58.6500   -6.0170 O.3     130 TYR130      0.0000
     47 HG        -29.0328  -66.8974   -4.4593 H       132 SER132      0.0000
     48 OG        -28.2430  -67.4690   -4.2420 O.3     132 SER132      0.0000
     49 HH        -18.0401  -70.2193  -10.6028 H       136 TYR136      0.0000
     50 OH        -18.4010  -69.8190   -9.7630 O.3     136 TYR136      0.0000
     51 HG        -22.4698  -64.8752  -12.7044 H       138 SER138      0.0000
     52 OG        -21.7000  -65.3460  -12.2760 O.3     138 SER138      0.0000
     53 HG        -23.7178  -61.4817  -10.3473 H       141 SER141      0.0000
     54 OG        -24.2850  -62.2830  -10.1630 O.3     141 SER141      0.0000
     55 HG        -28.3437  -65.2860  -16.3151 H       143 SER143      0.0000
     56 OG        -27.8490  -64.9650  -17.1220 O.3     143 SER143      0.0000
     57 HG        -36.4483  -67.4964   -9.8031 H       146 SER146      0.0000
     58 OG        -35.5350  -67.3800   -9.4140 O.3     146 SER146      0.0000
     59 HH        -29.1418  -71.0429   -8.3450 H       147 TYR147      0.0000
     60 OH        -28.4260  -70.4670   -8.7350 O.3     147 TYR147      0.0000
     61 HH        -37.0116  -61.4561   -2.4297 H       148 TYR148      0.0000
     62 OH        -36.4560  -61.7190   -1.6440 O.3     148 TYR148      0.0000
     63 HG1       -25.6993  -59.6528   -7.1667 H       149 THR149      0.0000
     64 OG1       -26.1570  -58.8760   -6.7210 O.3     149 THR149      0.0000
     65 HG        -19.1560  -66.5472   -0.1908 H       154 SER154      0.0000
     66 OG        -20.0840  -66.8360    0.0410 O.3     154 SER154      0.0000
     67 HZ1       -22.2945  -73.4912    1.8225 H       157 LYS157      0.0000
     68 NZ        -21.3030  -73.3640    1.8070 N.4     157 LYS157      1.0000
     69 HZ2       -21.0313  -72.7602    2.5559 H       157 LYS157      0.0000
     70 HZ3       -21.0302  -72.9591    0.9350 H       157 LYS157      0.0000
     71 HG1       -14.7337  -67.4167   11.4491 H       161 THR161      0.0000
     72 OG1       -13.9700  -67.3810   12.1020 O.3     161 THR161      0.0000
     73 HG1        -8.8998  -63.3893   11.1889 H       165 THR165      0.0000
     74 OG1        -9.5520  -63.8260   10.5610 O.3     165 THR165      0.0000
     75 HZ1        -7.1297  -62.5374   15.1027 H       166 LYS166      0.0000
     76 NZ         -7.2730  -62.7880   14.1460 N.4     166 LYS166      1.0000
     77 HZ2        -7.3639  -63.7806   14.0696 H       166 LYS166      0.0000
     78 HZ3        -6.4954  -62.4795   13.5993 H       166 LYS166      0.0000
     79 HZ1       -18.9385  -68.4531   23.4311 H       168 LYS168      0.0000
     80 NZ        -18.1320  -68.0390   23.8530 N.4     168 LYS168      1.0000
     81 HZ2       -17.7912  -68.6346   24.5798 H       168 LYS168      0.0000
     82 HZ3       -18.3752  -67.1486   24.2360 H       168 LYS168      0.0000
     83 HZ1       -16.5392  -75.3111   20.5470 H       169 LYS169      0.0000
     84 NZ        -15.7760  -75.9460   20.4320 N.4     169 LYS169      1.0000
     85 HZ2       -15.9426  -76.5301   19.6378 H       169 LYS169      0.0000
     86 HZ3       -15.6854  -76.5122   21.2508 H       169 LYS169      0.0000
     87 HZ1       -42.8203  -49.7621   31.9293 H       186 LYS186      0.0000
     88 NZ        -42.5640  -49.1260   31.2020 N.4     186 LYS186      1.0000
     89 HZ2       -41.7096  -48.6665   31.4438 H       186 LYS186      0.0000
     90 HZ3       -43.2872  -48.4469   31.0805 H       186 LYS186      0.0000
     91 HG1       -42.1759  -42.5500   11.7350 H       194 THR194      0.0000
     92 OG1       -41.7230  -43.2040   12.3500 O.3     194 THR194      0.0000
     93 HG1       -41.9378  -54.1036    3.6465 H       206 THR206      0.0000
     94 OG1       -41.9280  -54.7860    2.9080 O.3     206 THR206      0.0000
     95 HZ1       -44.8381  -61.2322   -6.4209 H       211 LYS211      0.0000
     96 NZ        -45.0200  -60.4690   -5.8010 N.4     211 LYS211      1.0000
     97 HZ2       -45.9059  -60.6018   -5.3574 H       211 LYS211      0.0000
     98 HZ3       -45.0296  -59.6135   -6.3170 H       211 LYS211      0.0000
     99 HG1       -36.5670  -64.6353    1.6305 H       212 THR212      0.0000
    100 OG1       -37.0600  -64.5640    0.7570 O.3     212 THR212      0.0000
    101 HG        -39.0594  -70.9084   -5.1392 H       213 SER213      0.0000
    102 OG        -39.6210  -70.4680   -4.4390 O.3     213 SER213      0.0000
    103 HZ1       -40.9331  -71.1055   -7.3996 H       215 LYS215      0.0000
    104 NZ        -40.7140  -72.0550   -7.1780 N.4     215 LYS215      1.0000
    105 HZ2       -40.0091  -72.0796   -6.4705 H       215 LYS215      0.0000
    106 HZ3       -40.3844  -72.5229   -7.9971 H       215 LYS215      0.0000
    107 HG1       -37.6925  -61.7180   -6.2156 H       221 THR221      0.0000
    108 OG1       -37.7410  -62.2150   -5.3430 O.3     221 THR221      0.0000
    109 HZ1       -42.2485  -70.3031   -7.4923 H       222 LYS222      0.0000
    110 NZ        -42.2670  -69.5280   -8.1230 N.4     222 LYS222      1.0000
    111 HZ2       -43.0308  -69.6312   -8.7599 H       222 LYS222      0.0000
    112 HZ3       -41.4086  -69.4896   -8.6329 H       222 LYS222      0.0000
    113 HH        -50.7128  -61.2367  -21.7494 H       242 TYR242      0.0000
    114 OH        -51.5270  -60.6600  -21.7160 O.3     242 TYR242      0.0000
    115 HZ1       -68.1507  -50.5700  -20.5075 H       248 LYS248      0.0000
    116 NZ        -68.1830  -51.5330  -20.2430 N.4     248 LYS248      1.0000
    117 HZ2       -67.5518  -52.0587  -20.8120 H       248 LYS248      0.0000
    118 HZ3       -69.1120  -51.8819  -20.3621 H       248 LYS248      0.0000
    119 HZ1       -64.5293  -46.5605  -13.1589 H       251 LYS251      0.0000
    120 NZ        -64.3690  -47.5440  -13.0810 N.4     251 LYS251      1.0000
    121 HZ2       -65.1363  -48.0415  -13.4849 H       251 LYS251      0.0000
    122 HZ3       -64.2791  -47.7935  -12.1177 H       251 LYS251      0.0000
    123 HZ1       -62.0478  -60.5728  -14.7158 H       253 LYS253      0.0000
    124 NZ        -61.7340  -61.4150  -14.2790 N.4     253 LYS253      1.0000
    125 HZ2       -60.8629  -61.6969  -14.6807 H       253 LYS253      0.0000
    126 HZ3       -62.4137  -62.1352  -14.4126 H       253 LYS253      0.0000
    127 HH        -68.5631  -51.9646  -11.8357 H       254 TYR254      0.0000
    128 OH        -67.9490  -51.2120  -11.6040 O.3     254 TYR254      0.0000
    129 HH        -64.8731  -51.6897    4.2094 H       262 TYR262      0.0000
    130 OH        -65.3490  -51.3490    3.4010 O.3     262 TYR262      0.0000
    131 HG        -66.1639  -63.6194   -2.5855 H       265 SER265      0.0000
    132 OG        -65.2160  -63.5150   -2.8830 O.3     265 SER265      0.0000
    133 HH        -59.5883  -61.5412    1.1641 H       275 TYR275      0.0000
    134 OH        -58.7510  -61.6620    1.6930 O.3     275 TYR275      0.0000
    135 HG        -66.4221  -64.4132    5.1057 H       283 SER283      0.0000
    136 OG        -66.4350  -64.2560    4.1190 O.3     283 SER283      0.0000
    137 HZ1       -63.1355  -47.5571  -23.2181 H       317 LYS317      0.0000
    138 NZ        -62.9320  -46.6960  -23.6840 N.4     317 LYS317      1.0000
    139 HZ2       -63.4085  -46.6698  -24.5625 H       317 LYS317      0.0000
    140 HZ3       -61.9471  -46.6210  -23.8345 H       317 LYS317      0.0000
    141 HG1       -59.1062  -40.9735  -29.3697 H       322 THR322      0.0000
    142 OG1       -58.6530  -41.8510  -29.5590 O.3     322 THR322      0.0000
    143 HG1       -51.0028  -45.0701  -21.5413 H       331 THR331      0.0000
    144 OG1       -50.7660  -45.8310  -20.9280 O.3     331 THR331      0.0000
    145 HE2       -51.1551  -42.7675   -9.3883 H       339 GLU339      0.0000
    146 OE2       -51.4690  -42.4210   -8.5640 O.co2   339 GLU339      0.5000
    147 HG1       -47.0474  -46.1723   -6.4250 H       340 THR340      0.0000
    148 OG1       -46.5450  -46.8770   -5.9140 O.3     340 THR340      0.0000
    149 HZ1       -43.3442  -34.8807   -5.5165 H       342 LYS342      0.0000
    150 NZ        -44.2730  -34.8380   -5.8830 N.4     342 LYS342      1.0000
    151 HZ2       -44.2746  -35.1518   -6.8321 H       342 LYS342      0.0000
    152 HZ3       -44.6071  -33.8973   -5.8411 H       342 LYS342      0.0000
    153 HG        -35.5023  -37.8745    7.5815 H       353 SER353      0.0000
    154 OG        -34.8470  -38.0790    6.8560 O.3     353 SER353      0.0000
    155 HH        -29.2847  -39.2480    6.0219 H       355 TYR355      0.0000
    156 OH        -29.4390  -38.9590    6.9650 O.3     355 TYR355      0.0000
    157 HZ1       -36.5262  -30.6122   -8.7177 H       360 LYS360      0.0000
    158 NZ        -37.0810  -30.0700   -8.0870 N.4     360 LYS360      1.0000
    159 HZ2       -37.6952  -29.4770   -8.6065 H       360 LYS360      0.0000
    160 HZ3       -36.4845  -29.5124   -7.5104 H       360 LYS360      0.0000
    161 HH        -31.4962  -40.2585  -15.6512 H       373 TYR373      0.0000
    162 OH        -31.5330  -40.6670  -14.7410 O.3     373 TYR373      0.0000
    163 HH        -38.3182  -49.6330    2.0198 H       385 TYR385      0.0000
    164 OH        -38.5070  -49.7260    2.9980 O.3     385 TYR385      0.0000
    165 HG        -53.7865  -53.2987   22.4935 H       394 SER394      0.0000
    166 OG        -52.8560  -53.6470   22.3880 O.3     394 SER394      0.0000
    167 HZ1       -57.2444  -44.4490   20.8862 H       396 LYS396      0.0000
    168 NZ        -56.8890  -45.1950   21.4480 N.4     396 LYS396      1.0000
    169 HZ2       -57.3681  -45.2124   22.3255 H       396 LYS396      0.0000
    170 HZ3       -55.9112  -45.0607   21.6033 H       396 LYS396      0.0000
    171 HG        -64.5626  -50.0438   19.9400 H       399 SER399      0.0000
    172 OG        -64.8050  -49.1850   19.4900 O.3     399 SER399      0.0000
    173 HH        -63.5297  -53.9195   16.0190 H       402 TYR402      0.0000
    174 OH        -63.4400  -54.9110   16.0920 O.3     402 TYR402      0.0000
    175 HG        -56.4574  -61.4742   21.3673 H       403 SER403      0.0000
    176 OG        -56.3060  -60.7630   20.6820 O.3     403 SER403      0.0000
    177 HH        -46.4524  -57.4390   17.4454 H       404 TYR404      0.0000
    178 OH        -47.2120  -57.3120   16.8100 O.3     404 TYR404      0.0000
    179 HG1       -60.3609  -64.1982    6.3113 H       411 THR411      0.0000
    180 OG1       -61.0480  -63.9800    7.0130 O.3     411 THR411      0.0000
    181 HG        -65.7119  -59.0981   10.5823 H       412 SER412      0.0000
    182 OG        -65.0720  -59.6800   10.0830 O.3     412 SER412      0.0000
    183 HH        -62.9776  -52.5938   16.0112 H       417 TYR417      0.0000
    184 OH        -63.8670  -52.2620   15.7010 O.3     417 TYR417      0.0000
    185 HG        -26.7197  -62.2902    8.7845 H       455 SER455      0.0000
    186 OG        -26.5990  -63.2690    8.6260 O.3     455 SER455      0.0000
    187 HZ1       -11.6202  -55.5528    7.2984 H       468 LYS468      0.0000
    188 NZ        -11.4800  -54.5700    7.4110 N.4     468 LYS468      1.0000
    189 HZ2       -10.8148  -54.2465    6.7387 H       468 LYS468      0.0000
    190 HZ3       -11.1429  -54.3833    8.3329 H       468 LYS468      0.0000
    191 HZ1       -10.2349  -43.8852   13.8663 H       473 LYS473      0.0000
    192 NZ        -11.2340  -43.8560   13.8500 N.4     473 LYS473      1.0000
    193 HZ2       -11.5384  -42.9472   13.5660 H       473 LYS473      0.0000
    194 HZ3       -11.5914  -44.0602   14.7611 H       473 LYS473      0.0000
    195 HH        -21.9151  -47.2578   16.0565 H       475 TYR475      0.0000
    196 OH        -22.0570  -48.1150   15.5640 O.3     475 TYR475      0.0000
    197 HG1       -13.3775  -50.1860   20.4835 H       476 THR476      0.0000
    198 OG1       -13.0660  -49.5060   19.8110 O.3     476 THR476      0.0000
    199 HG        -15.3291  -50.0033   23.3056 H       477 SER477      0.0000
    200 OG        -15.6220  -50.5540   22.5250 O.3     477 SER477      0.0000
    201 HZ1       -19.3470  -46.4414   32.8161 H       485 LYS485      0.0000
    202 NZ        -20.1320  -46.7880   32.3030 N.4     485 LYS485      1.0000
    203 HZ2       -20.4709  -46.0761   31.6888 H       485 LYS485      0.0000
    204 HZ3       -20.8561  -47.0545   32.9381 H       485 LYS485      0.0000
    205 HZ1       -27.7044  -43.7176   22.8411 H       511 LYS511      0.0000
    206 NZ        -26.7900  -43.3340   22.7180 N.4     511 LYS511      1.0000
    207 HZ2       -26.7414  -42.4358   23.1532 H       511 LYS511      0.0000
    208 HZ3       -26.5923  -43.2450   21.7422 H       511 LYS511      0.0000
    209 HG        -32.2390  -43.0258   16.9160 H       516 SER516      0.0000
    210 OG        -31.9800  -42.6720   16.0180 O.3     516 SER516      0.0000
    211 HG        -35.1694  -47.2500    1.3759 H       530 SER530      0.0000
    212 OG        -34.2320  -47.4470    1.0930 O.3     530 SER530      0.0000
    213 HZ1       -27.3055  -48.9895  -10.8516 H       532 LYS532      0.0000
    214 NZ        -27.6550  -48.3070  -10.2110 N.4     532 LYS532      1.0000
    215 HZ2       -28.3740  -47.7711  -10.6512 H       532 LYS532      0.0000
    216 HZ3       -26.9119  -47.7023   -9.9274 H       532 LYS532      0.0000
    217 HG        -35.8145  -43.3431  -19.3933 H       541 SER541      0.0000
    218 OG        -35.8170  -43.9740  -18.6180 O.3     541 SER541      0.0000
    219 HH        -39.2791  -49.6937  -20.3371 H       544 TYR544      0.0000
    220 OH        -39.2750  -49.0250  -21.0780 O.3     544 TYR544      0.0000
    221 HZ1       -39.8373  -39.2515  -26.2260 H       546 LYS546      0.0000
    222 NZ        -38.9760  -38.9140  -25.8470 N.4     546 LYS546      1.0000
    223 HZ2       -38.8036  -37.9875  -26.1804 H       546 LYS546      0.0000
    224 HZ3       -38.2283  -39.5149  -26.1276 H       546 LYS546      0.0000
    225 HG        -44.3437  -39.9048  -25.1927 H       548 SER548      0.0000
    226 OG        -44.5870  -39.4220  -24.3530 O.3     548 SER548      0.0000
    227 HG1       -43.3416  -42.3695  -21.8654 H       549 THR549      0.0000
    228 OG1       -43.1030  -42.0380  -20.9460 O.3     549 THR549      0.0000
    229 HZ1       -44.6463  -34.8419  -13.6187 H       560 LYS560      0.0000
    230 NZ        -44.3980  -33.9200  -13.9130 N.4     560 LYS560      1.0000
    231 HZ2       -44.8306  -33.7217  -14.7917 H       560 LYS560      0.0000
    232 HZ3       -43.4045  -33.8531  -14.0051 H       560 LYS560      0.0000
    233 HG1       -49.5481  -33.4390   -8.7031 H       561 THR561      0.0000
    234 OG1       -50.0060  -33.4230   -7.8080 O.3     561 THR561      0.0000
    235 HG1       -51.5516  -35.4316    0.1732 H       563 THR563      0.0000
    236 OG1       -51.2400  -36.2740   -0.2790 O.3     563 THR563      0.0000
    237 HZ1       -56.1626  -35.3115    5.2866 H       565 LYS565      0.0000
    238 NZ        -55.2080  -35.3570    5.5790 N.4     565 LYS565      1.0000
    239 HZ2       -54.9057  -36.3098    5.5902 H       565 LYS565      0.0000
    240 HZ3       -55.1202  -34.9674    6.4958 H       565 LYS565      0.0000
    241 HZ1       -51.4897  -34.8638   -5.7717 H       566 LYS566      0.0000
    242 NZ        -52.4230  -34.8340   -6.1280 N.4     566 LYS566      1.0000
    243 HZ2       -52.4998  -35.4441   -6.9165 H       566 LYS566      0.0000
    244 HZ3       -52.6461  -33.8997   -6.4047 H       566 LYS566      0.0000
    245 HG1       -61.0682  -41.1879    2.8671 H       572 THR572      0.0000
    246 OG1       -61.3190  -41.3360    1.9050 O.3     572 THR572      0.0000
    247 HZ1       -71.4023  -43.4177    0.3428 H       573 LYS573      0.0000
    248 NZ        -71.0950  -42.6030    0.8330 N.4     573 LYS573      1.0000
    249 HZ2       -71.8826  -42.1365    1.2339 H       573 LYS573      0.0000
    250 HZ3       -70.6271  -41.9876    0.1994 H       573 LYS573      0.0000
    251 HG1       -64.6450  -41.1537    5.5512 H       574 THR574      0.0000
    252 OG1       -64.6450  -40.3960    6.2120 O.3     574 THR574      0.0000
    253 HH        -50.6512  -36.0902   12.2676 H       577 TYR577      0.0000
    254 OH        -50.9160  -36.9720   12.6540 O.3     577 TYR577      0.0000
    255 HG        -48.8284  -37.8961   10.3455 H       579 SER579      0.0000
    256 OG        -49.7460  -38.1280   10.0250 O.3     579 SER579      0.0000
@<TRIPOS>BOND
     1    2    4 1
     2    2    1 1
     3    2    3 1
     4    6    5 1
     5    8    7 1
     6   10    9 1
     7   12   11 1
     8   14   13 1
     9   16   15 1
    10   18   17 1
    11   20   19 1
    12   22   21 1
    13   24   23 1
    14   26   25 1
    15   28   27 1
    16   30   29 1
    17   32   31 1
    18   34   33 1
    19   36   35 1
    20   38   37 1
    21   40   39 1
    22   42   41 1
    23   44   43 1
    24   46   45 1
    25   48   47 1
    26   50   49 1
    27   52   51 1
    28   54   53 1
    29   56   55 1
    30   58   57 1
    31   60   59 1
    32   62   61 1
    33   64   63 1
    34   66   65 1
    35   68   69 1
    36   68   70 1
    37   68   67 1
    38   72   71 1
    39   74   73 1
    40   76   75 1
    41   76   77 1
    42   76   78 1
    43   80   79 1
    44   80   81 1
    45   80   82 1
    46   84   83 1
    47   84   85 1
    48   84   86 1
    49   88   89 1
    50   88   87 1
    51   88   90 1
    52   92   91 1
    53   94   93 1
    54   96   95 1
    55   96   97 1
    56   96   98 1
    57  100   99 1
    58  102  101 1
    59  104  105 1
    60  104  106 1
    61  104  103 1
    62  108  107 1
    63  110  109 1
    64  110  111 1
    65  110  112 1
    66  114  113 1
    67  116  115 1
    68  116  117 1
    69  116  118 1
    70  120  122 1
    71  120  119 1
    72  120  121 1
    73  124  125 1
    74  124  126 1
    75  124  123 1
    76  128  127 1
    77  130  129 1
    78  132  131 1
    79  134  133 1
    80  136  135 1
    81  138  137 1
    82  138  139 1
    83  138  140 1
    84  142  141 1
    85  144  143 1
    86  146  145 1
    87  148  147 1
    88  150  149 1
    89  150  151 1
    90  150  152 1
    91  154  153 1
    92  156  155 1
    93  158  157 1
    94  158  160 1
    95  158  159 1
    96  162  161 1
    97  164  163 1
    98  166  165 1
    99  168  167 1
   100  168  169 1
   101  168  170 1
   102  172  171 1
   103  174  173 1
   104  176  175 1
   105  178  177 1
   106  180  179 1
   107  182  181 1
   108  184  183 1
   109  186  185 1
   110  188  187 1
   111  188  189 1
   112  188  190 1
   113  192  191 1
   114  192  193 1
   115  192  194 1
   116  196  195 1
   117  198  197 1
   118  200  199 1
   119  202  201 1
   120  202  203 1
   121  202  204 1
   122  206  205 1
   123  206  207 1
   124  206  208 1
   125  210  209 1
   126  212  211 1
   127  214  213 1
   128  214  215 1
   129  214  216 1
   130  218  217 1
   131  220  219 1
   132  222  221 1
   133  222  223 1
   134  222  224 1
   135  226  225 1
   136  228  227 1
   137  230  231 1
   138  230  229 1
   139  230  232 1
   140  234  233 1
   141  236  235 1
   142  238  237 1
   143  238  239 1
   144  238  240 1
   145  242  241 1
   146  242  243 1
   147  242  244 1
   148  246  245 1
   149  248  250 1
   150  248  247 1
   151  248  249 1
   152  252  251 1
   153  254  253 1
   154  256  255 1
@<TRIPOS>SUBSTRUCTURE
28 GLY28 1
31 THR31 5
38 TYR38 7
39 TYR39 9
55 TYR55 11
60 THR60 13
62 THR62 15
64 TYR64 17
65 SER65 19
70 THR70 21
76 THR76 23
81 SER81 25
85 SER85 27
87 SER87 29
89 THR89 31
94 THR94 33
106 THR106 35
118 THR118 37
121 SER121 39
126 SER126 41
129 THR129 43
130 TYR130 45
132 SER132 47
136 TYR136 49
138 SER138 51
141 SER141 53
143 SER143 55
146 SER146 57
147 TYR147 59
148 TYR148 61
149 THR149 63
154 SER154 65
157 LYS157 67
161 THR161 71
165 THR165 73
166 LYS166 75
168 LYS168 79
169 LYS169 83
186 LYS186 87
194 THR194 91
206 THR206 93
211 LYS211 95
212 THR212 99
213 SER213 101
215 LYS215 103
221 THR221 107
222 LYS222 109
242 TYR242 113
248 LYS248 115
251 LYS251 119
253 LYS253 123
254 TYR254 127
262 TYR262 129
265 SER265 131
275 TYR275 133
283 SER283 135
317 LYS317 137
322 THR322 141
331 THR331 143
339 GLU339 145
340 THR340 147
342 LYS342 149
353 SER353 153
355 TYR355 155
360 LYS360 157
373 TYR373 161
385 TYR385 163
394 SER394 165
396 LYS396 167
399 SER399 171
402 TYR402 173
403 SER403 175
404 TYR404 177
411 THR411 179
412 SER412 181
417 TYR417 183
455 SER455 185
468 LYS468 187
473 LYS473 191
475 TYR475 195
476 THR476 197
477 SER477 199
485 LYS485 201
511 LYS511 205
516 SER516 209
530 SER530 211
532 LYS532 213
541 SER541 217
544 TYR544 219
546 LYS546 221
548 SER548 225
549 THR549 227
560 LYS560 229
561 THR561 233
563 THR563 235
565 LYS565 237
566 LYS566 241
572 THR572 245
573 LYS573 247
574 THR574 251
577 TYR577 253
579 SER579 255
@<TRIPOS>COMMENT
