@<TRIPOS>MOLECULE
aspirin_entry_00001_conf_37
20 20 1
SMALL
NO_CHARGES


@<TRIPOS>ATOM
      1 C         -12.6560  -57.7026    2.5274 C.3       1 UNL1        0.0000
      2 C         -13.2429  -58.0638    1.2122 C.2       1 UNL1        0.0000
      3 C         -13.2818  -59.5075   -0.7516 C.ar      1 UNL1        0.0000
      4 C         -13.6537  -58.6387   -1.7555 C.ar      1 UNL1        0.0000
      5 C         -14.1122  -59.0534   -2.9901 C.ar      1 UNL1        0.0000
      6 C         -14.2012  -60.4034   -3.2290 C.ar      1 UNL1        0.0000
      7 C         -13.8430  -61.3154   -2.2604 C.ar      1 UNL1        0.0000
      8 C         -13.3835  -60.8578   -1.0245 C.ar      1 UNL1        0.0000
      9 C         -13.0150  -61.8559   -0.0277 C.2       1 UNL1        0.0000
     10 O         -14.1759  -57.3939    0.6741 O.2       1 UNL1        0.0000
     11 O         -12.8226  -59.1413    0.4846 O.3       1 UNL1        0.0000
     12 O         -13.1748  -63.0831   -0.2510 O.co2     1 UNL1       -0.5000
     13 O         -12.4799  -61.4935    1.1971 O.co2     1 UNL1       -0.5000
     14 H         -13.1411  -56.8270    2.9054 H         1 UNL1        0.0000
     15 H         -11.6105  -57.5082    2.4098 H         1 UNL1        0.0000
     16 H         -12.7933  -58.5119    3.2133 H         1 UNL1        0.0000
     17 H         -13.5855  -57.6252   -1.5748 H         1 UNL1        0.0000
     18 H         -14.3799  -58.3677   -3.7141 H         1 UNL1        0.0000
     19 H         -14.5408  -60.7388   -4.1441 H         1 UNL1        0.0000
     20 H         -13.9124  -62.3283   -2.4472 H         1 UNL1        0.0000
@<TRIPOS>BOND
     1    1    2 1
     2    1   14 1
     3    1   15 1
     4    1   16 1
     5    2   10 2
     6    2   11 1
     7    3    4 ar
     8    3    8 ar
     9    3   11 1
    10    4    5 ar
    11    4   17 1
    12    5    6 ar
    13    5   18 1
    14    6    7 ar
    15    6   19 1
    16    7    8 ar
    17    7   20 1
    18    8    9 1
    19    9   12 ar
    20    9   13 ar
@<TRIPOS>SUBSTRUCTURE
1 UNL1 1
@<TRIPOS>COMMENT
aspirin
PLANTSproteinTorsions
102
1 216.2993
42 223.8788
151 219.7505
173 143.9862
432 57.8501
491 354.0644
531 27.7023
563 100.4240
572 329.5235
629 221.4117
730 152.4481
826 142.9276
895 64.3793
921 194.8334
954 124.4989
1044 148.5349
1258 83.6716
1480 58.3843
1534 198.2958
1612 86.8840
1654 143.6595
1680 278.2580
1704 75.4080
1767 169.9824
1795 38.6502
1847 207.0165
1879 261.9715
1921 18.9003
1944 330.1502
1966 172.7685
1975 14.2109
2067 135.4736
2118 347.1548
2167 235.5394
2220 195.8091
2243 296.4367
2272 164.6547
2294 27.5980
2609 109.3253
2728 338.9496
2931 5.2963
3031 9.4608
3044 165.0571
3058 156.8298
3085 352.5350
3166 244.8342
3188 231.4779
3496 36.5008
3614 141.6094
3656 163.7265
3697 140.6702
3722 298.2302
3847 18.9893
3888 178.8608
4051 100.2971
4174 98.4549
4734 26.5646
4804 139.0173
4952 13.4439
5093 47.9590
5103 358.7871
5144 29.9024
5332 129.4224
5363 147.9560
5457 336.9798
5683 140.5316
5900 118.1783
6049 255.0149
6089 76.9306
6125 90.7305
6181 265.8331
6190 249.0811
6214 334.5482
6331 233.3418
6344 129.9418
6432 128.6714
7006 327.0641
7253 189.2544
7344 159.6646
7385 275.7489
7394 246.0425
7408 105.3009
7540 215.4806
7948 144.5573
8021 144.9562
8226 157.6666
8265 58.3158
8391 45.2293
8443 60.9832
8487 227.3993
8515 265.7133
8527 105.2549
8693 232.3606
8705 261.1614
8731 262.6473
8771 115.9487
8793 186.6027
8887 312.9015
8910 266.6030
8921 74.1466
8973 8.3552
8998 209.5219
PLANTSmolcadARTstart hb
PLANTSmolcadARTstart HB
LINES
PLANTSmolcadARTstart HBCH
LINES
PLANTSmolcadARTstart HB-CHO
LINES
PLANTSmolcadARTend
PLANTSmolcadARTstart HB_WATER
LINES
PLANTSmolcadARTend

PLANTSmolcadARTend

