@<TRIPOS>MOLECULE
aspirin_entry_00001_conf_12
20 20 1
SMALL
NO_CHARGES


@<TRIPOS>ATOM
      1 C         -15.1082  -60.9566   -8.1714 C.3       1 UNL1        0.0000
      2 C         -14.4489  -61.7007   -7.0685 C.2       1 UNL1        0.0000
      3 C         -14.2711  -62.1568   -4.6805 C.ar      1 UNL1        0.0000
      4 C         -14.1339  -63.5286   -4.6982 C.ar      1 UNL1        0.0000
      5 C         -13.7757  -64.2722   -3.5912 C.ar      1 UNL1        0.0000
      6 C         -13.5436  -63.6082   -2.4112 C.ar      1 UNL1        0.0000
      7 C         -13.6671  -62.2379   -2.3377 C.ar      1 UNL1        0.0000
      8 C         -14.0307  -61.5204   -3.4783 C.ar      1 UNL1        0.0000
      9 C         -14.1501  -60.0723   -3.3575 C.2       1 UNL1        0.0000
     10 O         -13.6766  -62.6853   -7.2757 O.2       1 UNL1        0.0000
     11 O         -14.6234  -61.3810   -5.7516 O.3       1 UNL1        0.0000
     12 O         -13.5723  -59.4507   -2.4295 O.co2     1 UNL1       -0.5000
     13 O         -14.9015  -59.3300   -4.2530 O.co2     1 UNL1       -0.5000
     14 H         -14.8233  -61.3846   -9.1098 H         1 UNL1        0.0000
     15 H         -14.8048  -59.9311   -8.1405 H         1 UNL1        0.0000
     16 H         -16.1700  -61.0180   -8.0578 H         1 UNL1        0.0000
     17 H         -14.3077  -64.0257   -5.5854 H         1 UNL1        0.0000
     18 H         -13.6839  -65.2990   -3.6492 H         1 UNL1        0.0000
     19 H         -13.2743  -64.1414   -1.5696 H         1 UNL1        0.0000
     20 H         -13.4909  -61.7458   -1.4475 H         1 UNL1        0.0000
@<TRIPOS>BOND
     1    1    2 1
     2    1   14 1
     3    1   15 1
     4    1   16 1
     5    2   10 2
     6    2   11 1
     7    3    4 ar
     8    3    8 ar
     9    3   11 1
    10    4    5 ar
    11    4   17 1
    12    5    6 ar
    13    5   18 1
    14    6    7 ar
    15    6   19 1
    16    7    8 ar
    17    7   20 1
    18    8    9 1
    19    9   12 ar
    20    9   13 ar
@<TRIPOS>SUBSTRUCTURE
1 UNL1 1
@<TRIPOS>COMMENT
aspirin
PLANTSproteinTorsions
102
1 29.2429
42 188.7168
151 95.6651
173 264.5529
432 86.3184
491 66.5311
531 98.6692
563 299.8192
572 64.5289
629 37.4439
730 249.7150
826 146.0889
895 61.4920
921 80.4804
954 81.4482
1044 187.6340
1258 41.1811
1480 237.6734
1534 149.5519
1612 22.2549
1654 29.1421
1680 321.2163
1704 263.2676
1767 75.8492
1795 115.6582
1847 152.4884
1879 132.6248
1921 56.5854
1944 340.1760
1966 247.2221
1975 289.5571
2067 107.4284
2118 110.6045
2167 142.7998
2220 251.4361
2243 71.4209
2272 253.9648
2294 51.4520
2609 123.0215
2728 161.5178
2931 144.2617
3031 52.7381
3044 192.3048
3058 180.6838
3085 9.1868
3166 350.5299
3188 40.4518
3496 133.7852
3614 126.4522
3656 68.2774
3697 201.7357
3722 76.7679
3847 86.3808
3888 235.8500
4051 60.9750
4174 194.4746
4734 85.6866
4804 105.2278
4952 39.5247
5093 265.5293
5103 241.9283
5144 335.7014
5332 89.3555
5363 9.0498
5457 190.1151
5683 222.0268
5900 187.4824
6049 65.4883
6089 248.3765
6125 32.9536
6181 190.8807
6190 297.9557
6214 160.0139
6331 350.5373
6344 254.9024
6432 141.1640
7006 140.7031
7253 247.2773
7344 23.1168
7385 248.2539
7394 252.9556
7408 249.6698
7540 160.2968
7948 40.6274
8021 122.1160
8226 265.6816
8265 197.9935
8391 191.8828
8443 104.5261
8487 159.0731
8515 218.6093
8527 133.7774
8693 229.4025
8705 317.2095
8731 158.3840
8771 202.2311
8793 147.3544
8887 123.8142
8910 213.8202
8921 151.0058
8973 102.0443
8998 102.1662
PLANTSmolcadARTstart hb
PLANTSmolcadARTstart HB
LINES
-13.5723 -59.4507 -2.42948 -11.654 -59.599 -3.055 0 255 0 5
-14.9015 -59.33 -4.25299 -16.1543 -58.9731 -5.29496 0 255 0 5
PLANTSmolcadARTstart HBCH
LINES
PLANTSmolcadARTstart HB-CHO
LINES
PLANTSmolcadARTend
PLANTSmolcadARTstart HB_WATER
LINES
PLANTSmolcadARTend

PLANTSmolcadARTend

