@<TRIPOS>MOLECULE
aspirin_entry_00001_conf_75
20 20 1
SMALL
NO_CHARGES


@<TRIPOS>ATOM
      1 C         -38.8115  -57.9562    5.6376 C.3       1 UNL1        0.0000
      2 C         -40.1441  -58.5913    5.7972 C.2       1 UNL1        0.0000
      3 C         -41.4935  -60.5563    6.3075 C.ar      1 UNL1        0.0000
      4 C         -42.6282  -59.9903    6.8491 C.ar      1 UNL1        0.0000
      5 C         -43.8109  -60.6796    7.0296 C.ar      1 UNL1        0.0000
      6 C         -43.8577  -61.9986    6.6480 C.ar      1 UNL1        0.0000
      7 C         -42.7524  -62.6137    6.1018 C.ar      1 UNL1        0.0000
      8 C         -41.5745  -61.8839    5.9347 C.ar      1 UNL1        0.0000
      9 C         -40.4285  -62.5724    5.3531 C.2       1 UNL1        0.0000
     10 O         -41.2281  -57.9489    5.6521 O.2       1 UNL1        0.0000
     11 O         -40.3023  -59.9118    6.1107 O.3       1 UNL1        0.0000
     12 O         -40.5535  -63.7098    4.8314 O.co2     1 UNL1       -0.5000
     13 O         -39.1652  -62.0052    5.3544 O.co2     1 UNL1       -0.5000
     14 H         -38.9369  -56.9221    5.3930 H         1 UNL1        0.0000
     15 H         -38.2752  -58.4459    4.8519 H         1 UNL1        0.0000
     16 H         -38.2633  -58.0436    6.5520 H         1 UNL1        0.0000
     17 H         -42.5917  -58.9995    7.1344 H         1 UNL1        0.0000
     18 H         -44.6377  -60.2162    7.4391 H         1 UNL1        0.0000
     19 H         -44.7303  -62.5355    6.7723 H         1 UNL1        0.0000
     20 H         -42.7951  -63.6051    5.8174 H         1 UNL1        0.0000
@<TRIPOS>BOND
     1    1    2 1
     2    1   14 1
     3    1   15 1
     4    1   16 1
     5    2   10 2
     6    2   11 1
     7    3    4 ar
     8    3    8 ar
     9    3   11 1
    10    4    5 ar
    11    4   17 1
    12    5    6 ar
    13    5   18 1
    14    6    7 ar
    15    6   19 1
    16    7    8 ar
    17    7   20 1
    18    8    9 1
    19    9   12 ar
    20    9   13 ar
@<TRIPOS>SUBSTRUCTURE
1 UNL1 1
@<TRIPOS>COMMENT
aspirin
PLANTSproteinTorsions
102
1 178.7079
42 174.0354
151 61.6139
173 173.9871
432 75.0461
491 26.5794
531 101.8767
563 69.6256
572 256.1975
629 24.4715
730 348.7953
826 43.1883
895 82.7266
921 44.7723
954 56.2564
1044 122.9073
1258 60.4179
1480 259.1465
1534 137.2190
1612 24.8343
1654 89.4482
1680 168.7482
1704 246.0015
1767 74.0587
1795 33.0618
1847 296.9031
1879 205.3791
1921 109.7521
1944 32.1903
1966 81.5283
1975 268.4479
2067 114.3779
2118 116.4764
2167 96.8201
2220 237.4611
2243 116.5011
2272 171.2108
2294 81.8244
2609 93.3266
2728 187.7435
2931 87.9779
3031 29.1739
3044 17.6462
3058 208.4935
3085 42.7432
3166 204.1505
3188 320.5706
3496 146.1444
3614 128.7658
3656 230.8107
3697 171.3627
3722 352.3149
3847 89.5421
3888 234.3503
4051 42.8172
4174 340.0287
4734 26.8779
4804 130.9796
4952 87.1352
5093 14.0803
5103 226.7711
5144 357.7759
5332 57.2717
5363 150.5136
5457 50.5711
5683 217.4389
5900 205.0491
6049 165.9540
6089 249.0356
6125 27.5150
6181 188.2181
6190 266.9117
6214 127.3177
6331 101.8457
6344 180.8093
6432 144.2503
7006 217.1010
7253 107.9265
7344 129.0001
7385 145.8006
7394 52.1557
7408 243.5939
7540 175.1191
7948 164.2599
8021 99.9473
8226 294.7645
8265 236.1003
8391 173.9721
8443 252.9200
8487 156.2532
8515 208.7800
8527 115.5892
8693 266.7051
8705 259.7555
8731 31.5091
8771 186.0966
8793 264.1310
8887 265.1740
8910 191.1733
8921 266.6461
8973 265.5979
8998 212.2442
PLANTSmolcadARTstart hb
PLANTSmolcadARTstart HB
LINES
PLANTSmolcadARTstart HBCH
LINES
PLANTSmolcadARTstart HB-CHO
LINES
-41.2281 -57.9489 5.65205 -43.2 -58.952 4.492 0 255 255 5
-39.1652 -62.0052 5.35439 -37.486 -61.093 6.901 0 255 255 5
PLANTSmolcadARTend
PLANTSmolcadARTstart HB_WATER
LINES
PLANTSmolcadARTend

PLANTSmolcadARTend

