@<TRIPOS>MOLECULE
aspirin_entry_00001_conf_14
20 20 1
SMALL
NO_CHARGES


@<TRIPOS>ATOM
      1 C         -43.5023  -55.7643   10.8110 C.3       1 UNL1        0.0000
      2 C         -43.8121  -56.5902    9.6165 C.2       1 UNL1        0.0000
      3 C         -42.5819  -55.2066    8.0308 C.ar      1 UNL1        0.0000
      4 C         -42.6793  -53.9342    8.5527 C.ar      1 UNL1        0.0000
      5 C         -41.8425  -52.8970    8.1913 C.ar      1 UNL1        0.0000
      6 C         -40.8614  -53.1484    7.2630 C.ar      1 UNL1        0.0000
      7 C         -40.7202  -54.4021    6.7092 C.ar      1 UNL1        0.0000
      8 C         -41.5850  -55.4255    7.1000 C.ar      1 UNL1        0.0000
      9 C         -41.4012  -56.7368    6.4898 C.2       1 UNL1        0.0000
     10 O         -44.4939  -57.6576    9.6830 O.2       1 UNL1        0.0000
     11 O         -43.3881  -56.2626    8.3596 O.3       1 UNL1        0.0000
     12 O         -40.6524  -56.8862    5.4906 O.co2     1 UNL1       -0.5000
     13 O         -42.0417  -57.8614    6.9823 O.co2     1 UNL1       -0.5000
     14 H         -43.9372  -56.2156   11.6783 H         1 UNL1        0.0000
     15 H         -43.9060  -54.7823   10.6797 H         1 UNL1        0.0000
     16 H         -42.4417  -55.7005   10.9347 H         1 UNL1        0.0000
     17 H         -43.4161  -53.7472    9.2503 H         1 UNL1        0.0000
     18 H         -41.9506  -51.9585    8.6080 H         1 UNL1        0.0000
     19 H         -40.2230  -52.3898    6.9764 H         1 UNL1        0.0000
     20 H         -39.9805  -54.5836    6.0123 H         1 UNL1        0.0000
@<TRIPOS>BOND
     1    1    2 1
     2    1   14 1
     3    1   15 1
     4    1   16 1
     5    2   10 2
     6    2   11 1
     7    3    4 ar
     8    3    8 ar
     9    3   11 1
    10    4    5 ar
    11    4   17 1
    12    5    6 ar
    13    5   18 1
    14    6    7 ar
    15    6   19 1
    16    7    8 ar
    17    7   20 1
    18    8    9 1
    19    9   12 ar
    20    9   13 ar
@<TRIPOS>SUBSTRUCTURE
1 UNL1 1
@<TRIPOS>COMMENT
aspirin
PLANTSproteinTorsions
102
1 258.9506
42 97.9773
151 234.4224
173 8.9167
432 293.3842
491 47.6522
531 203.9642
563 69.7565
572 113.3712
629 43.3232
730 130.6781
826 27.6242
895 18.9869
921 41.2183
954 119.2579
1044 47.6274
1258 140.0889
1480 133.9107
1534 52.5485
1612 45.1807
1654 152.7474
1680 252.7084
1704 180.5120
1767 219.6230
1795 12.3749
1847 322.5060
1879 125.1121
1921 156.2460
1944 216.1413
1966 249.8954
1975 157.5099
2067 95.4436
2118 277.1805
2167 103.9209
2220 74.1656
2243 118.5937
2272 114.4165
2294 255.5408
2609 185.8143
2728 6.5399
2931 177.7496
3031 300.5898
3044 305.0720
3058 151.2914
3085 286.9498
3166 352.9584
3188 198.2953
3496 144.0225
3614 186.7489
3656 325.0099
3697 227.4450
3722 5.7082
3847 3.1436
3888 224.0997
4051 116.6575
4174 76.2840
4734 198.1523
4804 95.6125
4952 181.1975
5093 155.6421
5103 42.7938
5144 68.7642
5332 246.3523
5363 24.9520
5457 186.3470
5683 234.2879
5900 49.0818
6049 260.6223
6089 228.0415
6125 113.9604
6181 94.6181
6190 140.2381
6214 272.0396
6331 327.0125
6344 148.6176
6432 232.1178
7006 269.8803
7253 131.0908
7344 295.2864
7385 236.8706
7394 191.7525
7408 235.2198
7540 271.9283
7948 250.7114
8021 73.2896
8226 36.8896
8265 201.8845
8391 179.1494
8443 213.9120
8487 237.7760
8515 135.6450
8527 253.6073
8693 257.9203
8705 129.0444
8731 97.7173
8771 268.1664
8793 69.6619
8887 225.8730
8910 79.1778
8921 191.3903
8973 262.6281
8998 306.5187
PLANTSmolcadARTstart hb
PLANTSmolcadARTstart HB
LINES
PLANTSmolcadARTstart HBCH
LINES
PLANTSmolcadARTstart HB-CHO
LINES
PLANTSmolcadARTend
PLANTSmolcadARTstart HB_WATER
LINES
PLANTSmolcadARTend

PLANTSmolcadARTend

