@<TRIPOS>MOLECULE
aspirin_entry_00001_conf_04
20 20 1
SMALL
NO_CHARGES


@<TRIPOS>ATOM
      1 C         -14.5072  -60.3444   -3.9530 C.3       1 UNL1        0.0000
      2 C         -14.2484  -59.3805   -2.8536 C.2       1 UNL1        0.0000
      3 C         -14.8948  -57.3911   -1.6019 C.ar      1 UNL1        0.0000
      4 C         -14.2861  -57.5953   -0.3817 C.ar      1 UNL1        0.0000
      5 C         -14.1051  -56.5972    0.5552 C.ar      1 UNL1        0.0000
      6 C         -14.5552  -55.3348    0.2534 C.ar      1 UNL1        0.0000
      7 C         -15.1711  -55.0758   -0.9516 C.ar      1 UNL1        0.0000
      8 C         -15.3358  -56.1106   -1.8736 C.ar      1 UNL1        0.0000
      9 C         -15.9924  -55.7939   -3.1362 C.2       1 UNL1        0.0000
     10 O         -13.2210  -59.4497   -2.1131 O.2       1 UNL1        0.0000
     11 O         -15.0947  -58.3491   -2.5586 O.3       1 UNL1        0.0000
     12 O         -16.5702  -54.6900   -3.3060 O.co2     1 UNL1       -0.5000
     13 O         -16.0070  -56.6917   -4.1905 O.co2     1 UNL1       -0.5000
     14 H         -13.7117  -61.0589   -3.9946 H         1 UNL1        0.0000
     15 H         -14.5625  -59.8180   -4.8828 H         1 UNL1        0.0000
     16 H         -15.4328  -60.8496   -3.7735 H         1 UNL1        0.0000
     17 H         -13.9478  -58.5437   -0.1569 H         1 UNL1        0.0000
     18 H         -13.6431  -56.7942    1.4573 H         1 UNL1        0.0000
     19 H         -14.4315  -54.5715    0.9369 H         1 UNL1        0.0000
     20 H         -15.5067  -54.1246   -1.1715 H         1 UNL1        0.0000
@<TRIPOS>BOND
     1    1    2 1
     2    1   14 1
     3    1   15 1
     4    1   16 1
     5    2   10 2
     6    2   11 1
     7    3    4 ar
     8    3    8 ar
     9    3   11 1
    10    4    5 ar
    11    4   17 1
    12    5    6 ar
    13    5   18 1
    14    6    7 ar
    15    6   19 1
    16    7    8 ar
    17    7   20 1
    18    8    9 1
    19    9   12 ar
    20    9   13 ar
@<TRIPOS>SUBSTRUCTURE
1 UNL1 1
@<TRIPOS>COMMENT
aspirin
PLANTSproteinTorsions
102
1 171.3794
42 121.4665
151 1.9651
173 181.3156
432 81.3247
491 56.1572
531 45.9722
563 9.4100
572 211.2510
629 87.1167
730 89.8831
826 142.1009
895 33.0803
921 162.2148
954 192.5440
1044 95.9442
1258 145.5062
1480 353.8214
1534 146.8499
1612 62.0908
1654 125.6584
1680 255.5778
1704 6.9854
1767 220.5962
1795 74.8950
1847 223.7629
1879 138.6990
1921 66.3102
1944 134.0027
1966 226.0531
1975 66.3099
2067 96.3595
2118 87.0003
2167 221.1254
2220 261.7629
2243 226.7930
2272 289.0439
2294 281.2064
2609 180.1385
2728 50.5513
2931 292.8959
3031 304.1455
3044 183.7582
3058 0.4278
3085 303.3232
3166 244.7838
3188 125.7976
3496 239.8458
3614 52.7051
3656 237.3793
3697 57.6636
3722 296.4112
3847 178.1750
3888 137.8138
4051 104.9028
4174 239.0005
4734 160.8303
4804 118.2983
4952 17.9973
5093 61.0342
5103 49.0473
5144 313.7766
5332 211.3360
5363 267.3203
5457 176.1042
5683 62.4273
5900 89.4960
6049 223.6294
6089 102.3191
6125 227.1725
6181 118.6606
6190 99.6222
6214 212.8620
6331 182.8483
6344 340.7299
6432 89.2846
7006 24.6702
7253 195.5454
7344 123.9593
7385 204.9088
7394 149.7254
7408 98.8253
7540 109.5861
7948 264.6641
8021 173.4651
8226 82.2616
8265 91.8315
8391 64.2806
8443 67.1957
8487 69.3580
8515 232.7021
8527 228.9241
8693 264.4185
8705 269.3135
8731 267.0276
8771 131.3923
8793 163.8559
8887 202.4368
8910 92.6134
8921 66.0786
8973 144.9177
8998 287.4933
PLANTSmolcadARTstart hb
PLANTSmolcadARTstart HB
LINES
-13.221 -59.4497 -2.11307 -11.654 -59.599 -3.055 0 255 0 5
-16.007 -56.6917 -4.19048 -16.7047 -58.1208 -5.1727 0 255 0 5
PLANTSmolcadARTstart HBCH
LINES
PLANTSmolcadARTstart HB-CHO
LINES
PLANTSmolcadARTend
PLANTSmolcadARTstart HB_WATER
LINES
PLANTSmolcadARTend

PLANTSmolcadARTend

