@<TRIPOS>MOLECULE
aspirin_entry_00001_conf_52
20 20 1
SMALL
NO_CHARGES


@<TRIPOS>ATOM
      1 C         -35.5363  -63.8028    3.5562 C.3       1 UNL1        0.0000
      2 C         -34.5932  -63.3376    2.5079 C.2       1 UNL1        0.0000
      3 C         -32.7625  -62.8206    4.0322 C.ar      1 UNL1        0.0000
      4 C         -33.4174  -62.5181    5.2072 C.ar      1 UNL1        0.0000
      5 C         -32.7930  -62.4775    6.4381 C.ar      1 UNL1        0.0000
      6 C         -31.4485  -62.7542    6.4928 C.ar      1 UNL1        0.0000
      7 C         -30.7453  -63.0621    5.3486 C.ar      1 UNL1        0.0000
      8 C         -31.4114  -63.0936    4.1225 C.ar      1 UNL1        0.0000
      9 C         -30.6305  -63.4237    2.9364 C.2       1 UNL1        0.0000
     10 O         -34.8884  -63.3403    1.2744 O.2       1 UNL1        0.0000
     11 O         -33.3404  -62.8723    2.7927 O.3       1 UNL1        0.0000
     12 O         -29.3746  -63.4715    2.9812 O.co2     1 UNL1       -0.5000
     13 O         -31.2374  -63.6937    1.7213 O.co2     1 UNL1       -0.5000
     14 H         -36.4503  -64.1186    3.0980 H         1 UNL1        0.0000
     15 H         -35.7367  -63.0016    4.2362 H         1 UNL1        0.0000
     16 H         -35.1014  -64.6223    4.0886 H         1 UNL1        0.0000
     17 H         -34.4273  -62.3113    5.1645 H         1 UNL1        0.0000
     18 H         -33.3224  -62.2465    7.2939 H         1 UNL1        0.0000
     19 H         -30.9588  -62.7307    7.4010 H         1 UNL1        0.0000
     20 H         -29.7351  -63.2690    5.3975 H         1 UNL1        0.0000
@<TRIPOS>BOND
     1    1    2 1
     2    1   14 1
     3    1   15 1
     4    1   16 1
     5    2   10 2
     6    2   11 1
     7    3    4 ar
     8    3    8 ar
     9    3   11 1
    10    4    5 ar
    11    4   17 1
    12    5    6 ar
    13    5   18 1
    14    6    7 ar
    15    6   19 1
    16    7    8 ar
    17    7   20 1
    18    8    9 1
    19    9   12 ar
    20    9   13 ar
@<TRIPOS>SUBSTRUCTURE
1 UNL1 1
@<TRIPOS>COMMENT
aspirin
PLANTSproteinTorsions
102
1 169.1750
42 124.6204
151 81.1075
173 116.9055
432 31.0530
491 135.0891
531 223.2059
563 75.1370
572 238.8546
629 26.2079
730 352.1907
826 152.8925
895 84.8374
921 70.4288
954 53.2571
1044 205.1659
1258 42.3340
1480 155.5825
1534 122.3516
1612 19.1439
1654 72.0734
1680 214.2940
1704 307.7019
1767 80.6378
1795 117.7048
1847 132.3788
1879 73.5102
1921 71.0314
1944 6.2749
1966 176.6165
1975 234.4104
2067 48.4845
2118 231.3743
2167 97.7657
2220 253.7714
2243 145.1515
2272 13.6303
2294 165.4610
2609 89.6153
2728 174.2319
2931 138.7959
3031 21.7829
3044 239.5332
3058 16.8581
3085 62.3028
3166 264.8531
3188 87.3523
3496 137.7992
3614 83.1305
3656 107.1417
3697 249.7461
3722 129.1687
3847 28.2563
3888 243.5091
4051 320.3288
4174 309.5154
4734 121.9680
4804 105.8714
4952 207.1306
5093 30.1315
5103 195.9212
5144 88.6860
5332 107.8119
5363 4.0282
5457 38.6614
5683 7.2775
5900 173.2521
6049 58.3096
6089 256.2258
6125 53.0715
6181 125.9564
6190 123.7339
6214 251.2290
6331 49.5004
6344 272.1682
6432 165.7225
7006 233.9006
7253 251.8023
7344 247.9333
7385 85.2027
7394 283.5221
7408 99.8142
7540 160.6309
7948 78.6817
8021 138.5667
8226 225.6439
8265 224.5707
8391 233.5443
8443 181.7713
8487 290.7843
8515 84.1617
8527 242.5028
8693 51.3736
8705 264.0393
8731 277.5775
8771 276.4949
8793 258.2421
8887 151.3546
8910 213.4919
8921 270.1142
8973 148.3771
8998 213.0710
PLANTSmolcadARTstart hb
PLANTSmolcadARTstart HB
LINES
PLANTSmolcadARTstart HBCH
LINES
PLANTSmolcadARTstart HB-CHO
LINES
PLANTSmolcadARTend
PLANTSmolcadARTstart HB_WATER
LINES
PLANTSmolcadARTend

PLANTSmolcadARTend

