@<TRIPOS>MOLECULE
aspirin_entry_00001_conf_84
20 20 1
SMALL
NO_CHARGES


@<TRIPOS>ATOM
      1 C          -8.0000  -55.7595   10.2320 C.3       1 UNL1        0.0000
      2 C          -9.0892  -56.6823   10.6406 C.2       1 UNL1        0.0000
      3 C         -10.8146  -58.2973   10.0428 C.ar      1 UNL1        0.0000
      4 C         -12.1267  -57.8923   10.1661 C.ar      1 UNL1        0.0000
      5 C         -13.1650  -58.7539   10.4597 C.ar      1 UNL1        0.0000
      6 C         -12.8732  -60.0846   10.6370 C.ar      1 UNL1        0.0000
      7 C         -11.5786  -60.5430   10.5255 C.ar      1 UNL1        0.0000
      8 C         -10.5557  -59.6415   10.2272 C.ar      1 UNL1        0.0000
      9 C          -9.2004  -60.1677   10.1182 C.2       1 UNL1        0.0000
     10 O          -9.4754  -56.7920   11.8437 O.2       1 UNL1        0.0000
     11 O          -9.7560  -57.4795    9.7535 O.3       1 UNL1        0.0000
     12 O          -8.9912  -61.4053   10.0400 O.co2     1 UNL1       -0.5000
     13 O          -8.0975  -59.3306   10.0987 O.co2     1 UNL1       -0.5000
     14 H          -7.6309  -55.2415   11.0925 H         1 UNL1        0.0000
     15 H          -8.3792  -55.0516    9.5252 H         1 UNL1        0.0000
     16 H          -7.2067  -56.3206    9.7846 H         1 UNL1        0.0000
     17 H         -12.3444  -56.8927   10.0319 H         1 UNL1        0.0000
     18 H         -14.1342  -58.4077   10.5426 H         1 UNL1        0.0000
     19 H         -13.6318  -60.7489   10.8569 H         1 UNL1        0.0000
     20 H         -11.3670  -61.5444   10.6600 H         1 UNL1        0.0000
@<TRIPOS>BOND
     1    1    2 1
     2    1   14 1
     3    1   15 1
     4    1   16 1
     5    2   10 2
     6    2   11 1
     7    3    4 ar
     8    3    8 ar
     9    3   11 1
    10    4    5 ar
    11    4   17 1
    12    5    6 ar
    13    5   18 1
    14    6    7 ar
    15    6   19 1
    16    7    8 ar
    17    7   20 1
    18    8    9 1
    19    9   12 ar
    20    9   13 ar
@<TRIPOS>SUBSTRUCTURE
1 UNL1 1
@<TRIPOS>COMMENT
aspirin
PLANTSproteinTorsions
102
1 207.6857
42 188.4402
151 81.5489
173 294.3571
432 67.5644
491 25.2110
531 182.7185
563 167.4618
572 121.9678
629 118.5299
730 218.1684
826 11.6492
895 46.0912
921 308.1714
954 3.4669
1044 60.0253
1258 113.1699
1480 289.3445
1534 82.7929
1612 77.9957
1654 31.7526
1680 297.4851
1704 192.1043
1767 70.2474
1795 33.8928
1847 68.4330
1879 84.8472
1921 13.1209
1944 335.7802
1966 124.6963
1975 320.8375
2067 145.6690
2118 61.4744
2167 183.6398
2220 284.8871
2243 35.3800
2272 243.8580
2294 52.9898
2609 33.1834
2728 69.4278
2931 142.3116
3031 236.6971
3044 9.8958
3058 165.9024
3085 199.3715
3166 4.2007
3188 182.2072
3496 84.3154
3614 164.3408
3656 1.9816
3697 166.8524
3722 71.7921
3847 135.3545
3888 244.9695
4051 58.1005
4174 197.6817
4734 104.2323
4804 150.0826
4952 148.4858
5093 178.0072
5103 77.9489
5144 86.6913
5332 342.7736
5363 130.5995
5457 259.3942
5683 308.7892
5900 136.6679
6049 180.2960
6089 32.9522
6125 194.7496
6181 88.4052
6190 286.9377
6214 267.2863
6331 65.4950
6344 305.3756
6432 150.4166
7006 194.7776
7253 222.0555
7344 210.9939
7385 30.4150
7394 97.3231
7408 80.3549
7540 33.6232
7948 201.7944
8021 71.9354
8226 355.3635
8265 103.7209
8391 100.5655
8443 34.5335
8487 36.2237
8515 269.7136
8527 106.3193
8693 241.6653
8705 164.2524
8731 353.4522
8771 196.5484
8793 227.7123
8887 129.3238
8910 111.2115
8921 222.6910
8973 110.1566
8998 167.1328
PLANTSmolcadARTstart hb
PLANTSmolcadARTstart HB
LINES
-8.99118 -61.4053 10.04 -8.81746 -63.4102 10.0152 0 255 0 5
PLANTSmolcadARTstart HBCH
LINES
PLANTSmolcadARTstart HB-CHO
LINES
PLANTSmolcadARTend
PLANTSmolcadARTstart HB_WATER
LINES
PLANTSmolcadARTend

PLANTSmolcadARTend

