@<TRIPOS>MOLECULE
aspirin_entry_00001_conf_72
20 20 1
SMALL
NO_CHARGES


@<TRIPOS>ATOM
      1 C         -26.9297  -58.0796   30.5162 C.3       1 UNL1        0.0000
      2 C         -27.2905  -58.3520   31.9305 C.2       1 UNL1        0.0000
      3 C         -28.9664  -58.9329   33.6027 C.ar      1 UNL1        0.0000
      4 C         -28.2126  -59.5905   34.5516 C.ar      1 UNL1        0.0000
      5 C         -28.6600  -59.8529   35.8313 C.ar      1 UNL1        0.0000
      6 C         -29.9228  -59.4353   36.1754 C.ar      1 UNL1        0.0000
      7 C         -30.7186  -58.7741   35.2654 C.ar      1 UNL1        0.0000
      8 C         -30.2312  -58.5267   33.9812 C.ar      1 UNL1        0.0000
      9 C         -31.1053  -57.8244   33.0493 C.2       1 UNL1        0.0000
     10 O         -26.4387  -58.3234   32.8698 O.2       1 UNL1        0.0000
     11 O         -28.5638  -58.6520   32.3252 O.3       1 UNL1        0.0000
     12 O         -32.1671  -57.2785   33.4443 O.co2     1 UNL1       -0.5000
     13 O         -30.8033  -57.7335   31.7009 O.co2     1 UNL1       -0.5000
     14 H         -25.8826  -57.8691   30.4502 H         1 UNL1        0.0000
     15 H         -27.4857  -57.2368   30.1625 H         1 UNL1        0.0000
     16 H         -27.1608  -58.9359   29.9182 H         1 UNL1        0.0000
     17 H         -27.2642  -59.9028   34.2919 H         1 UNL1        0.0000
     18 H         -28.0615  -60.3485   36.5112 H         1 UNL1        0.0000
     19 H         -30.2802  -59.6191   37.1259 H         1 UNL1        0.0000
     20 H         -31.6664  -58.4631   35.5312 H         1 UNL1        0.0000
@<TRIPOS>BOND
     1    1    2 1
     2    1   14 1
     3    1   15 1
     4    1   16 1
     5    2   10 2
     6    2   11 1
     7    3    4 ar
     8    3    8 ar
     9    3   11 1
    10    4    5 ar
    11    4   17 1
    12    5    6 ar
    13    5   18 1
    14    6    7 ar
    15    6   19 1
    16    7    8 ar
    17    7   20 1
    18    8    9 1
    19    9   12 ar
    20    9   13 ar
@<TRIPOS>SUBSTRUCTURE
1 UNL1 1
@<TRIPOS>COMMENT
aspirin
PLANTSproteinTorsions
102
1 175.0117
42 65.8532
151 9.4758
173 113.3928
432 231.8275
491 351.5072
531 173.4986
563 31.2796
572 110.9518
629 325.8550
730 31.3825
826 144.3321
895 104.3375
921 29.4475
954 44.7783
1044 1.6550
1258 225.0570
1480 157.7626
1534 171.8011
1612 345.3314
1654 111.8850
1680 153.3031
1704 8.9280
1767 123.1694
1795 175.1427
1847 348.6672
1879 125.7769
1921 351.6061
1944 211.2263
1966 354.4968
1975 102.2114
2067 223.9975
2118 168.0953
2167 24.1577
2220 113.9654
2243 86.3774
2272 8.0842
2294 164.8227
2609 61.8579
2728 296.6432
2931 98.6420
3031 199.1947
3044 280.3258
3058 321.2050
3085 34.1656
3166 153.4632
3188 259.9259
3496 256.5984
3614 185.1846
3656 179.6828
3697 72.4628
3722 92.7286
3847 13.8410
3888 182.5592
4051 251.9844
4174 68.4909
4734 342.8658
4804 321.8076
4952 269.2742
5093 80.3444
5103 318.6164
5144 162.5922
5332 245.8162
5363 10.6791
5457 16.2418
5683 10.5939
5900 186.2692
6049 178.8993
6089 264.5801
6125 160.0959
6181 192.9132
6190 90.1266
6214 67.4559
6331 290.4369
6344 60.7857
6432 113.5637
7006 64.7872
7253 130.9091
7344 271.3477
7385 346.0379
7394 164.6857
7408 48.3179
7540 33.9695
7948 248.8940
8021 66.4455
8226 298.9345
8265 98.8697
8391 70.3891
8443 93.2153
8487 185.9639
8515 199.7913
8527 104.2383
8693 12.7377
8705 139.2552
8731 257.1074
8771 163.4933
8793 221.1226
8887 76.8332
8910 224.5172
8921 139.1461
8973 8.0439
8998 131.0691
PLANTSmolcadARTstart hb
PLANTSmolcadARTstart HB
LINES
PLANTSmolcadARTstart HBCH
LINES
-30.8033 -57.7335 31.7009 -31.117 -59.475 30.92 255 0 0 5
-30.8033 -57.7335 31.7009 -30.947 -57.322 29.762 255 0 0 5
PLANTSmolcadARTstart HB-CHO
LINES
PLANTSmolcadARTend
PLANTSmolcadARTstart HB_WATER
LINES
PLANTSmolcadARTend

PLANTSmolcadARTend

