@<TRIPOS>MOLECULE
aspirin_entry_00001_conf_55
20 20 1
SMALL
NO_CHARGES


@<TRIPOS>ATOM
      1 C         -42.1072  -33.0883    3.7897 C.3       1 UNL1        0.0000
      2 C         -42.0389  -32.4993    5.1510 C.2       1 UNL1        0.0000
      3 C         -42.6291  -34.5458    6.3365 C.ar      1 UNL1        0.0000
      4 C         -43.4735  -35.1815    5.4511 C.ar      1 UNL1        0.0000
      5 C         -43.8050  -36.5188    5.5420 C.ar      1 UNL1        0.0000
      6 C         -43.2633  -37.2531    6.5689 C.ar      1 UNL1        0.0000
      7 C         -42.4138  -36.6674    7.4821 C.ar      1 UNL1        0.0000
      8 C         -42.1019  -35.3128    7.3572 C.ar      1 UNL1        0.0000
      9 C         -41.1994  -34.7324    8.3443 C.2       1 UNL1        0.0000
     10 O         -41.7579  -31.2791    5.3533 O.2       1 UNL1        0.0000
     11 O         -42.2737  -33.2252    6.2845 O.3       1 UNL1        0.0000
     12 O         -40.5640  -35.4618    9.1480 O.co2     1 UNL1       -0.5000
     13 O         -41.0094  -33.3638    8.4361 O.co2     1 UNL1       -0.5000
     14 H         -41.8882  -32.3333    3.0638 H         1 UNL1        0.0000
     15 H         -43.0901  -33.4741    3.6174 H         1 UNL1        0.0000
     16 H         -41.3935  -33.8808    3.7081 H         1 UNL1        0.0000
     17 H         -43.8789  -34.6288    4.6800 H         1 UNL1        0.0000
     18 H         -44.4418  -36.9551    4.8562 H         1 UNL1        0.0000
     19 H         -43.4954  -38.2547    6.6584 H         1 UNL1        0.0000
     20 H         -42.0105  -37.2256    8.2512 H         1 UNL1        0.0000
@<TRIPOS>BOND
     1    1    2 1
     2    1   14 1
     3    1   15 1
     4    1   16 1
     5    2   10 2
     6    2   11 1
     7    3    4 ar
     8    3    8 ar
     9    3   11 1
    10    4    5 ar
    11    4   17 1
    12    5    6 ar
    13    5   18 1
    14    6    7 ar
    15    6   19 1
    16    7    8 ar
    17    7   20 1
    18    8    9 1
    19    9   12 ar
    20    9   13 ar
@<TRIPOS>SUBSTRUCTURE
1 UNL1 1
@<TRIPOS>COMMENT
aspirin
PLANTSproteinTorsions
102
1 203.8497
42 138.0587
151 199.0194
173 17.4911
432 167.6718
491 118.7440
531 200.6308
563 2.1851
572 106.7834
629 66.4080
730 320.5080
826 51.4660
895 13.6562
921 25.4341
954 124.3186
1044 355.7123
1258 138.6829
1480 135.0926
1534 39.3649
1612 41.3908
1654 156.1142
1680 214.7560
1704 216.6136
1767 335.5786
1795 32.6739
1847 281.6252
1879 205.6904
1921 92.8085
1944 303.4199
1966 177.5170
1975 22.2788
2067 301.3284
2118 120.2686
2167 239.1352
2220 206.8992
2243 219.1142
2272 93.3169
2294 52.2321
2609 191.0750
2728 44.1048
2931 183.7444
3031 259.4188
3044 204.4085
3058 145.5070
3085 207.8243
3166 117.5093
3188 73.2810
3496 139.6607
3614 14.0036
3656 9.8843
3697 227.9124
3722 268.4964
3847 48.5778
3888 237.6305
4051 162.3310
4174 29.8375
4734 128.6827
4804 80.6236
4952 337.8872
5093 159.0415
5103 56.8258
5144 155.9435
5332 227.4469
5363 137.1372
5457 129.1673
5683 322.0824
5900 61.3612
6049 329.0879
6089 252.7066
6125 237.0594
6181 91.1294
6190 138.3596
6214 142.6370
6331 43.2680
6344 285.8219
6432 229.3091
7006 256.5527
7253 43.4111
7344 122.8811
7385 269.8493
7394 88.5848
7408 207.4645
7540 241.0898
7948 41.2157
8021 39.9574
8226 261.1882
8265 16.5133
8391 50.0513
8443 224.7533
8487 221.8828
8515 141.9572
8527 247.2362
8693 249.9774
8705 129.7562
8731 216.4454
8771 270.3910
8793 244.8268
8887 149.9240
8910 74.8957
8921 97.2462
8973 145.9097
8998 310.0489
PLANTSmolcadARTstart hb
PLANTSmolcadARTstart HB
LINES
PLANTSmolcadARTstart HBCH
LINES
PLANTSmolcadARTstart HB-CHO
LINES
PLANTSmolcadARTend
PLANTSmolcadARTstart HB_WATER
LINES
PLANTSmolcadARTend

PLANTSmolcadARTend

