@<TRIPOS>MOLECULE
aspirin_entry_00001_conf_86
20 20 1
SMALL
NO_CHARGES


@<TRIPOS>ATOM
      1 C          -4.3604  -61.8031    4.1922 C.3       1 UNL1        0.0000
      2 C          -3.6335  -62.6024    5.2108 C.2       1 UNL1        0.0000
      3 C          -2.1936  -64.4877    5.7715 C.ar      1 UNL1        0.0000
      4 C          -1.6816  -64.1099    6.9946 C.ar      1 UNL1        0.0000
      5 C          -1.0467  -64.9822    7.8564 C.ar      1 UNL1        0.0000
      6 C          -0.9203  -66.2955    7.4734 C.ar      1 UNL1        0.0000
      7 C          -1.4136  -66.7264    6.2612 C.ar      1 UNL1        0.0000
      8 C          -2.0497  -65.8150    5.4170 C.ar      1 UNL1        0.0000
      9 C          -2.5571  -66.3122    4.1438 C.2       1 UNL1        0.0000
     10 O          -3.7115  -62.3581    6.4530 O.2       1 UNL1        0.0000
     11 O          -2.8292  -63.6586    4.8874 O.3       1 UNL1        0.0000
     12 O          -2.7811  -67.5374    3.9706 O.co2     1 UNL1       -0.5000
     13 O          -2.8086  -65.4601    3.0816 O.co2     1 UNL1       -0.5000
     14 H          -4.9237  -61.0342    4.6785 H         1 UNL1        0.0000
     15 H          -5.0243  -62.4404    3.6465 H         1 UNL1        0.0000
     16 H          -3.6573  -61.3599    3.5187 H         1 UNL1        0.0000
     17 H          -1.7780  -63.1235    7.2812 H         1 UNL1        0.0000
     18 H          -0.6781  -64.6565    8.7642 H         1 UNL1        0.0000
     19 H          -0.4500  -66.9672    8.1000 H         1 UNL1        0.0000
     20 H          -1.3150  -67.7149    5.9802 H         1 UNL1        0.0000
@<TRIPOS>BOND
     1    1    2 1
     2    1   14 1
     3    1   15 1
     4    1   16 1
     5    2   10 2
     6    2   11 1
     7    3    4 ar
     8    3    8 ar
     9    3   11 1
    10    4    5 ar
    11    4   17 1
    12    5    6 ar
    13    5   18 1
    14    6    7 ar
    15    6   19 1
    16    7    8 ar
    17    7   20 1
    18    8    9 1
    19    9   12 ar
    20    9   13 ar
@<TRIPOS>SUBSTRUCTURE
1 UNL1 1
@<TRIPOS>COMMENT
aspirin
PLANTSproteinTorsions
102
1 229.5536
42 34.2232
151 27.5346
173 118.1912
432 250.5096
491 240.4361
531 278.7177
563 313.9283
572 253.3010
629 334.7671
730 251.3057
826 147.1389
895 126.6420
921 105.7440
954 35.7403
1044 335.5558
1258 176.4650
1480 93.1152
1534 175.0538
1612 205.5492
1654 8.5487
1680 59.1105
1704 324.7694
1767 216.6334
1795 121.9336
1847 119.2959
1879 144.2081
1921 160.3315
1944 59.2170
1966 130.0934
1975 109.8843
2067 245.0336
2118 70.3988
2167 123.5118
2220 100.1036
2243 220.7457
2272 49.2311
2294 54.9253
2609 55.5661
2728 121.7489
2931 197.5876
3031 333.7657
3044 196.4182
3058 201.8031
3085 34.9972
3166 191.7381
3188 290.2665
3496 238.3647
3614 332.8568
3656 44.5925
3697 93.5244
3722 323.8785
3847 265.6765
3888 276.5137
4051 138.7795
4174 180.9113
4734 200.5421
4804 291.7308
4952 205.9795
5093 229.7122
5103 23.3872
5144 35.5424
5332 250.4220
5363 133.2444
5457 273.7159
5683 172.1877
5900 184.6442
6049 35.8721
6089 173.7478
6125 48.3953
6181 232.7591
6190 43.0983
6214 193.0965
6331 277.2356
6344 290.9153
6432 223.0907
7006 95.9093
7253 183.4505
7344 211.3386
7385 90.2022
7394 251.9351
7408 63.1848
7540 241.1983
7948 166.3422
8021 221.3970
8226 231.4213
8265 37.2108
8391 163.4874
8443 53.2379
8487 251.2871
8515 112.4841
8527 207.5096
8693 113.5004
8705 60.9272
8731 232.4691
8771 346.5748
8793 27.6132
8887 238.3401
8910 356.1802
8921 244.7329
8973 37.3152
8998 61.3333
PLANTSmolcadARTstart hb
PLANTSmolcadARTstart HB
LINES
PLANTSmolcadARTstart HBCH
LINES
PLANTSmolcadARTstart HB-CHO
LINES
PLANTSmolcadARTend
PLANTSmolcadARTstart HB_WATER
LINES
PLANTSmolcadARTend

PLANTSmolcadARTend

