@<TRIPOS>MOLECULE
aspirin_entry_00001_conf_44
20 20 1
SMALL
NO_CHARGES


@<TRIPOS>ATOM
      1 C         -15.2979  -62.8284    0.6492 C.3       1 UNL1        0.0000
      2 C         -14.4544  -63.1304   -0.5348 C.2       1 UNL1        0.0000
      3 C         -12.7818  -61.4100   -0.1047 C.ar      1 UNL1        0.0000
      4 C         -12.1392  -61.4554    1.1144 C.ar      1 UNL1        0.0000
      5 C         -11.6599  -60.3354    1.7644 C.ar      1 UNL1        0.0000
      6 C         -11.8327  -59.1125    1.1627 C.ar      1 UNL1        0.0000
      7 C         -12.4684  -59.0102   -0.0554 C.ar      1 UNL1        0.0000
      8 C         -12.9390  -60.1651   -0.6821 C.ar      1 UNL1        0.0000
      9 C         -13.6058  -60.0126   -1.9697 C.2       1 UNL1        0.0000
     10 O         -14.7764  -64.0026   -1.3976 O.2       1 UNL1        0.0000
     11 O         -13.2719  -62.4926   -0.7836 O.3       1 UNL1        0.0000
     12 O         -13.6736  -60.9713   -2.7807 O.co2     1 UNL1       -0.5000
     13 O         -14.1848  -58.8131   -2.3483 O.co2     1 UNL1       -0.5000
     14 H         -16.1700  -63.4481    0.6324 H         1 UNL1        0.0000
     15 H         -15.5910  -61.7997    0.6249 H         1 UNL1        0.0000
     16 H         -14.7405  -63.0194    1.5420 H         1 UNL1        0.0000
     17 H         -12.0096  -62.3746    1.5646 H         1 UNL1        0.0000
     18 H         -11.1839  -60.4150    2.6771 H         1 UNL1        0.0000
     19 H         -11.4831  -58.2603    1.6282 H         1 UNL1        0.0000
     20 H         -12.5945  -58.0878   -0.5016 H         1 UNL1        0.0000
@<TRIPOS>BOND
     1    1    2 1
     2    1   14 1
     3    1   15 1
     4    1   16 1
     5    2   10 2
     6    2   11 1
     7    3    4 ar
     8    3    8 ar
     9    3   11 1
    10    4    5 ar
    11    4   17 1
    12    5    6 ar
    13    5   18 1
    14    6    7 ar
    15    6   19 1
    16    7    8 ar
    17    7   20 1
    18    8    9 1
    19    9   12 ar
    20    9   13 ar
@<TRIPOS>SUBSTRUCTURE
1 UNL1 1
@<TRIPOS>COMMENT
aspirin
PLANTSproteinTorsions
102
1 130.3619
42 9.2442
151 17.7118
173 72.7917
432 238.1502
491 141.8205
531 152.5627
563 272.6751
572 120.1332
629 6.8346
730 222.7510
826 81.3162
895 116.4378
921 193.0942
954 275.3738
1044 146.7935
1258 171.6757
1480 139.9292
1534 168.1289
1612 162.8913
1654 289.0612
1680 298.6299
1704 86.2040
1767 79.5246
1795 240.4978
1847 314.2846
1879 172.5512
1921 210.9186
1944 257.5997
1966 322.1688
1975 159.6150
2067 24.0085
2118 4.4176
2167 63.8015
2220 74.4404
2243 241.4387
2272 148.6326
2294 35.8056
2609 320.8988
2728 295.0397
2931 219.5179
3031 140.9044
3044 108.7651
3058 133.9047
3085 232.0349
3166 242.2977
3188 244.4197
3496 194.1085
3614 76.4409
3656 29.3949
3697 180.1512
3722 48.5295
3847 265.8687
3888 338.5861
4051 146.3251
4174 197.1613
4734 134.4639
4804 213.2474
4952 35.5919
5093 158.0885
5103 215.0578
5144 100.2510
5332 292.3112
5363 154.2610
5457 298.9411
5683 111.6444
5900 233.7555
6049 356.5954
6089 228.2717
6125 118.9644
6181 133.3434
6190 139.7243
6214 290.2278
6331 220.0865
6344 178.0580
6432 240.8926
7006 243.2793
7253 178.3087
7344 56.4428
7385 65.2602
7394 208.8880
7408 21.3702
7540 222.2929
7948 174.2246
8021 159.6379
8226 230.0104
8265 357.0821
8391 183.4347
8443 88.4530
8487 160.7861
8515 60.6974
8527 145.4380
8693 137.2207
8705 249.6664
8731 293.2742
8771 227.5333
8793 43.9126
8887 298.2130
8910 105.0400
8921 271.4987
8973 80.7886
8998 255.3153
PLANTSmolcadARTstart hb
PLANTSmolcadARTstart HB
LINES
PLANTSmolcadARTstart HBCH
LINES
PLANTSmolcadARTstart HB-CHO
LINES
PLANTSmolcadARTend
PLANTSmolcadARTstart HB_WATER
LINES
PLANTSmolcadARTend

PLANTSmolcadARTend

