@<TRIPOS>MOLECULE
aspirin_entry_00001_conf_26
20 20 1
SMALL
NO_CHARGES


@<TRIPOS>ATOM
      1 C         -25.0055  -39.8641   18.5123 C.3       1 UNL1        0.0000
      2 C         -23.9217  -39.2262   17.7227 C.2       1 UNL1        0.0000
      3 C         -25.3549  -37.6062   16.5986 C.ar      1 UNL1        0.0000
      4 C         -26.1315  -37.8605   15.4880 C.ar      1 UNL1        0.0000
      5 C         -27.3500  -37.2540   15.2560 C.ar      1 UNL1        0.0000
      6 C         -27.8116  -36.3503   16.1822 C.ar      1 UNL1        0.0000
      7 C         -27.0753  -36.0589   17.3098 C.ar      1 UNL1        0.0000
      8 C         -25.8481  -36.6927   17.5098 C.ar      1 UNL1        0.0000
      9 C         -25.1010  -36.3559   18.7157 C.2       1 UNL1        0.0000
     10 O         -22.7141  -39.6084   17.7881 O.2       1 UNL1        0.0000
     11 O         -24.1436  -38.1833   16.8684 O.3       1 UNL1        0.0000
     12 O         -23.8840  -36.6526   18.8269 O.co2     1 UNL1       -0.5000
     13 O         -25.6992  -35.7020   19.7797 O.co2     1 UNL1       -0.5000
     14 H         -24.5956  -40.6545   19.1057 H         1 UNL1        0.0000
     15 H         -25.7431  -40.2628   17.8479 H         1 UNL1        0.0000
     16 H         -25.4576  -39.1348   19.1511 H         1 UNL1        0.0000
     17 H         -25.7838  -38.5400   14.7938 H         1 UNL1        0.0000
     18 H         -27.8996  -37.4743   14.4102 H         1 UNL1        0.0000
     19 H         -28.7197  -35.8837   16.0318 H         1 UNL1        0.0000
     20 H         -27.4287  -35.3788   18.0014 H         1 UNL1        0.0000
@<TRIPOS>BOND
     1    1    2 1
     2    1   14 1
     3    1   15 1
     4    1   16 1
     5    2   10 2
     6    2   11 1
     7    3    4 ar
     8    3    8 ar
     9    3   11 1
    10    4    5 ar
    11    4   17 1
    12    5    6 ar
    13    5   18 1
    14    6    7 ar
    15    6   19 1
    16    7    8 ar
    17    7   20 1
    18    8    9 1
    19    9   12 ar
    20    9   13 ar
@<TRIPOS>SUBSTRUCTURE
1 UNL1 1
@<TRIPOS>COMMENT
aspirin
PLANTSproteinTorsions
102
1 87.8195
42 155.0292
151 8.0584
173 94.9073
432 186.8140
491 357.7794
531 43.3679
563 132.0865
572 327.6059
629 52.6054
730 348.9533
826 331.4623
895 38.1762
921 101.6603
954 82.5111
1044 77.8662
1258 282.6650
1480 7.4085
1534 252.3066
1612 215.0284
1654 311.0072
1680 50.9247
1704 14.2358
1767 141.1979
1795 44.8986
1847 209.5798
1879 12.0051
1921 69.4639
1944 354.6579
1966 180.3984
1975 1.9846
2067 118.2342
2118 48.9419
2167 242.1543
2220 123.2077
2243 40.1151
2272 345.7444
2294 13.0003
2609 59.9342
2728 31.9181
2931 221.0284
3031 88.9231
3044 11.4557
3058 297.4618
3085 26.9572
3166 210.7820
3188 202.4406
3496 159.8715
3614 187.4656
3656 30.4826
3697 244.1822
3722 357.1579
3847 215.4797
3888 355.8633
4051 93.2990
4174 57.0243
4734 1.1798
4804 77.6154
4952 244.2307
5093 124.1844
5103 17.9340
5144 197.2783
5332 345.0338
5363 245.4854
5457 171.6221
5683 86.3950
5900 291.5204
6049 310.7384
6089 118.1910
6125 269.2711
6181 6.5833
6190 146.3322
6214 340.9892
6331 80.6786
6344 56.7633
6432 110.9616
7006 51.0840
7253 294.9933
7344 308.3969
7385 26.3498
7394 98.5513
7408 246.4590
7540 105.6746
7948 13.5513
8021 127.2708
8226 202.3668
8265 31.1006
8391 240.1324
8443 184.0196
8487 65.9761
8515 337.0710
8527 196.2191
8693 26.3015
8705 298.3563
8731 139.5446
8771 116.5965
8793 105.0335
8887 170.2165
8910 55.2054
8921 73.5139
8973 91.0225
8998 246.4060
PLANTSmolcadARTstart hb
PLANTSmolcadARTstart HB
LINES
PLANTSmolcadARTstart HBCH
LINES
PLANTSmolcadARTstart HB-CHO
LINES
PLANTSmolcadARTend
PLANTSmolcadARTstart HB_WATER
LINES
PLANTSmolcadARTend

PLANTSmolcadARTend

