@<TRIPOS>MOLECULE
aspirin_entry_00001_conf_91
20 20 1
SMALL
NO_CHARGES


@<TRIPOS>ATOM
      1 C         -32.6293  -63.3980    6.6918 C.3       1 UNL1        0.0000
      2 C         -31.5255  -62.9939    5.7846 C.2       1 UNL1        0.0000
      3 C         -32.8239  -63.0382    3.7219 C.ar      1 UNL1        0.0000
      4 C         -34.1321  -62.8999    4.1347 C.ar      1 UNL1        0.0000
      5 C         -35.2173  -63.2432    3.3530 C.ar      1 UNL1        0.0000
      6 C         -34.9788  -63.7482    2.0978 C.ar      1 UNL1        0.0000
      7 C         -33.6907  -63.9076    1.6356 C.ar      1 UNL1        0.0000
      8 C         -32.6192  -63.5489    2.4549 C.ar      1 UNL1        0.0000
      9 C         -31.2726  -63.7336    1.9275 C.2       1 UNL1        0.0000
     10 O         -30.3245  -62.8845    6.1776 O.2       1 UNL1        0.0000
     11 O         -31.7199  -62.7114    4.4619 O.3       1 UNL1        0.0000
     12 O         -31.0845  -64.0041    0.7138 O.co2     1 UNL1       -0.5000
     13 O         -30.1553  -63.6209    2.7377 O.co2     1 UNL1       -0.5000
     14 H         -32.2393  -63.5670    7.6737 H         1 UNL1        0.0000
     15 H         -33.0790  -64.2977    6.3271 H         1 UNL1        0.0000
     16 H         -33.3638  -62.6212    6.7274 H         1 UNL1        0.0000
     17 H         -34.3096  -62.5198    5.0773 H         1 UNL1        0.0000
     18 H         -36.1816  -63.1227    3.7020 H         1 UNL1        0.0000
     19 H         -35.7732  -64.0121    1.4941 H         1 UNL1        0.0000
     20 H         -33.5192  -64.2877    0.6912 H         1 UNL1        0.0000
@<TRIPOS>BOND
     1    1    2 1
     2    1   14 1
     3    1   15 1
     4    1   16 1
     5    2   10 2
     6    2   11 1
     7    3    4 ar
     8    3    8 ar
     9    3   11 1
    10    4    5 ar
    11    4   17 1
    12    5    6 ar
    13    5   18 1
    14    6    7 ar
    15    6   19 1
    16    7    8 ar
    17    7   20 1
    18    8    9 1
    19    9   12 ar
    20    9   13 ar
@<TRIPOS>SUBSTRUCTURE
1 UNL1 1
@<TRIPOS>COMMENT
aspirin
PLANTSproteinTorsions
102
1 264.9526
42 50.6834
151 38.9187
173 23.4742
432 206.4386
491 180.2032
531 265.9923
563 209.2285
572 260.2729
629 128.8548
730 125.0835
826 100.6668
895 257.3628
921 83.6790
954 33.3516
1044 34.0041
1258 75.1983
1480 206.2056
1534 204.8792
1612 189.4982
1654 31.8717
1680 195.3156
1704 91.1373
1767 299.5861
1795 86.1335
1847 64.8363
1879 118.7469
1921 171.8194
1944 66.0685
1966 92.5342
1975 224.6307
2067 77.1441
2118 84.4142
2167 104.1382
2220 105.3067
2243 222.7703
2272 77.9232
2294 254.8732
2609 237.0344
2728 279.3774
2931 219.7912
3031 84.4179
3044 27.5291
3058 121.3763
3085 151.3631
3166 60.7127
3188 290.6126
3496 228.4494
3614 304.4157
3656 47.5072
3697 61.8395
3722 31.5589
3847 208.8319
3888 287.2846
4051 29.7435
4174 180.3719
4734 8.5884
4804 34.2397
4952 157.9651
5093 157.6478
5103 110.4019
5144 63.0031
5332 241.8715
5363 117.9441
5457 193.6154
5683 193.6325
5900 227.0051
6049 159.3030
6089 182.2342
6125 52.9638
6181 231.5737
6190 24.2538
6214 138.1893
6331 250.5562
6344 263.7387
6432 176.7818
7006 199.3703
7253 142.7686
7344 82.0201
7385 128.8614
7394 252.1886
7408 320.6801
7540 342.7866
7948 204.9011
8021 163.2388
8226 183.6770
8265 129.9550
8391 188.1897
8443 39.1930
8487 89.4615
8515 89.5360
8527 125.0205
8693 103.3468
8705 84.1264
8731 266.9255
8771 252.2525
8793 82.7083
8887 68.6479
8910 177.0768
8921 43.1534
8973 147.1807
8998 136.0783
PLANTSmolcadARTstart hb
PLANTSmolcadARTstart HB
LINES
-30.3245 -62.8845 6.17757 -30.4 -61.31 6.488 0 255 0 5
PLANTSmolcadARTstart HBCH
LINES
PLANTSmolcadARTstart HB-CHO
LINES
PLANTSmolcadARTend
PLANTSmolcadARTstart HB_WATER
LINES
PLANTSmolcadARTend

PLANTSmolcadARTend

