@<TRIPOS>MOLECULE
aspirin_entry_00001_conf_63
20 20 1
SMALL
NO_CHARGES


@<TRIPOS>ATOM
      1 C         -43.3171  -60.2467    6.8519 C.3       1 UNL1        0.0000
      2 C         -41.9228  -60.5851    6.4698 C.2       1 UNL1        0.0000
      3 C         -41.1651  -58.2805    6.2315 C.ar      1 UNL1        0.0000
      4 C         -42.2492  -57.6390    6.7922 C.ar      1 UNL1        0.0000
      5 C         -42.3934  -56.2659    6.8146 C.ar      1 UNL1        0.0000
      6 C         -41.4030  -55.5004    6.2485 C.ar      1 UNL1        0.0000
      7 C         -40.2982  -56.0901    5.6739 C.ar      1 UNL1        0.0000
      8 C         -40.1877  -57.4814    5.6709 C.ar      1 UNL1        0.0000
      9 C         -39.0031  -58.0649    5.0528 C.2       1 UNL1        0.0000
     10 O         -41.5112  -61.7814    6.3792 O.2       1 UNL1        0.0000
     11 O         -40.9814  -59.6360    6.1871 O.3       1 UNL1        0.0000
     12 O         -38.0130  -57.3509    4.7503 O.co2     1 UNL1       -0.5000
     13 O         -38.9234  -59.4191    4.7748 O.co2     1 UNL1       -0.5000
     14 H         -43.8678  -61.1479    7.0236 H         1 UNL1        0.0000
     15 H         -43.7785  -59.6921    6.0619 H         1 UNL1        0.0000
     16 H         -43.3089  -59.6570    7.7443 H         1 UNL1        0.0000
     17 H         -42.9917  -58.2153    7.2176 H         1 UNL1        0.0000
     18 H         -43.2223  -55.8267    7.2459 H         1 UNL1        0.0000
     19 H         -41.4873  -54.4718    6.2527 H         1 UNL1        0.0000
     20 H         -39.5580  -55.5083    5.2505 H         1 UNL1        0.0000
@<TRIPOS>BOND
     1    1    2 1
     2    1   14 1
     3    1   15 1
     4    1   16 1
     5    2   10 2
     6    2   11 1
     7    3    4 ar
     8    3    8 ar
     9    3   11 1
    10    4    5 ar
    11    4   17 1
    12    5    6 ar
    13    5   18 1
    14    6    7 ar
    15    6   19 1
    16    7    8 ar
    17    7   20 1
    18    8    9 1
    19    9   12 ar
    20    9   13 ar
@<TRIPOS>SUBSTRUCTURE
1 UNL1 1
@<TRIPOS>COMMENT
aspirin
PLANTSproteinTorsions
102
1 193.6371
42 86.6005
151 160.8060
173 121.2215
432 159.3564
491 123.4380
531 47.3641
563 337.2941
572 300.4590
629 51.6696
730 253.1534
826 16.5638
895 106.0614
921 288.9290
954 285.8222
1044 21.9028
1258 148.4398
1480 350.8521
1534 38.0689
1612 74.1386
1654 154.7690
1680 66.5156
1704 113.2664
1767 326.2145
1795 24.6551
1847 269.6541
1879 204.1995
1921 94.0446
1944 208.2543
1966 179.2692
1975 21.2354
2067 86.7116
2118 1.8226
2167 19.0185
2220 54.3084
2243 198.8729
2272 108.0767
2294 242.6010
2609 202.9055
2728 340.1926
2931 182.7791
3031 261.7932
3044 255.4038
3058 157.5534
3085 162.1330
3166 226.5193
3188 102.1662
3496 185.1404
3614 288.8939
3656 153.9416
3697 123.6183
3722 144.7314
3847 106.4771
3888 120.5004
4051 11.6780
4174 58.4383
4734 58.4460
4804 25.9514
4952 80.6050
5093 117.7577
5103 35.4738
5144 32.5527
5332 85.7935
5363 46.4091
5457 244.7415
5683 55.5899
5900 159.9235
6049 334.4025
6089 259.4995
6125 255.9526
6181 331.7719
6190 187.4300
6214 145.0424
6331 167.3128
6344 298.4789
6432 155.8754
7006 79.5442
7253 178.2761
7344 141.4616
7385 318.9428
7394 216.2230
7408 208.1585
7540 190.9002
7948 357.3654
8021 243.2796
8226 3.1849
8265 336.6427
8391 47.2018
8443 207.6494
8487 81.3734
8515 134.1708
8527 96.5905
8693 161.0551
8705 126.4079
8731 71.6042
8771 67.2315
8793 99.3219
8887 99.2997
8910 258.8948
8921 119.7245
8973 280.1076
8998 295.9252
PLANTSmolcadARTstart hb
PLANTSmolcadARTstart HB
LINES
PLANTSmolcadARTstart HBCH
LINES
PLANTSmolcadARTstart HB-CHO
LINES
PLANTSmolcadARTend
PLANTSmolcadARTstart HB_WATER
LINES
PLANTSmolcadARTend

PLANTSmolcadARTend

