@<TRIPOS>MOLECULE
aspirin_entry_00001_conf_42
20 20 1
SMALL
NO_CHARGES


@<TRIPOS>ATOM
      1 C         -41.4383  -59.6816    6.5559 C.3       1 UNL1        0.0000
      2 C         -42.7261  -59.0021    6.8464 C.2       1 UNL1        0.0000
      3 C         -41.9301  -56.7364    6.4281 C.ar      1 UNL1        0.0000
      4 C         -41.0342  -56.9433    5.4008 C.ar      1 UNL1        0.0000
      5 C         -40.1137  -55.9990    4.9916 C.ar      1 UNL1        0.0000
      6 C         -40.0915  -54.7898    5.6434 C.ar      1 UNL1        0.0000
      7 C         -40.9645  -54.5306    6.6773 C.ar      1 UNL1        0.0000
      8 C         -41.8811  -55.5101    7.0622 C.ar      1 UNL1        0.0000
      9 C         -42.7868  -55.1953    8.1606 C.2       1 UNL1        0.0000
     10 O         -43.7931  -59.6403    7.0973 O.2       1 UNL1        0.0000
     11 O         -42.8579  -57.6423    6.8660 O.3       1 UNL1        0.0000
     12 O         -42.8607  -54.0286    8.6240 O.co2     1 UNL1       -0.5000
     13 O         -43.5943  -56.1631    8.7340 O.co2     1 UNL1       -0.5000
     14 H         -41.5779  -60.7417    6.5972 H         1 UNL1        0.0000
     15 H         -40.7094  -59.3895    7.2825 H         1 UNL1        0.0000
     16 H         -41.1006  -59.4031    5.5799 H         1 UNL1        0.0000
     17 H         -41.0527  -57.8517    4.9118 H         1 UNL1        0.0000
     18 H         -39.4607  -56.1959    4.2164 H         1 UNL1        0.0000
     19 H         -39.4129  -54.0672    5.3561 H         1 UNL1        0.0000
     20 H         -40.9420  -53.6195    7.1623 H         1 UNL1        0.0000
@<TRIPOS>BOND
     1    1    2 1
     2    1   14 1
     3    1   15 1
     4    1   16 1
     5    2   10 2
     6    2   11 1
     7    3    4 ar
     8    3    8 ar
     9    3   11 1
    10    4    5 ar
    11    4   17 1
    12    5    6 ar
    13    5   18 1
    14    6    7 ar
    15    6   19 1
    16    7    8 ar
    17    7   20 1
    18    8    9 1
    19    9   12 ar
    20    9   13 ar
@<TRIPOS>SUBSTRUCTURE
1 UNL1 1
@<TRIPOS>COMMENT
aspirin
PLANTSproteinTorsions
102
1 357.8150
42 135.3480
151 6.1095
173 122.1354
432 68.2779
491 70.7076
531 98.0893
563 120.2936
572 192.9665
629 357.0887
730 249.9945
826 49.5475
895 280.7901
921 0.3643
954 123.8837
1044 119.9377
1258 156.2791
1480 224.3335
1534 15.3883
1612 5.4822
1654 195.5634
1680 249.5556
1704 38.6029
1767 358.6735
1795 27.3211
1847 96.3648
1879 207.2211
1921 113.6534
1944 42.1417
1966 259.4324
1975 23.4127
2067 16.5427
2118 122.9145
2167 250.4221
2220 58.5749
2243 294.5385
2272 122.4435
2294 253.4927
2609 191.5359
2728 330.7321
2931 186.8865
3031 10.9440
3044 241.9015
3058 185.9503
3085 288.5302
3166 118.0492
3188 79.3686
3496 192.1085
3614 344.5370
3656 11.0604
3697 200.2876
3722 107.2706
3847 48.5252
3888 114.7212
4051 104.4945
4174 26.3720
4734 218.1204
4804 258.4765
4952 345.1017
5093 160.3342
5103 276.5683
5144 153.1407
5332 217.1112
5363 266.7758
5457 261.2766
5683 26.9577
5900 43.6784
6049 261.5959
6089 136.8052
6125 90.6637
6181 128.2478
6190 138.9156
6214 90.5386
6331 21.0220
6344 146.9267
6432 157.9082
7006 48.5690
7253 80.8874
7344 223.4412
7385 271.4266
7394 91.5246
7408 340.1193
7540 192.7359
7948 61.9747
8021 9.8788
8226 29.0471
8265 178.3276
8391 175.4350
8443 137.7808
8487 107.2974
8515 133.1133
8527 114.7548
8693 115.2586
8705 43.9254
8731 173.4949
8771 45.2664
8793 101.1698
8887 197.1411
8910 266.2681
8921 92.5142
8973 27.1995
8998 298.2915
PLANTSmolcadARTstart hb
PLANTSmolcadARTstart HB
LINES
-43.7931 -59.6403 7.09734 -45.682 -58.836 6.933 0 255 0 5
PLANTSmolcadARTstart HBCH
LINES
PLANTSmolcadARTstart HB-CHO
LINES
PLANTSmolcadARTend
PLANTSmolcadARTstart HB_WATER
LINES
PLANTSmolcadARTend

PLANTSmolcadARTend

