@<TRIPOS>MOLECULE
aspirin_entry_00001_conf_06
20 20 1
SMALL
NO_CHARGES


@<TRIPOS>ATOM
      1 C         -28.6072  -62.6094    3.3941 C.3       1 UNL1        0.0000
      2 C         -29.2170  -63.1267    4.6452 C.2       1 UNL1        0.0000
      3 C         -31.4555  -63.4365    3.7310 C.ar      1 UNL1        0.0000
      4 C         -31.1848  -63.8018    2.4294 C.ar      1 UNL1        0.0000
      5 C         -32.1340  -63.8053    1.4266 C.ar      1 UNL1        0.0000
      6 C         -33.4153  -63.4253    1.7449 C.ar      1 UNL1        0.0000
      7 C         -33.7402  -63.0503    3.0303 C.ar      1 UNL1        0.0000
      8 C         -32.7533  -63.0599    4.0172 C.ar      1 UNL1        0.0000
      9 C         -33.1391  -62.6561    5.3640 C.2       1 UNL1        0.0000
     10 O         -28.5421  -63.3323    5.6992 O.2       1 UNL1        0.0000
     11 O         -30.5474  -63.4183    4.7549 O.3       1 UNL1        0.0000
     12 O         -34.3488  -62.5064    5.6730 O.co2     1 UNL1       -0.5000
     13 O         -32.1941  -62.4213    6.3486 O.co2     1 UNL1       -0.5000
     14 H         -27.5593  -62.4549    3.5463 H         1 UNL1        0.0000
     15 H         -29.0695  -61.6816    3.1295 H         1 UNL1        0.0000
     16 H         -28.7536  -63.3184    2.6066 H         1 UNL1        0.0000
     17 H         -30.2222  -64.0876    2.1921 H         1 UNL1        0.0000
     18 H         -31.8878  -64.0868    0.4642 H         1 UNL1        0.0000
     19 H         -34.1431  -63.4198    1.0132 H         1 UNL1        0.0000
     20 H         -34.7052  -62.7661    3.2621 H         1 UNL1        0.0000
@<TRIPOS>BOND
     1    1    2 1
     2    1   14 1
     3    1   15 1
     4    1   16 1
     5    2   10 2
     6    2   11 1
     7    3    4 ar
     8    3    8 ar
     9    3   11 1
    10    4    5 ar
    11    4   17 1
    12    5    6 ar
    13    5   18 1
    14    6    7 ar
    15    6   19 1
    16    7    8 ar
    17    7   20 1
    18    8    9 1
    19    9   12 ar
    20    9   13 ar
@<TRIPOS>SUBSTRUCTURE
1 UNL1 1
@<TRIPOS>COMMENT
aspirin
PLANTSproteinTorsions
102
1 183.1296
42 53.8694
151 35.8334
173 313.9136
432 50.2086
491 175.0700
531 319.8742
563 200.6888
572 256.3582
629 59.5460
730 82.8509
826 155.3676
895 3.5211
921 82.2680
954 45.2137
1044 212.4690
1258 138.6606
1480 135.2394
1534 202.0056
1612 88.4613
1654 278.1304
1680 74.7533
1704 87.2317
1767 219.0232
1795 190.3745
1847 225.3217
1879 187.3797
1921 323.6863
1944 133.2386
1966 31.0705
1975 182.0871
2067 256.3279
2118 73.4625
2167 173.0326
2220 71.9976
2243 189.9200
2272 56.0327
2294 52.3739
2609 51.7742
2728 270.3546
2931 161.1666
3031 84.1473
3044 2.6566
3058 178.9249
3085 98.8349
3166 239.9953
3188 288.6331
3496 254.7519
3614 115.5782
3656 47.1752
3697 98.9989
3722 28.9635
3847 162.9048
3888 94.1412
4051 147.3893
4174 228.7213
4734 7.4099
4804 74.1150
4952 103.3994
5093 155.0969
5103 98.5745
5144 60.0186
5332 245.9968
5363 247.3344
5457 141.7969
5683 101.7451
5900 124.9174
6049 154.1164
6089 233.8848
6125 46.1623
6181 143.7314
6190 232.1551
6214 262.3739
6331 275.1448
6344 212.9237
6432 178.8717
7006 110.5721
7253 145.4051
7344 159.6232
7385 53.1746
7394 189.6072
7408 237.0536
7540 193.8188
7948 216.0464
8021 130.1479
8226 114.5597
8265 10.8145
8391 174.0796
8443 10.3001
8487 265.3949
8515 90.2155
8527 122.0997
8693 37.3412
8705 109.3327
8731 190.7275
8771 259.6207
8793 55.6201
8887 65.8230
8910 174.5840
8921 40.7236
8973 131.0594
8998 198.1154
PLANTSmolcadARTstart hb
PLANTSmolcadARTstart HB
LINES
-34.3488 -62.5064 5.67299 -35.0814 -60.8897 6.2076 0 255 0 5
-32.1941 -62.4213 6.34862 -30.4 -61.31 6.488 0 255 0 5
PLANTSmolcadARTstart HBCH
LINES
PLANTSmolcadARTstart HB-CHO
LINES
PLANTSmolcadARTend
PLANTSmolcadARTstart HB_WATER
LINES
PLANTSmolcadARTend

PLANTSmolcadARTend

