@<TRIPOS>MOLECULE
aspirin_entry_00001_conf_76
20 20 1
SMALL
NO_CHARGES


@<TRIPOS>ATOM
      1 C         -40.0210  -63.2940    2.2942 C.3       1 UNL1        0.0000
      2 C         -39.7601  -63.8894    3.6293 C.2       1 UNL1        0.0000
      3 C         -38.5331  -63.8785    5.7356 C.ar      1 UNL1        0.0000
      4 C         -39.4784  -64.3626    6.6147 C.ar      1 UNL1        0.0000
      5 C         -39.1776  -64.8084    7.8865 C.ar      1 UNL1        0.0000
      6 C         -37.8666  -64.7673    8.2951 C.ar      1 UNL1        0.0000
      7 C         -36.8818  -64.2924    7.4566 C.ar      1 UNL1        0.0000
      8 C         -37.2247  -63.8507    6.1779 C.ar      1 UNL1        0.0000
      9 C         -36.1526  -63.3560    5.3226 C.2       1 UNL1        0.0000
     10 O         -40.4255  -64.8701    4.0810 O.2       1 UNL1        0.0000
     11 O         -38.7859  -63.4273    4.4684 O.3       1 UNL1        0.0000
     12 O         -36.3187  -63.2340    4.0820 O.co2     1 UNL1       -0.5000
     13 O         -34.9167  -63.0053    5.8395 O.co2     1 UNL1       -0.5000
     14 H         -40.8248  -63.8188    1.8214 H         1 UNL1        0.0000
     15 H         -39.1408  -63.3719    1.6912 H         1 UNL1        0.0000
     16 H         -40.2850  -62.2638    2.4089 H         1 UNL1        0.0000
     17 H         -40.4624  -64.3936    6.3061 H         1 UNL1        0.0000
     18 H         -39.9176  -65.1639    8.5127 H         1 UNL1        0.0000
     19 H         -37.6160  -65.0952    9.2411 H         1 UNL1        0.0000
     20 H         -35.8988  -64.2647    7.7706 H         1 UNL1        0.0000
@<TRIPOS>BOND
     1    1    2 1
     2    1   14 1
     3    1   15 1
     4    1   16 1
     5    2   10 2
     6    2   11 1
     7    3    4 ar
     8    3    8 ar
     9    3   11 1
    10    4    5 ar
    11    4   17 1
    12    5    6 ar
    13    5   18 1
    14    6    7 ar
    15    6   19 1
    16    7    8 ar
    17    7   20 1
    18    8    9 1
    19    9   12 ar
    20    9   13 ar
@<TRIPOS>SUBSTRUCTURE
1 UNL1 1
@<TRIPOS>COMMENT
aspirin
PLANTSproteinTorsions
102
1 127.4284
42 158.7958
151 291.7767
173 123.8081
432 135.7694
491 67.3968
531 128.5495
563 156.0009
572 255.9269
629 337.0837
730 131.7140
826 352.2198
895 162.9526
921 140.1534
954 109.4750
1044 50.9942
1258 63.9390
1480 42.3138
1534 234.7192
1612 351.5811
1654 108.0580
1680 213.3028
1704 170.7425
1767 91.8215
1795 165.6494
1847 189.5923
1879 0.8858
1921 264.0477
1944 138.5506
1966 104.8444
1975 158.2690
2067 51.4830
2118 212.0277
2167 242.1344
2220 205.9125
2243 37.0271
2272 136.4154
2294 134.9340
2609 95.2891
2728 77.3941
2931 139.8723
3031 154.2198
3044 292.2462
3058 171.2781
3085 126.9527
3166 39.1333
3188 276.2034
3496 181.2862
3614 130.1568
3656 20.6566
3697 54.5893
3722 36.8972
3847 96.3257
3888 38.0062
4051 241.1602
4174 100.9418
4734 235.3970
4804 15.8598
4952 88.6572
5093 62.3705
5103 46.9747
5144 339.5219
5332 158.4817
5363 52.2496
5457 44.0159
5683 154.5322
5900 59.5562
6049 178.0144
6089 117.9331
6125 325.4436
6181 343.7578
6190 154.8810
6214 258.5504
6331 174.0921
6344 62.9556
6432 271.4666
7006 263.2932
7253 145.1313
7344 243.0092
7385 80.8485
7394 30.5384
7408 195.3449
7540 86.5405
7948 100.6601
8021 298.3852
8226 155.1308
8265 259.3705
8391 83.5618
8443 26.8550
8487 131.6644
8515 80.6999
8527 131.9478
8693 169.9900
8705 66.7812
8731 105.9941
8771 279.9270
8793 23.2449
8887 191.9993
8910 113.1461
8921 164.8532
8973 52.4404
8998 104.1261
PLANTSmolcadARTstart hb
PLANTSmolcadARTstart HB
LINES
-34.9167 -63.0053 5.83951 -35.0814 -60.8897 6.2076 0 255 0 5
PLANTSmolcadARTstart HBCH
LINES
PLANTSmolcadARTstart HB-CHO
LINES
PLANTSmolcadARTend
PLANTSmolcadARTstart HB_WATER
LINES
PLANTSmolcadARTend

PLANTSmolcadARTend

