@<TRIPOS>MOLECULE
aspirin_entry_00001_conf_47
20 20 1
SMALL
NO_CHARGES


@<TRIPOS>ATOM
      1 C         -39.7126  -35.1624    8.9116 C.3       1 UNL1        0.0000
      2 C         -40.5253  -33.9331    8.7304 C.2       1 UNL1        0.0000
      3 C         -42.6099  -35.0879    8.2175 C.ar      1 UNL1        0.0000
      4 C         -42.2913  -36.1335    7.3771 C.ar      1 UNL1        0.0000
      5 C         -43.0868  -37.2507    7.2164 C.ar      1 UNL1        0.0000
      6 C         -44.2566  -37.3225    7.9332 C.ar      1 UNL1        0.0000
      7 C         -44.6233  -36.3052    8.7870 C.ar      1 UNL1        0.0000
      8 C         -43.7928  -35.1918    8.9232 C.ar      1 UNL1        0.0000
      9 C         -44.2178  -34.1381    9.8369 C.2       1 UNL1        0.0000
     10 O         -40.0403  -32.7686    8.8631 O.2       1 UNL1        0.0000
     11 O         -41.8526  -33.9638    8.4073 O.3       1 UNL1        0.0000
     12 O         -45.2774  -34.2496   10.5050 O.co2     1 UNL1       -0.5000
     13 O         -43.4770  -32.9799   10.0020 O.co2     1 UNL1       -0.5000
     14 H         -38.7074  -34.8914    9.1587 H         1 UNL1        0.0000
     15 H         -39.7162  -35.7289    8.0040 H         1 UNL1        0.0000
     16 H         -40.1287  -35.7516    9.7015 H         1 UNL1        0.0000
     17 H         -41.4120  -36.0784    6.8401 H         1 UNL1        0.0000
     18 H         -42.8094  -38.0115    6.5759 H         1 UNL1        0.0000
     19 H         -44.8684  -38.1473    7.8309 H         1 UNL1        0.0000
     20 H         -45.5038  -36.3662    9.3225 H         1 UNL1        0.0000
@<TRIPOS>BOND
     1    1    2 1
     2    1   14 1
     3    1   15 1
     4    1   16 1
     5    2   10 2
     6    2   11 1
     7    3    4 ar
     8    3    8 ar
     9    3   11 1
    10    4    5 ar
    11    4   17 1
    12    5    6 ar
    13    5   18 1
    14    6    7 ar
    15    6   19 1
    16    7    8 ar
    17    7   20 1
    18    8    9 1
    19    9   12 ar
    20    9   13 ar
@<TRIPOS>SUBSTRUCTURE
1 UNL1 1
@<TRIPOS>COMMENT
aspirin
PLANTSproteinTorsions
102
1 222.7751
42 127.5663
151 238.8324
173 188.0043
432 157.2659
491 219.9587
531 22.7070
563 104.3684
572 351.5903
629 40.4934
730 165.6208
826 24.9456
895 54.1897
921 34.6010
954 36.6962
1044 336.6400
1258 137.6073
1480 5.8266
1534 181.4139
1612 70.3053
1654 196.8558
1680 252.2495
1704 354.3963
1767 224.5768
1795 26.7924
1847 182.8431
1879 206.1746
1921 108.4865
1944 128.8640
1966 15.2332
1975 112.0714
2067 185.3806
2118 313.8060
2167 16.8412
2220 357.0526
2243 182.7280
2272 89.8685
2294 204.9827
2609 202.4200
2728 158.4760
2931 64.6014
3031 213.7682
3044 250.5647
3058 146.1602
3085 298.4494
3166 25.2847
3188 326.9391
3496 0.6280
3614 13.9868
3656 94.2710
3697 312.8691
3722 266.3634
3847 70.7638
3888 240.8575
4051 58.1053
4174 296.3239
4734 220.4017
4804 277.0828
4952 236.2803
5093 183.2355
5103 55.7063
5144 88.2572
5332 267.6239
5363 313.2669
5457 246.8117
5683 310.2626
5900 56.4439
6049 200.9433
6089 309.2832
6125 144.5845
6181 91.9684
6190 149.3990
6214 100.6597
6331 91.4638
6344 29.2031
6432 234.8351
7006 266.2188
7253 113.1924
7344 318.4902
7385 267.7353
7394 165.6700
7408 140.3345
7540 263.7653
7948 72.1761
8021 254.0847
8226 28.3319
8265 200.1333
8391 300.6706
8443 168.0852
8487 220.5244
8515 135.0408
8527 84.8553
8693 270.0305
8705 45.7163
8731 225.0530
8771 269.7882
8793 273.3718
8887 206.1441
8910 224.1511
8921 124.5714
8973 26.3337
8998 192.8280
PLANTSmolcadARTstart hb
PLANTSmolcadARTstart HB
LINES
PLANTSmolcadARTstart HBCH
LINES
-45.2774 -34.2496 10.505 -45.579 -34.804 12.524 255 0 0 5
PLANTSmolcadARTstart HB-CHO
LINES
PLANTSmolcadARTend
PLANTSmolcadARTstart HB_WATER
LINES
PLANTSmolcadARTend

PLANTSmolcadARTend

