@<TRIPOS>MOLECULE
aspirin_entry_00001_conf_41
20 20 1
SMALL
NO_CHARGES


@<TRIPOS>ATOM
      1 C         -28.6005  -63.0396    3.4346 C.3       1 UNL1        0.0000
      2 C         -29.9516  -62.9140    4.0373 C.2       1 UNL1        0.0000
      3 C         -32.3361  -63.4176    3.9824 C.ar      1 UNL1        0.0000
      4 C         -32.7027  -63.2591    5.3020 C.ar      1 UNL1        0.0000
      5 C         -34.0135  -63.1375    5.7187 C.ar      1 UNL1        0.0000
      6 C         -35.0030  -63.1760    4.7665 C.ar      1 UNL1        0.0000
      7 C         -34.6922  -63.3330    3.4334 C.ar      1 UNL1        0.0000
      8 C         -33.3553  -63.4523    3.0507 C.ar      1 UNL1        0.0000
      9 C         -33.0700  -63.6168    1.6305 C.2       1 UNL1        0.0000
     10 O         -30.1757  -62.2129    5.0703 O.2       1 UNL1        0.0000
     11 O         -31.0520  -63.5417    3.5254 O.3       1 UNL1        0.0000
     12 O         -33.9796  -63.5000    0.7700 O.co2     1 UNL1       -0.5000
     13 O         -31.7946  -63.9085    1.1766 O.co2     1 UNL1       -0.5000
     14 H         -27.9018  -62.4623    4.0035 H         1 UNL1        0.0000
     15 H         -28.6245  -62.6788    2.4277 H         1 UNL1        0.0000
     16 H         -28.3026  -64.0669    3.4384 H         1 UNL1        0.0000
     17 H         -31.9583  -63.2296    6.0159 H         1 UNL1        0.0000
     18 H         -34.2435  -63.0199    6.7184 H         1 UNL1        0.0000
     19 H         -35.9907  -63.0869    5.0524 H         1 UNL1        0.0000
     20 H         -35.4412  -63.3609    2.7235 H         1 UNL1        0.0000
@<TRIPOS>BOND
     1    1    2 1
     2    1   14 1
     3    1   15 1
     4    1   16 1
     5    2   10 2
     6    2   11 1
     7    3    4 ar
     8    3    8 ar
     9    3   11 1
    10    4    5 ar
    11    4   17 1
    12    5    6 ar
    13    5   18 1
    14    6    7 ar
    15    6   19 1
    16    7    8 ar
    17    7   20 1
    18    8    9 1
    19    9   12 ar
    20    9   13 ar
@<TRIPOS>SUBSTRUCTURE
1 UNL1 1
@<TRIPOS>COMMENT
aspirin
PLANTSproteinTorsions
102
1 218.4900
42 337.5358
151 85.6145
173 130.9413
432 86.0597
491 240.0636
531 353.5020
563 27.0738
572 49.6285
629 37.2271
730 18.5133
826 29.3492
895 63.2945
921 87.4650
954 177.5028
1044 115.8191
1258 37.4660
1480 185.2359
1534 119.6067
1612 354.5671
1654 18.2128
1680 109.5127
1704 51.9580
1767 88.8892
1795 118.7911
1847 132.7592
1879 136.4807
1921 62.2174
1944 4.1401
1966 171.3532
1975 303.2467
2067 190.8178
2118 238.7102
2167 23.9000
2220 225.6536
2243 78.3530
2272 251.1272
2294 10.0406
2609 84.7072
2728 210.0460
2931 134.0984
3031 66.6722
3044 151.7213
3058 21.7731
3085 129.2953
3166 206.1815
3188 190.0057
3496 106.2029
3614 154.0078
3656 56.8968
3697 82.6291
3722 295.3100
3847 251.7261
3888 220.3854
4051 46.7142
4174 208.4033
4734 119.5379
4804 156.7629
4952 87.8293
5093 266.9417
5103 227.0607
5144 100.6633
5332 117.8562
5363 5.8280
5457 292.2168
5683 86.4002
5900 257.2617
6049 77.5706
6089 263.9256
6125 39.9753
6181 37.5797
6190 191.4212
6214 124.8088
6331 46.8372
6344 258.2165
6432 219.3108
7006 158.8739
7253 70.2227
7344 262.7006
7385 143.6178
7394 227.5708
7408 247.6415
7540 238.6723
7948 158.7807
8021 149.5505
8226 267.5363
8265 198.6259
8391 134.0428
8443 160.8872
8487 263.1062
8515 223.4785
8527 49.7522
8693 238.4429
8705 298.7209
8731 158.5958
8771 234.7431
8793 247.3344
8887 152.7975
8910 85.9749
8921 182.4628
8973 249.3396
8998 138.3487
PLANTSmolcadARTstart hb
PLANTSmolcadARTstart HB
LINES
-30.1757 -62.2129 5.07026 -30.4 -61.31 6.488 0 255 0 5
PLANTSmolcadARTstart HBCH
LINES
PLANTSmolcadARTstart HB-CHO
LINES
PLANTSmolcadARTend
PLANTSmolcadARTstart HB_WATER
LINES
PLANTSmolcadARTend

PLANTSmolcadARTend

