@<TRIPOS>MOLECULE
aspirin_entry_00001_conf_89
20 20 1
SMALL
NO_CHARGES


@<TRIPOS>ATOM
      1 C           0.7958  -60.5666   -7.4795 C.3       1 UNL1        0.0000
      2 C           1.6058  -60.5687   -6.2350 C.2       1 UNL1        0.0000
      3 C           0.1023  -59.1359   -4.9587 C.ar      1 UNL1        0.0000
      4 C          -0.4388  -58.3183   -5.9281 C.ar      1 UNL1        0.0000
      5 C          -1.5783  -57.5621   -5.7371 C.ar      1 UNL1        0.0000
      6 C          -2.2047  -57.6300   -4.5163 C.ar      1 UNL1        0.0000
      7 C          -1.7061  -58.4308   -3.5121 C.ar      1 UNL1        0.0000
      8 C          -0.5520  -59.1810   -3.7430 C.ar      1 UNL1        0.0000
      9 C          -0.0578  -60.0151   -2.6541 C.2       1 UNL1        0.0000
     10 O           2.7066  -61.1912   -6.1381 O.2       1 UNL1        0.0000
     11 O           1.2275  -59.9013   -5.1043 O.3       1 UNL1        0.0000
     12 O          -0.7409  -60.1916   -1.6130 O.co2     1 UNL1       -0.5000
     13 O           1.1761  -60.6398   -2.7224 O.co2     1 UNL1       -0.5000
     14 H           1.2894  -61.1528   -8.2264 H         1 UNL1        0.0000
     15 H           0.6846  -59.5622   -7.8306 H         1 UNL1        0.0000
     16 H          -0.1686  -60.9829   -7.2777 H         1 UNL1        0.0000
     17 H           0.0324  -58.2690   -6.8447 H         1 UNL1        0.0000
     18 H          -1.9498  -56.9629   -6.4915 H         1 UNL1        0.0000
     19 H          -3.0583  -57.0746   -4.3487 H         1 UNL1        0.0000
     20 H          -2.1823  -58.4769   -2.5973 H         1 UNL1        0.0000
@<TRIPOS>BOND
     1    1    2 1
     2    1   14 1
     3    1   15 1
     4    1   16 1
     5    2   10 2
     6    2   11 1
     7    3    4 ar
     8    3    8 ar
     9    3   11 1
    10    4    5 ar
    11    4   17 1
    12    5    6 ar
    13    5   18 1
    14    6    7 ar
    15    6   19 1
    16    7    8 ar
    17    7   20 1
    18    8    9 1
    19    9   12 ar
    20    9   13 ar
@<TRIPOS>SUBSTRUCTURE
1 UNL1 1
@<TRIPOS>COMMENT
aspirin
PLANTSproteinTorsions
102
1 122.8544
42 149.7510
151 70.6500
173 142.1537
432 211.7584
491 77.2954
531 133.8710
563 183.6642
572 85.0729
629 103.2446
730 247.3425
826 151.7544
895 55.2515
921 46.9938
954 122.8917
1044 116.0884
1258 32.9717
1480 231.8226
1534 141.5511
1612 18.9302
1654 238.2489
1680 152.3848
1704 255.2387
1767 80.5013
1795 86.5864
1847 5.4045
1879 50.6717
1921 33.2730
1944 11.7333
1966 73.7685
1975 112.3013
2067 103.9474
2118 196.9200
2167 82.8286
2220 118.5678
2243 45.4364
2272 33.9977
2294 31.8515
2609 254.4641
2728 159.2263
2931 106.3158
3031 282.9419
3044 243.6255
3058 223.5223
3085 269.4261
3166 287.9604
3188 75.1956
3496 138.8137
3614 127.4231
3656 99.4866
3697 205.5701
3722 71.3684
3847 107.3706
3888 281.1669
4051 53.8292
4174 179.2164
4734 88.4511
4804 276.8517
4952 106.7973
5093 220.8882
5103 317.4256
5144 250.5559
5332 319.7353
5363 25.4641
5457 185.3946
5683 251.4636
5900 193.8687
6049 52.2041
6089 237.6275
6125 80.9598
6181 92.4376
6190 1.4407
6214 139.7723
6331 247.9005
6344 214.2156
6432 180.5723
7006 220.3888
7253 133.3416
7344 37.4713
7385 240.7193
7394 262.8810
7408 105.3780
7540 168.3120
7948 29.6609
8021 145.4089
8226 287.2594
8265 206.8843
8391 148.7637
8443 299.3983
8487 281.0908
8515 218.3948
8527 62.9678
8693 238.5416
8705 253.4410
8731 202.5101
8771 285.8239
8793 283.7236
8887 120.5459
8910 200.2141
8921 356.5525
8973 116.3098
8998 183.8827
PLANTSmolcadARTstart hb
PLANTSmolcadARTstart HB
LINES
PLANTSmolcadARTstart HBCH
LINES
PLANTSmolcadARTstart HB-CHO
LINES
PLANTSmolcadARTend
PLANTSmolcadARTstart HB_WATER
LINES
PLANTSmolcadARTend

PLANTSmolcadARTend

