@<TRIPOS>MOLECULE
aspirin_entry_00001_conf_50
20 20 1
SMALL
NO_CHARGES


@<TRIPOS>ATOM
      1 C         -33.7169  -62.0544    7.2770 C.3       1 UNL1        0.0000
      2 C         -32.7968  -62.5223    6.2097 C.2       1 UNL1        0.0000
      3 C         -32.3097  -62.8519    3.8440 C.ar      1 UNL1        0.0000
      4 C         -30.9347  -62.7524    3.8270 C.ar      1 UNL1        0.0000
      5 C         -30.1564  -63.1422    2.7551 C.ar      1 UNL1        0.0000
      6 C         -30.7874  -63.6566    1.6484 C.ar      1 UNL1        0.0000
      7 C         -32.1594  -63.7776    1.6123 C.ar      1 UNL1        0.0000
      8 C         -32.9124  -63.3731    2.7156 C.ar      1 UNL1        0.0000
      9 C         -34.3609  -63.5182    2.6363 C.2       1 UNL1        0.0000
     10 O         -31.6469  -62.9960    6.4591 O.2       1 UNL1        0.0000
     11 O         -33.1191  -62.4786    4.8826 O.3       1 UNL1        0.0000
     12 O         -34.9260  -63.7806    1.5439 O.co2     1 UNL1       -0.5000
     13 O         -35.1661  -63.3714    3.7533 O.co2     1 UNL1       -0.5000
     14 H         -33.2514  -62.1865    8.2314 H         1 UNL1        0.0000
     15 H         -34.6229  -62.6223    7.2406 H         1 UNL1        0.0000
     16 H         -33.9388  -61.0187    7.1275 H         1 UNL1        0.0000
     17 H         -30.4622  -62.3666    4.6592 H         1 UNL1        0.0000
     18 H         -29.1284  -63.0504    2.7849 H         1 UNL1        0.0000
     19 H         -30.2278  -63.9554    0.8343 H         1 UNL1        0.0000
     20 H         -32.6265  -64.1652    0.7773 H         1 UNL1        0.0000
@<TRIPOS>BOND
     1    1    2 1
     2    1   14 1
     3    1   15 1
     4    1   16 1
     5    2   10 2
     6    2   11 1
     7    3    4 ar
     8    3    8 ar
     9    3   11 1
    10    4    5 ar
    11    4   17 1
    12    5    6 ar
    13    5   18 1
    14    6    7 ar
    15    6   19 1
    16    7    8 ar
    17    7   20 1
    18    8    9 1
    19    9   12 ar
    20    9   13 ar
@<TRIPOS>SUBSTRUCTURE
1 UNL1 1
@<TRIPOS>COMMENT
aspirin
PLANTSproteinTorsions
102
1 241.3847
42 118.9801
151 68.6865
173 109.2000
432 302.2352
491 225.5637
531 103.9858
563 35.8701
572 88.4264
629 266.2046
730 305.0937
826 153.3567
895 64.7601
921 100.9414
954 262.1785
1044 179.2874
1258 60.1742
1480 251.0591
1534 129.1075
1612 12.0728
1654 63.3083
1680 230.7828
1704 269.1975
1767 101.9927
1795 119.1648
1847 117.5789
1879 108.5240
1921 91.4309
1944 39.3995
1966 135.9691
1975 278.9406
2067 274.3828
2118 229.4812
2167 306.4219
2220 291.4743
2243 152.6649
2272 107.6684
2294 88.0920
2609 325.4153
2728 179.8165
2931 94.7688
3031 61.5937
3044 27.2919
3058 126.3337
3085 74.7116
3166 323.5596
3188 41.3769
3496 136.6708
3614 117.7141
3656 108.5011
3697 203.5793
3722 75.9765
3847 87.4977
3888 252.6762
4051 38.5735
4174 345.3890
4734 197.7156
4804 148.9503
4952 260.6006
5093 258.7732
5103 211.2569
5144 58.1137
5332 324.3956
5363 236.3393
5457 8.1934
5683 186.3310
5900 169.1927
6049 167.4858
6089 243.4108
6125 333.3249
6181 180.2619
6190 290.3461
6214 154.2500
6331 18.6486
6344 283.7068
6432 205.6218
7006 150.1135
7253 267.3641
7344 21.0869
7385 66.9419
7394 236.0415
7408 33.3271
7540 157.4738
7948 38.8008
8021 26.3103
8226 278.3918
8265 198.4103
8391 50.6293
8443 118.4278
8487 181.9366
8515 273.7290
8527 258.9660
8693 252.3597
8705 183.1767
8731 193.0918
8771 197.2885
8793 246.4160
8887 149.4397
8910 170.1177
8921 128.3484
8973 124.9040
8998 129.3567
PLANTSmolcadARTstart hb
PLANTSmolcadARTstart HB
LINES
-31.6469 -62.996 6.45914 -30.4 -61.31 6.488 0 255 0 5
-34.926 -63.7806 1.54392 -36.296 -64.7342 1.38828 0 255 0 5
PLANTSmolcadARTstart HBCH
LINES
PLANTSmolcadARTstart HB-CHO
LINES
PLANTSmolcadARTend
PLANTSmolcadARTstart HB_WATER
LINES
PLANTSmolcadARTend

PLANTSmolcadARTend

