@<TRIPOS>MOLECULE
aspirin_entry_00001_conf_19
20 20 1
SMALL
NO_CHARGES


@<TRIPOS>ATOM
      1 C         -32.4491  -40.0439    4.0090 C.3       1 UNL1        0.0000
      2 C         -32.0953  -41.3131    3.3243 C.2       1 UNL1        0.0000
      3 C         -32.7059  -42.7746    5.1773 C.ar      1 UNL1        0.0000
      4 C         -32.3490  -42.0466    6.2925 C.ar      1 UNL1        0.0000
      5 C         -32.8175  -42.3203    7.5623 C.ar      1 UNL1        0.0000
      6 C         -33.6855  -43.3734    7.7204 C.ar      1 UNL1        0.0000
      7 C         -34.0746  -44.1341    6.6396 C.ar      1 UNL1        0.0000
      8 C         -33.5800  -43.8265    5.3713 C.ar      1 UNL1        0.0000
      9 C         -34.0168  -44.6563    4.2549 C.2       1 UNL1        0.0000
     10 O         -31.6078  -41.3442    2.1538 O.2       1 UNL1        0.0000
     11 O         -32.2669  -42.5391    3.9026 O.3       1 UNL1        0.0000
     12 O         -34.9800  -45.4550    4.3805 O.co2     1 UNL1       -0.5000
     13 O         -33.3907  -44.5992    3.0211 O.co2     1 UNL1       -0.5000
     14 H         -32.2272  -39.2184    3.3654 H         1 UNL1        0.0000
     15 H         -31.8808  -39.9554    4.9112 H         1 UNL1        0.0000
     16 H         -33.4928  -40.0444    4.2434 H         1 UNL1        0.0000
     17 H         -31.6977  -41.2556    6.1719 H         1 UNL1        0.0000
     18 H         -32.5242  -41.7485    8.3704 H         1 UNL1        0.0000
     19 H         -34.0500  -43.5981    8.6595 H         1 UNL1        0.0000
     20 H         -34.7273  -44.9239    6.7662 H         1 UNL1        0.0000
@<TRIPOS>BOND
     1    1    2 1
     2    1   14 1
     3    1   15 1
     4    1   16 1
     5    2   10 2
     6    2   11 1
     7    3    4 ar
     8    3    8 ar
     9    3   11 1
    10    4    5 ar
    11    4   17 1
    12    5    6 ar
    13    5   18 1
    14    6    7 ar
    15    6   19 1
    16    7    8 ar
    17    7   20 1
    18    8    9 1
    19    9   12 ar
    20    9   13 ar
@<TRIPOS>SUBSTRUCTURE
1 UNL1 1
@<TRIPOS>COMMENT
aspirin
PLANTSproteinTorsions
102
1 264.7364
42 22.4322
151 69.6809
173 118.3069
432 245.5490
491 57.7805
531 259.9076
563 348.6506
572 24.8077
629 48.0479
730 71.6090
826 142.4848
895 33.6274
921 101.6937
954 147.8167
1044 4.1728
1258 33.4603
1480 82.5360
1534 164.2493
1612 154.3682
1654 260.4804
1680 168.0811
1704 19.9706
1767 9.6558
1795 62.9905
1847 133.4548
1879 136.9442
1921 201.4035
1944 57.0078
1966 229.3121
1975 228.3740
2067 358.7858
2118 69.2301
2167 37.5997
2220 99.8278
2243 242.0399
2272 269.0967
2294 43.7824
2609 55.4640
2728 338.1726
2931 105.1032
3031 331.2957
3044 46.0457
3058 127.1901
3085 235.3448
3166 40.9078
3188 32.1304
3496 286.1785
3614 26.9286
3656 35.0824
3697 223.9122
3722 9.4843
3847 190.9491
3888 269.6476
4051 247.3310
4174 181.1235
4734 164.4286
4804 40.5689
4952 78.2241
5093 202.4521
5103 344.7213
5144 73.8270
5332 254.7937
5363 136.8848
5457 197.4479
5683 198.8434
5900 189.9715
6049 43.8267
6089 181.5691
6125 292.8179
6181 131.1716
6190 316.9503
6214 203.9737
6331 286.2183
6344 242.0013
6432 244.2862
7006 231.8703
7253 69.1027
7344 270.2989
7385 257.2138
7394 225.5755
7408 73.3843
7540 235.8189
7948 271.7650
8021 4.8475
8226 183.8026
8265 48.2275
8391 165.7044
8443 224.8448
8487 62.5554
8515 254.7112
8527 55.5438
8693 79.6938
8705 289.1801
8731 231.7292
8771 249.0153
8793 4.2498
8887 189.5188
8910 179.3009
8921 4.9399
8973 274.6086
8998 138.7663
PLANTSmolcadARTstart hb
PLANTSmolcadARTstart HB
LINES
PLANTSmolcadARTstart HBCH
LINES
PLANTSmolcadARTstart HB-CHO
LINES
PLANTSmolcadARTend
PLANTSmolcadARTstart HB_WATER
LINES
PLANTSmolcadARTend

PLANTSmolcadARTend

