@<TRIPOS>MOLECULE
aspirin_entry_00001_conf_03
20 20 1
SMALL
NO_CHARGES


@<TRIPOS>ATOM
      1 C         -34.3057  -63.0634    5.5494 C.3       1 UNL1        0.0000
      2 C         -33.1096  -62.2111    5.7680 C.2       1 UNL1        0.0000
      3 C         -32.0802  -62.6682    3.6061 C.ar      1 UNL1        0.0000
      4 C         -33.1600  -62.9003    2.7808 C.ar      1 UNL1        0.0000
      5 C         -33.0603  -63.5288    1.5553 C.ar      1 UNL1        0.0000
      6 C         -31.8187  -63.9431    1.1379 C.ar      1 UNL1        0.0000
      7 C         -30.7060  -63.7366    1.9239 C.ar      1 UNL1        0.0000
      8 C         -30.8466  -63.0974    3.1565 C.ar      1 UNL1        0.0000
      9 C         -29.6443  -62.8987    3.9569 C.2       1 UNL1        0.0000
     10 O         -32.9134  -61.5743    6.8472 O.2       1 UNL1        0.0000
     11 O         -32.1329  -62.0502    4.8262 O.3       1 UNL1        0.0000
     12 O         -28.5010  -63.0557    3.4570 O.co2     1 UNL1       -0.5000
     13 O         -29.7139  -62.5336    5.2908 O.co2     1 UNL1       -0.5000
     14 H         -34.9261  -63.0364    6.4208 H         1 UNL1        0.0000
     15 H         -33.9964  -64.0705    5.3631 H         1 UNL1        0.0000
     16 H         -34.8550  -62.6973    4.7077 H         1 UNL1        0.0000
     17 H         -34.0916  -62.5879    3.0954 H         1 UNL1        0.0000
     18 H         -33.8958  -63.6821    0.9685 H         1 UNL1        0.0000
     19 H         -31.7178  -64.4150    0.2257 H         1 UNL1        0.0000
     20 H         -29.7762  -64.0506    1.6035 H         1 UNL1        0.0000
@<TRIPOS>BOND
     1    1    2 1
     2    1   14 1
     3    1   15 1
     4    1   16 1
     5    2   10 2
     6    2   11 1
     7    3    4 ar
     8    3    8 ar
     9    3   11 1
    10    4    5 ar
    11    4   17 1
    12    5    6 ar
    13    5   18 1
    14    6    7 ar
    15    6   19 1
    16    7    8 ar
    17    7   20 1
    18    8    9 1
    19    9   12 ar
    20    9   13 ar
@<TRIPOS>SUBSTRUCTURE
1 UNL1 1
@<TRIPOS>COMMENT
aspirin
PLANTSproteinTorsions
102
1 8.9908
42 15.5537
151 14.4438
173 11.8573
432 43.8049
491 177.3573
531 347.5210
563 170.6420
572 31.1369
629 29.7978
730 102.1082
826 344.7794
895 107.4785
921 34.1529
954 9.1872
1044 55.4240
1258 124.2642
1480 227.7622
1534 24.9584
1612 53.2928
1654 333.4029
1680 0.5810
1704 21.8295
1767 242.4710
1795 183.1904
1847 34.8487
1879 126.1290
1921 127.3776
1944 326.8221
1966 139.2009
1975 161.9565
2067 78.8396
2118 69.6519
2167 166.2195
2220 241.7456
2243 210.3913
2272 331.4645
2294 137.7712
2609 44.3209
2728 238.3875
2931 180.9422
3031 106.5663
3044 198.6366
3058 245.5210
3085 220.6960
3166 240.6881
3188 183.0268
3496 32.3254
3614 304.0518
3656 92.8947
3697 352.5085
3722 152.6037
3847 223.0405
3888 110.3458
4051 170.8525
4174 234.5108
4734 35.5920
4804 70.2908
4952 77.4199
5093 231.4273
5103 203.7226
5144 68.1058
5332 42.5411
5363 137.1348
5457 267.3812
5683 217.8221
5900 44.3596
6049 192.4044
6089 184.0300
6125 186.2995
6181 156.3600
6190 181.8906
6214 175.1677
6331 267.8935
6344 266.0227
6432 250.8735
7006 265.2076
7253 183.6198
7344 118.0724
7385 100.3205
7394 247.6022
7408 240.9785
7540 215.1614
7948 267.5793
8021 180.9376
8226 196.4233
8265 63.0813
8391 177.0484
8443 37.8495
8487 265.8004
8515 235.1833
8527 59.3024
8693 148.0366
8705 111.1529
8731 111.7645
8771 257.5245
8793 90.4482
8887 40.5689
8910 197.1077
8921 263.1803
8973 141.1621
8998 161.5696
PLANTSmolcadARTstart hb
PLANTSmolcadARTstart HB
LINES
-29.7139 -62.5336 5.29085 -30.4 -61.31 6.488 0 255 0 5
PLANTSmolcadARTstart HBCH
LINES
PLANTSmolcadARTstart HB-CHO
LINES
PLANTSmolcadARTend
PLANTSmolcadARTstart HB_WATER
LINES
PLANTSmolcadARTend

PLANTSmolcadARTend

