@<TRIPOS>MOLECULE
aspirin_entry_00001_conf_64
20 20 1
SMALL
NO_CHARGES


@<TRIPOS>ATOM
      1 C         -15.3519  -48.9021    0.6162 C.3       1 UNL1        0.0000
      2 C         -14.9301  -47.5570    1.0827 C.2       1 UNL1        0.0000
      3 C         -14.4923  -46.6512   -1.1377 C.ar      1 UNL1        0.0000
      4 C         -13.9391  -47.6917   -1.8533 C.ar      1 UNL1        0.0000
      5 C         -13.9119  -47.7371   -3.2331 C.ar      1 UNL1        0.0000
      6 C         -14.4665  -46.6895   -3.9276 C.ar      1 UNL1        0.0000
      7 C         -15.0323  -45.6240   -3.2621 C.ar      1 UNL1        0.0000
      8 C         -15.0412  -45.6140   -1.8665 C.ar      1 UNL1        0.0000
      9 C         -15.6497  -44.4680   -1.2018 C.2       1 UNL1        0.0000
     10 O         -14.9016  -47.2382    2.3100 O.2       1 UNL1        0.0000
     11 O         -14.5413  -46.5650    0.2273 O.3       1 UNL1        0.0000
     12 O         -16.1232  -43.5109   -1.8661 O.co2     1 UNL1       -0.5000
     13 O         -15.7277  -44.3881    0.1785 O.co2     1 UNL1       -0.5000
     14 H         -15.6090  -49.5072    1.4604 H         1 UNL1        0.0000
     15 H         -14.5482  -49.3615    0.0799 H         1 UNL1        0.0000
     16 H         -16.2012  -48.8061   -0.0271 H         1 UNL1        0.0000
     17 H         -13.5236  -48.4781   -1.3302 H         1 UNL1        0.0000
     18 H         -13.4872  -48.5369   -3.7291 H         1 UNL1        0.0000
     19 H         -14.4589  -46.7000   -4.9596 H         1 UNL1        0.0000
     20 H         -15.4473  -44.8404   -3.7908 H         1 UNL1        0.0000
@<TRIPOS>BOND
     1    1    2 1
     2    1   14 1
     3    1   15 1
     4    1   16 1
     5    2   10 2
     6    2   11 1
     7    3    4 ar
     8    3    8 ar
     9    3   11 1
    10    4    5 ar
    11    4   17 1
    12    5    6 ar
    13    5   18 1
    14    6    7 ar
    15    6   19 1
    16    7    8 ar
    17    7   20 1
    18    8    9 1
    19    9   12 ar
    20    9   13 ar
@<TRIPOS>SUBSTRUCTURE
1 UNL1 1
@<TRIPOS>COMMENT
aspirin
PLANTSproteinTorsions
102
1 163.8986
42 99.7507
151 207.1978
173 94.7668
432 49.0769
491 38.4038
531 43.5178
563 134.0165
572 154.8593
629 50.3154
730 112.2208
826 54.9722
895 69.2248
921 247.6038
954 99.0906
1044 147.9122
1258 97.8606
1480 303.3651
1534 22.6218
1612 298.1332
1654 352.0927
1680 256.7204
1704 268.9897
1767 221.5627
1795 169.8591
1847 210.0156
1879 254.5048
1921 6.4351
1944 232.0040
1966 100.4563
1975 269.1794
2067 166.9666
2118 281.9290
2167 194.1990
2220 161.3172
2243 164.7609
2272 205.5869
2294 37.5505
2609 157.7951
2728 148.7448
2931 173.4054
3031 68.3248
3044 145.5795
3058 229.7595
3085 20.1585
3166 74.5327
3188 181.4736
3496 288.9503
3614 88.3534
3656 1.9958
3697 162.0732
3722 235.4251
3847 353.0098
3888 238.6134
4051 213.5471
4174 19.2441
4734 184.4415
4804 203.2567
4952 188.4873
5093 18.0445
5103 302.8783
5144 87.9923
5332 203.6475
5363 142.2488
5457 342.9666
5683 93.7989
5900 152.5522
6049 335.7689
6089 356.6127
6125 157.9577
6181 320.8756
6190 245.5654
6214 76.1811
6331 216.7697
6344 248.2704
6432 176.3178
7006 115.9910
7253 241.0171
7344 249.7047
7385 161.4681
7394 87.0671
7408 34.9679
7540 13.1950
7948 234.5261
8021 100.0488
8226 273.1681
8265 73.5095
8391 195.4702
8443 79.8255
8487 254.2030
8515 57.2487
8527 253.4135
8693 294.1631
8705 231.7818
8731 275.8409
8771 201.3419
8793 198.7178
8887 190.5619
8910 259.8458
8921 62.2246
8973 330.6473
8998 180.6916
PLANTSmolcadARTstart hb
PLANTSmolcadARTstart HB
LINES
PLANTSmolcadARTstart HBCH
LINES
PLANTSmolcadARTstart HB-CHO
LINES
PLANTSmolcadARTend
PLANTSmolcadARTstart HB_WATER
LINES
PLANTSmolcadARTend

PLANTSmolcadARTend

