@<TRIPOS>MOLECULE
aspirin_entry_00001_conf_45
20 20 1
SMALL
NO_CHARGES


@<TRIPOS>ATOM
      1 C         -12.0363  -61.1536   10.7049 C.3       1 UNL1        0.0000
      2 C         -10.7714  -60.3981   10.5202 C.2       1 UNL1        0.0000
      3 C         -11.8069  -58.1924   10.4519 C.ar      1 UNL1        0.0000
      4 C         -13.1282  -58.5860   10.4695 C.ar      1 UNL1        0.0000
      5 C         -14.1865  -57.6992   10.4840 C.ar      1 UNL1        0.0000
      6 C         -13.9061  -56.3543   10.4815 C.ar      1 UNL1        0.0000
      7 C         -12.6032  -55.9064   10.4637 C.ar      1 UNL1        0.0000
      8 C         -11.5599  -56.8333   10.4498 C.ar      1 UNL1        0.0000
      9 C         -10.1964  -56.3173   10.4311 C.2       1 UNL1        0.0000
     10 O          -9.6428  -60.9693   10.4259 O.2       1 UNL1        0.0000
     11 O         -10.7285  -59.0349   10.4373 O.3       1 UNL1        0.0000
     12 O          -9.9581  -55.1095   10.6877 O.co2     1 UNL1       -0.5000
     13 O          -9.1176  -57.1316   10.1301 O.co2     1 UNL1       -0.5000
     14 H         -11.8230  -62.2015   10.7402 H         1 UNL1        0.0000
     15 H         -12.6949  -60.9512    9.8865 H         1 UNL1        0.0000
     16 H         -12.5011  -60.8521   11.6199 H         1 UNL1        0.0000
     17 H         -13.3372  -59.5963   10.4722 H         1 UNL1        0.0000
     18 H         -15.1619  -58.0377   10.4974 H         1 UNL1        0.0000
     19 H         -14.6797  -55.6713   10.4924 H         1 UNL1        0.0000
     20 H         -12.4002  -54.8942   10.4620 H         1 UNL1        0.0000
@<TRIPOS>BOND
     1    1    2 1
     2    1   14 1
     3    1   15 1
     4    1   16 1
     5    2   10 2
     6    2   11 1
     7    3    4 ar
     8    3    8 ar
     9    3   11 1
    10    4    5 ar
    11    4   17 1
    12    5    6 ar
    13    5   18 1
    14    6    7 ar
    15    6   19 1
    16    7    8 ar
    17    7   20 1
    18    8    9 1
    19    9   12 ar
    20    9   13 ar
@<TRIPOS>SUBSTRUCTURE
1 UNL1 1
@<TRIPOS>COMMENT
aspirin
PLANTSproteinTorsions
102
1 193.9013
42 153.7346
151 222.9746
173 192.6570
432 163.2524
491 162.3952
531 202.2114
563 101.5685
572 106.7330
629 0.7565
730 244.7743
826 355.4533
895 354.3819
921 236.4202
954 101.0093
1044 106.5218
1258 201.6052
1480 349.6208
1534 25.0927
1612 29.9947
1654 202.6734
1680 54.2699
1704 5.8599
1767 69.9394
1795 36.6696
1847 62.7016
1879 121.8416
1921 142.1656
1944 34.8674
1966 25.8891
1975 355.9514
2067 250.3165
2118 347.9437
2167 6.6747
2220 344.3103
2243 171.1699
2272 200.8319
2294 92.2678
2609 242.4800
2728 41.2951
2931 92.1646
3031 215.8875
3044 24.8518
3058 233.6014
3085 141.9792
3166 89.0873
3188 356.5330
3496 148.3285
3614 1.4961
3656 115.8864
3697 51.9238
3722 105.8532
3847 140.2903
3888 106.8858
4051 103.7696
4174 267.5972
4734 133.9775
4804 146.4489
4952 259.6546
5093 148.3740
5103 105.6202
5144 106.0825
5332 293.2790
5363 286.7150
5457 127.8681
5683 234.8562
5900 94.5630
6049 246.5162
6089 350.1270
6125 107.9203
6181 105.3144
6190 185.0568
6214 154.3594
6331 101.6389
6344 136.1493
6432 256.9783
7006 107.2134
7253 44.1021
7344 239.2878
7385 209.9442
7394 271.0582
7408 224.1834
7540 261.6516
7948 77.9735
8021 73.3061
8226 18.6584
8265 197.9844
8391 337.5921
8443 139.8531
8487 216.4978
8515 175.6170
8527 53.6219
8693 217.2033
8705 330.4042
8731 223.7616
8771 237.9839
8793 339.9713
8887 224.3746
8910 199.7576
8921 165.1152
8973 139.3840
8998 285.2506
PLANTSmolcadARTstart hb
PLANTSmolcadARTstart HB
LINES
PLANTSmolcadARTstart HBCH
LINES
PLANTSmolcadARTstart HB-CHO
LINES
PLANTSmolcadARTend
PLANTSmolcadARTstart HB_WATER
LINES
PLANTSmolcadARTend

PLANTSmolcadARTend

