@<TRIPOS>MOLECULE
aspirin_entry_00001_conf_93
20 20 1
SMALL
NO_CHARGES


@<TRIPOS>ATOM
      1 C          -9.3776  -59.6179   20.4797 C.3       1 UNL1        0.0000
      2 C         -10.6789  -59.0691   20.9382 C.2       1 UNL1        0.0000
      3 C         -12.1758  -57.1685   21.2370 C.ar      1 UNL1        0.0000
      4 C         -13.4378  -57.6978   21.0694 C.ar      1 UNL1        0.0000
      5 C         -14.5889  -57.0760   21.5110 C.ar      1 UNL1        0.0000
      6 C         -14.4681  -55.8667   22.1516 C.ar      1 UNL1        0.0000
      7 C         -13.2306  -55.2925   22.3451 C.ar      1 UNL1        0.0000
      8 C         -12.0897  -55.9515   21.8848 C.ar      1 UNL1        0.0000
      9 C         -10.8002  -55.3095   22.1100 C.2       1 UNL1        0.0000
     10 O         -11.5724  -59.7908   21.4761 O.2       1 UNL1        0.0000
     11 O         -11.0100  -57.7490   20.8164 O.3       1 UNL1        0.0000
     12 O          -9.7284  -55.9609   22.0184 O.co2     1 UNL1       -0.5000
     13 O         -10.7061  -53.9664   22.4334 O.co2     1 UNL1       -0.5000
     14 H          -9.3445  -60.6687   20.6785 H         1 UNL1        0.0000
     15 H          -8.5813  -59.1308   21.0025 H         1 UNL1        0.0000
     16 H          -9.2701  -59.4491   19.4288 H         1 UNL1        0.0000
     17 H         -13.5268  -58.6065   20.5889 H         1 UNL1        0.0000
     18 H         -15.5149  -57.5087   21.3646 H         1 UNL1        0.0000
     19 H         -15.3135  -55.3820   22.4913 H         1 UNL1        0.0000
     20 H         -13.1477  -54.3835   22.8274 H         1 UNL1        0.0000
@<TRIPOS>BOND
     1    1    2 1
     2    1   14 1
     3    1   15 1
     4    1   16 1
     5    2   10 2
     6    2   11 1
     7    3    4 ar
     8    3    8 ar
     9    3   11 1
    10    4    5 ar
    11    4   17 1
    12    5    6 ar
    13    5   18 1
    14    6    7 ar
    15    6   19 1
    16    7    8 ar
    17    7   20 1
    18    8    9 1
    19    9   12 ar
    20    9   13 ar
@<TRIPOS>SUBSTRUCTURE
1 UNL1 1
@<TRIPOS>COMMENT
aspirin
PLANTSproteinTorsions
102
1 45.5709
42 188.3708
151 323.7747
173 159.6310
432 339.2686
491 58.1621
531 71.4911
563 86.0240
572 14.4048
629 189.0734
730 150.6898
826 152.6939
895 81.2810
921 238.6780
954 187.8709
1044 77.5409
1258 58.3689
1480 120.5832
1534 250.9883
1612 59.8244
1654 118.1003
1680 133.3197
1704 19.5299
1767 198.1792
1795 163.9689
1847 111.2364
1879 66.7725
1921 32.7930
1944 331.7825
1966 21.6234
1975 40.9856
2067 120.9876
2118 207.4467
2167 140.5861
2220 89.3216
2243 58.7136
2272 25.6767
2294 55.8175
2609 234.5399
2728 339.6690
2931 172.3126
3031 91.9900
3044 230.3759
3058 4.2975
3085 351.6426
3166 252.4181
3188 226.9825
3496 0.9753
3614 244.0540
3656 250.0207
3697 256.7250
3722 263.1373
3847 91.7960
3888 160.2777
4051 219.6611
4174 55.2462
4734 334.9630
4804 240.2327
4952 2.5038
5093 107.9411
5103 138.0016
5144 72.6039
5332 248.3506
5363 293.3145
5457 184.2608
5683 117.4097
5900 62.5584
6049 341.3275
6089 191.3844
6125 240.1905
6181 333.4073
6190 294.8761
6214 232.2694
6331 118.0674
6344 8.1321
6432 88.0784
7006 164.8906
7253 127.0896
7344 117.9263
7385 182.4715
7394 79.1672
7408 102.6559
7540 210.7427
7948 21.4377
8021 177.0657
8226 63.1603
8265 39.5877
8391 47.5280
8443 83.1099
8487 258.7402
8515 199.6112
8527 182.2705
8693 77.9959
8705 289.4746
8731 102.3646
8771 206.3114
8793 131.5369
8887 269.1584
8910 293.4209
8921 97.4609
8973 51.6377
8998 152.4989
PLANTSmolcadARTstart hb
PLANTSmolcadARTstart HB
LINES
PLANTSmolcadARTstart HBCH
LINES
PLANTSmolcadARTstart HB-CHO
LINES
PLANTSmolcadARTend
PLANTSmolcadARTstart HB_WATER
LINES
PLANTSmolcadARTend

PLANTSmolcadARTend

