@<TRIPOS>MOLECULE
aspirin_entry_00001_conf_51
20 20 1
SMALL
NO_CHARGES


@<TRIPOS>ATOM
      1 C           0.8583  -36.3287   -4.7300 C.3       1 UNL1        0.0000
      2 C           0.5027  -37.5751   -5.4543 C.2       1 UNL1        0.0000
      3 C          -0.5156  -38.6919   -3.5417 C.ar      1 UNL1        0.0000
      4 C          -1.0534  -37.6427   -2.8269 C.ar      1 UNL1        0.0000
      5 C          -1.4521  -37.7446   -1.5088 C.ar      1 UNL1        0.0000
      6 C          -1.3048  -38.9563   -0.8784 C.ar      1 UNL1        0.0000
      7 C          -0.7724  -40.0377   -1.5460 C.ar      1 UNL1        0.0000
      8 C          -0.3813  -39.8960   -2.8782 C.ar      1 UNL1        0.0000
      9 C           0.1772  -41.0647   -3.5475 C.2       1 UNL1        0.0000
     10 O           0.7434  -37.7395   -6.6887 O.2       1 UNL1        0.0000
     11 O          -0.1079  -38.6359   -4.8470 O.3       1 UNL1        0.0000
     12 O           0.4926  -42.0937   -2.8971 O.co2     1 UNL1       -0.5000
     13 O           0.3826  -41.0862   -4.9168 O.co2     1 UNL1       -0.5000
     14 H           1.3251  -35.6442   -5.4072 H         1 UNL1        0.0000
     15 H           1.5348  -36.5597   -3.9340 H         1 UNL1        0.0000
     16 H          -0.0280  -35.8852   -4.3275 H         1 UNL1        0.0000
     17 H          -1.1641  -36.7335   -3.3020 H         1 UNL1        0.0000
     18 H          -1.8507  -36.9325   -1.0111 H         1 UNL1        0.0000
     19 H          -1.5955  -39.0582    0.1066 H         1 UNL1        0.0000
     20 H          -0.6650  -40.9452   -1.0657 H         1 UNL1        0.0000
@<TRIPOS>BOND
     1    1    2 1
     2    1   14 1
     3    1   15 1
     4    1   16 1
     5    2   10 2
     6    2   11 1
     7    3    4 ar
     8    3    8 ar
     9    3   11 1
    10    4    5 ar
    11    4   17 1
    12    5    6 ar
    13    5   18 1
    14    6    7 ar
    15    6   19 1
    16    7    8 ar
    17    7   20 1
    18    8    9 1
    19    9   12 ar
    20    9   13 ar
@<TRIPOS>SUBSTRUCTURE
1 UNL1 1
@<TRIPOS>COMMENT
aspirin
PLANTSproteinTorsions
102
1 250.3889
42 307.7712
151 77.0019
173 112.3368
432 190.1492
491 161.2675
531 252.4026
563 249.0085
572 77.3616
629 169.9832
730 187.0041
826 214.2193
895 152.0251
921 267.4026
954 161.8459
1044 46.6748
1258 47.4240
1480 183.5453
1534 178.1641
1612 346.4166
1654 270.4540
1680 167.7328
1704 271.5536
1767 258.6208
1795 225.9856
1847 146.8132
1879 142.4276
1921 206.0114
1944 49.0019
1966 129.4521
1975 235.3730
2067 12.5711
2118 93.6296
2167 38.5064
2220 5.5002
2243 205.3384
2272 177.3313
2294 345.4744
2609 74.1162
2728 259.0500
2931 115.3407
3031 117.6970
3044 111.3640
3058 225.4235
3085 249.8732
3166 192.4232
3188 166.6034
3496 229.6584
3614 57.7851
3656 40.6852
3697 301.8615
3722 83.0172
3847 263.8676
3888 266.1997
4051 244.7831
4174 267.3908
4734 192.9497
4804 38.9349
4952 133.6774
5093 200.6007
5103 84.1836
5144 42.6902
5332 109.2945
5363 229.0026
5457 259.1055
5683 77.4721
5900 230.6888
6049 81.2975
6089 203.5151
6125 255.0413
6181 182.7294
6190 45.8637
6214 356.0471
6331 130.0562
6344 284.6914
6432 209.6704
7006 227.4033
7253 186.3618
7344 204.8322
7385 354.1063
7394 322.8694
7408 59.7401
7540 225.3693
7948 182.3022
8021 176.3646
8226 185.5714
8265 304.4148
8391 184.2908
8443 273.1980
8487 109.6361
8515 270.1373
8527 196.5751
8693 176.2914
8705 331.1555
8731 227.3980
8771 200.0053
8793 35.7252
8887 7.4091
8910 104.8753
8921 6.2984
8973 263.5028
8998 175.1184
PLANTSmolcadARTstart hb
PLANTSmolcadARTstart HB
LINES
PLANTSmolcadARTstart HBCH
LINES
PLANTSmolcadARTstart HB-CHO
LINES
PLANTSmolcadARTend
PLANTSmolcadARTstart HB_WATER
LINES
PLANTSmolcadARTend

PLANTSmolcadARTend

