@<TRIPOS>MOLECULE
aspirin_entry_00001_conf_61
20 20 1
SMALL
NO_CHARGES


@<TRIPOS>ATOM
      1 C         -39.7922  -69.9548   17.2865 C.3       1 UNL1        0.0000
      2 C         -38.5251  -69.3429   17.7607 C.2       1 UNL1        0.0000
      3 C         -39.5645  -67.8404   19.3745 C.ar      1 UNL1        0.0000
      4 C         -40.4088  -66.8722   18.8738 C.ar      1 UNL1        0.0000
      5 C         -41.4872  -66.3671   19.5727 C.ar      1 UNL1        0.0000
      6 C         -41.7305  -66.8570   20.8329 C.ar      1 UNL1        0.0000
      7 C         -40.9177  -67.8249   21.3816 C.ar      1 UNL1        0.0000
      8 C         -39.8372  -68.3112   20.6442 C.ar      1 UNL1        0.0000
      9 C         -39.0024  -69.3347   21.2615 C.2       1 UNL1        0.0000
     10 O         -37.3908  -69.6838   17.3068 O.2       1 UNL1        0.0000
     11 O         -38.4861  -68.3688   18.7181 O.3       1 UNL1        0.0000
     12 O         -38.2043  -70.0207   20.5731 O.co2     1 UNL1       -0.5000
     13 O         -39.0569  -69.5911   22.6213 O.co2     1 UNL1       -0.5000
     14 H         -39.5751  -70.6886   16.5387 H         1 UNL1        0.0000
     15 H         -40.4202  -69.1957   16.8694 H         1 UNL1        0.0000
     16 H         -40.2931  -70.4199   18.1093 H         1 UNL1        0.0000
     17 H         -40.2252  -66.5058   17.9269 H         1 UNL1        0.0000
     18 H         -42.0946  -65.6418   19.1590 H         1 UNL1        0.0000
     19 H         -42.5306  -66.4958   21.3756 H         1 UNL1        0.0000
     20 H         -41.1068  -68.1883   22.3291 H         1 UNL1        0.0000
@<TRIPOS>BOND
     1    1    2 1
     2    1   14 1
     3    1   15 1
     4    1   16 1
     5    2   10 2
     6    2   11 1
     7    3    4 ar
     8    3    8 ar
     9    3   11 1
    10    4    5 ar
    11    4   17 1
    12    5    6 ar
    13    5   18 1
    14    6    7 ar
    15    6   19 1
    16    7    8 ar
    17    7   20 1
    18    8    9 1
    19    9   12 ar
    20    9   13 ar
@<TRIPOS>SUBSTRUCTURE
1 UNL1 1
@<TRIPOS>COMMENT
aspirin
PLANTSproteinTorsions
102
1 146.2750
42 162.1538
151 328.4707
173 191.4710
432 255.3533
491 4.8268
531 34.8863
563 211.4182
572 115.8250
629 67.9827
730 116.9538
826 354.7438
895 215.9457
921 42.7954
954 91.1180
1044 198.0577
1258 11.0676
1480 205.3439
1534 36.2995
1612 38.8881
1654 298.4414
1680 209.6030
1704 338.0011
1767 219.5677
1795 87.7402
1847 117.1899
1879 244.9134
1921 261.2155
1944 132.7992
1966 259.8678
1975 223.1917
2067 172.6941
2118 49.9331
2167 159.5428
2220 168.8889
2243 233.6514
2272 89.3401
2294 124.7739
2609 99.9514
2728 322.2346
2931 130.7170
3031 298.0178
3044 258.9234
3058 306.5857
3085 247.8697
3166 166.6795
3188 244.7999
3496 292.7338
3614 254.9377
3656 35.6740
3697 162.5773
3722 31.1680
3847 61.3795
3888 116.3126
4051 124.1584
4174 101.1982
4734 58.5240
4804 248.0277
4952 20.5348
5093 169.0738
5103 221.2805
5144 244.3426
5332 127.6281
5363 279.6202
5457 69.8376
5683 58.0606
5900 208.1792
6049 190.8776
6089 206.6673
6125 109.5083
6181 305.4158
6190 270.2951
6214 162.2123
6331 246.8477
6344 13.9837
6432 183.6205
7006 147.7438
7253 215.2409
7344 103.6734
7385 74.1505
7394 18.2205
7408 8.6091
7540 264.7569
7948 256.6748
8021 258.9695
8226 65.1339
8265 250.7442
8391 46.5207
8443 75.5001
8487 224.5776
8515 331.5885
8527 105.4105
8693 149.7751
8705 309.4330
8731 64.5648
8771 70.7347
8793 71.9850
8887 326.0896
8910 98.2784
8921 142.9688
8973 70.0225
8998 154.3200
PLANTSmolcadARTstart hb
PLANTSmolcadARTstart HB
LINES
PLANTSmolcadARTstart HBCH
LINES
-39.0569 -69.5911 22.6213 -38.933 -68.058 23.629 255 0 0 5
PLANTSmolcadARTstart HB-CHO
LINES
PLANTSmolcadARTend
PLANTSmolcadARTstart HB_WATER
LINES
PLANTSmolcadARTend

PLANTSmolcadARTend

