@<TRIPOS>MOLECULE
aspirin_entry_00001_conf_22
20 20 1
SMALL
NO_CHARGES


@<TRIPOS>ATOM
      1 C         -13.8288  -64.2912   -4.2536 C.3       1 UNL1        0.0000
      2 C         -13.7487  -64.2115   -2.7730 C.2       1 UNL1        0.0000
      3 C         -14.0587  -62.9450   -0.7134 C.ar      1 UNL1        0.0000
      4 C         -14.4121  -63.9356    0.1781 C.ar      1 UNL1        0.0000
      5 C         -14.4151  -63.7614    1.5479 C.ar      1 UNL1        0.0000
      6 C         -14.0453  -62.5359    2.0467 C.ar      1 UNL1        0.0000
      7 C         -13.6833  -61.5107    1.2002 C.ar      1 UNL1        0.0000
      8 C         -13.6923  -61.7251   -0.1789 C.ar      1 UNL1        0.0000
      9 C         -13.3025  -60.6143   -1.0390 C.2       1 UNL1        0.0000
     10 O         -13.4014  -65.1972   -2.0543 O.2       1 UNL1        0.0000
     11 O         -14.0414  -63.0734   -2.0759 O.3       1 UNL1        0.0000
     12 O         -12.8279  -59.5557   -0.5535 O.co2     1 UNL1       -0.5000
     13 O         -13.4408  -60.6804   -2.4152 O.co2     1 UNL1       -0.5000
     14 H         -13.5548  -65.2752   -4.5724 H         1 UNL1        0.0000
     15 H         -13.1593  -63.5772   -4.6856 H         1 UNL1        0.0000
     16 H         -14.8288  -64.0787   -4.5683 H         1 UNL1        0.0000
     17 H         -14.6889  -64.8556   -0.1980 H         1 UNL1        0.0000
     18 H         -14.6868  -64.5314    2.1798 H         1 UNL1        0.0000
     19 H         -14.0391  -62.3805    3.0670 H         1 UNL1        0.0000
     20 H         -13.4065  -60.5926    1.5824 H         1 UNL1        0.0000
@<TRIPOS>BOND
     1    1    2 1
     2    1   14 1
     3    1   15 1
     4    1   16 1
     5    2   10 2
     6    2   11 1
     7    3    4 ar
     8    3    8 ar
     9    3   11 1
    10    4    5 ar
    11    4   17 1
    12    5    6 ar
    13    5   18 1
    14    6    7 ar
    15    6   19 1
    16    7    8 ar
    17    7   20 1
    18    8    9 1
    19    9   12 ar
    20    9   13 ar
@<TRIPOS>SUBSTRUCTURE
1 UNL1 1
@<TRIPOS>COMMENT
aspirin
PLANTSproteinTorsions
102
1 227.5410
42 66.3161
151 85.2842
173 130.3147
432 74.5305
491 121.9954
531 8.9494
563 29.5930
572 64.3975
629 34.0559
730 20.8123
826 24.7754
895 169.5106
921 86.1644
954 51.0657
1044 108.4571
1258 88.7362
1480 161.9155
1534 160.0572
1612 356.6127
1654 49.8821
1680 170.1412
1704 304.0934
1767 84.9558
1795 124.5322
1847 131.4857
1879 146.2690
1921 76.2463
1944 5.3638
1966 246.7916
1975 286.2581
2067 207.9637
2118 135.9349
2167 117.6680
2220 264.0626
2243 289.9036
2272 252.1845
2294 35.2628
2609 83.9989
2728 170.6847
2931 45.1528
3031 183.7992
3044 21.4641
3058 24.0918
3085 0.0987
3166 0.4871
3188 82.3260
3496 125.5247
3614 169.1165
3656 66.0345
3697 192.2447
3722 20.8452
3847 112.2985
3888 97.5894
4051 70.4853
4174 188.4560
4734 75.8926
4804 237.2373
4952 209.4773
5093 272.4662
5103 214.5558
5144 128.5289
5332 256.3752
5363 163.9603
5457 275.7562
5683 123.0027
5900 229.5690
6049 70.3985
6089 247.1056
6125 263.4369
6181 148.0695
6190 136.2172
6214 172.6548
6331 67.7359
6344 272.4609
6432 147.5715
7006 230.8105
7253 247.8041
7344 238.4062
7385 99.2888
7394 229.9792
7408 337.1869
7540 248.4770
7948 70.4055
8021 134.3746
8226 40.9159
8265 213.8727
8391 227.2984
8443 182.9616
8487 140.2890
8515 216.7444
8527 238.7054
8693 258.3005
8705 276.9279
8731 58.5916
8771 42.9217
8793 263.5916
8887 215.8724
8910 154.7240
8921 273.2278
8973 113.9712
8998 203.9942
PLANTSmolcadARTstart hb
PLANTSmolcadARTstart HB
LINES
-13.4408 -60.6804 -2.41523 -11.654 -59.599 -3.055 0 255 0 5
PLANTSmolcadARTstart HBCH
LINES
PLANTSmolcadARTstart HB-CHO
LINES
PLANTSmolcadARTend
PLANTSmolcadARTstart HB_WATER
LINES
PLANTSmolcadARTend

PLANTSmolcadARTend

