@<TRIPOS>MOLECULE
aspirin_entry_00001_conf_80
20 20 1
SMALL
NO_CHARGES


@<TRIPOS>ATOM
      1 C         -62.2426  -39.6465   -7.2559 C.3       1 UNL1        0.0000
      2 C         -61.3052  -38.5877   -7.7086 C.2       1 UNL1        0.0000
      3 C         -61.9268  -38.6757  -10.0641 C.ar      1 UNL1        0.0000
      4 C         -62.0602  -40.0261  -10.3084 C.ar      1 UNL1        0.0000
      5 C         -62.7260  -40.5394  -11.4038 C.ar      1 UNL1        0.0000
      6 C         -63.2849  -39.6563  -12.2956 C.ar      1 UNL1        0.0000
      7 C         -63.1807  -38.2965  -12.0997 C.ar      1 UNL1        0.0000
      8 C         -62.5002  -37.8154  -10.9802 C.ar      1 UNL1        0.0000
      9 C         -62.4131  -36.3700  -10.8105 C.2       1 UNL1        0.0000
     10 O         -60.4649  -38.0421   -6.9308 O.2       1 UNL1        0.0000
     11 O         -61.2768  -38.1238   -8.9935 O.3       1 UNL1        0.0000
     12 O         -63.0985  -35.5925  -11.5227 O.co2     1 UNL1       -0.5000
     13 O         -61.5760  -35.8004   -9.8658 O.co2     1 UNL1       -0.5000
     14 H         -62.0809  -39.8447   -6.2169 H         1 UNL1        0.0000
     15 H         -62.0711  -40.5393   -7.8200 H         1 UNL1        0.0000
     16 H         -63.2497  -39.3183   -7.4050 H         1 UNL1        0.0000
     17 H         -61.6406  -40.6880   -9.6373 H         1 UNL1        0.0000
     18 H         -62.8025  -41.5589  -11.5480 H         1 UNL1        0.0000
     19 H         -63.7880  -40.0151  -13.1222 H         1 UNL1        0.0000
     20 H         -63.6034  -37.6390  -12.7741 H         1 UNL1        0.0000
@<TRIPOS>BOND
     1    1    2 1
     2    1   14 1
     3    1   15 1
     4    1   16 1
     5    2   10 2
     6    2   11 1
     7    3    4 ar
     8    3    8 ar
     9    3   11 1
    10    4    5 ar
    11    4   17 1
    12    5    6 ar
    13    5   18 1
    14    6    7 ar
    15    6   19 1
    16    7    8 ar
    17    7   20 1
    18    8    9 1
    19    9   12 ar
    20    9   13 ar
@<TRIPOS>SUBSTRUCTURE
1 UNL1 1
@<TRIPOS>COMMENT
aspirin
PLANTSproteinTorsions
102
1 50.0714
42 44.8067
151 81.2369
173 217.4924
432 212.3803
491 9.7942
531 41.9185
563 177.1291
572 42.9780
629 190.7570
730 165.8195
826 26.7794
895 103.7177
921 38.7565
954 243.6869
1044 86.2986
1258 3.8528
1480 50.2308
1534 33.5633
1612 2.3995
1654 233.7299
1680 224.7615
1704 253.6897
1767 327.9230
1795 177.5950
1847 106.0893
1879 290.9744
1921 251.1246
1944 6.4509
1966 12.2519
1975 37.9932
2067 269.0823
2118 342.0664
2167 127.5819
2220 96.2601
2243 165.3806
2272 255.6340
2294 24.2390
2609 194.9620
2728 172.5329
2931 97.0701
3031 137.4402
3044 228.2596
3058 82.5422
3085 177.5750
3166 107.2260
3188 242.8011
3496 106.2635
3614 79.7621
3656 138.1563
3697 205.3426
3722 238.4837
3847 332.1189
3888 246.3050
4051 89.0293
4174 162.3849
4734 227.8948
4804 6.3690
4952 132.7509
5093 25.6508
5103 177.4432
5144 103.7114
5332 240.7702
5363 122.4084
5457 251.9378
5683 232.8270
5900 91.6951
6049 179.8344
6089 31.6234
6125 246.3694
6181 252.7257
6190 180.3488
6214 270.6849
6331 117.2365
6344 100.0016
6432 255.9848
7006 239.5320
7253 239.9246
7344 265.7874
7385 92.0405
7394 72.9867
7408 266.6579
7540 214.5526
7948 172.5086
8021 240.3093
8226 66.2363
8265 279.3453
8391 198.9792
8443 92.4032
8487 294.6151
8515 25.5252
8527 113.8501
8693 31.3367
8705 267.5778
8731 217.5890
8771 41.6429
8793 265.3450
8887 126.1447
8910 260.0159
8921 159.0320
8973 234.2473
8998 178.4388
PLANTSmolcadARTstart hb
PLANTSmolcadARTstart HB
LINES
-60.4649 -38.0421 -6.93084 -58.849 -39.09 -7.693 0 255 0 5
PLANTSmolcadARTstart HBCH
LINES
PLANTSmolcadARTstart HB-CHO
LINES
PLANTSmolcadARTend
PLANTSmolcadARTstart HB_WATER
LINES
PLANTSmolcadARTend

PLANTSmolcadARTend

