@<TRIPOS>MOLECULE
aspirin_entry_00001_conf_81
20 20 1
SMALL
NO_CHARGES


@<TRIPOS>ATOM
      1 C         -24.4816  -38.5400    2.8517 C.3       1 UNL1        0.0000
      2 C         -24.6973  -37.0881    2.6272 C.2       1 UNL1        0.0000
      3 C         -25.9544  -35.0502    3.0841 C.ar      1 UNL1        0.0000
      4 C         -24.9852  -34.0763    2.9690 C.ar      1 UNL1        0.0000
      5 C         -25.2692  -32.7308    2.8438 C.ar      1 UNL1        0.0000
      6 C         -26.5875  -32.3443    2.8329 C.ar      1 UNL1        0.0000
      7 C         -27.5959  -33.2765    2.9453 C.ar      1 UNL1        0.0000
      8 C         -27.2694  -34.6277    3.0698 C.ar      1 UNL1        0.0000
      9 C         -28.3664  -35.5811    3.1861 C.2       1 UNL1        0.0000
     10 O         -23.9460  -36.3946    1.8766 O.2       1 UNL1        0.0000
     11 O         -25.7188  -36.3925    3.2099 O.3       1 UNL1        0.0000
     12 O         -29.5465  -35.1897    3.3749 O.co2     1 UNL1       -0.5000
     13 O         -28.1525  -36.9463    3.0959 O.co2     1 UNL1       -0.5000
     14 H         -23.6273  -38.8633    2.2944 H         1 UNL1        0.0000
     15 H         -25.3448  -39.0827    2.5278 H         1 UNL1        0.0000
     16 H         -24.3178  -38.7190    3.8935 H         1 UNL1        0.0000
     17 H         -23.9957  -34.3682    2.9765 H         1 UNL1        0.0000
     18 H         -24.5115  -32.0344    2.7597 H         1 UNL1        0.0000
     19 H         -26.8259  -31.3445    2.7402 H         1 UNL1        0.0000
     20 H         -28.5843  -32.9786    2.9362 H         1 UNL1        0.0000
@<TRIPOS>BOND
     1    1    2 1
     2    1   14 1
     3    1   15 1
     4    1   16 1
     5    2   10 2
     6    2   11 1
     7    3    4 ar
     8    3    8 ar
     9    3   11 1
    10    4    5 ar
    11    4   17 1
    12    5    6 ar
    13    5   18 1
    14    6    7 ar
    15    6   19 1
    16    7    8 ar
    17    7   20 1
    18    8    9 1
    19    9   12 ar
    20    9   13 ar
@<TRIPOS>SUBSTRUCTURE
1 UNL1 1
@<TRIPOS>COMMENT
aspirin
PLANTSproteinTorsions
102
1 180.5196
42 332.1358
151 2.7548
173 88.2707
432 48.5853
491 185.0770
531 170.3380
563 34.0402
572 282.6247
629 50.6097
730 8.8171
826 79.0823
895 65.1059
921 9.3262
954 39.7483
1044 24.3034
1258 60.9439
1480 43.3509
1534 112.9852
1612 120.9947
1654 254.6285
1680 58.8112
1704 219.5462
1767 350.9781
1795 334.7768
1847 203.1697
1879 257.4093
1921 150.3068
1944 233.4755
1966 173.7800
1975 43.5305
2067 54.2708
2118 178.6281
2167 316.7290
2220 187.7635
2243 304.3112
2272 155.4758
2294 343.7155
2609 225.5380
2728 123.7401
2931 195.5341
3031 55.5115
3044 344.2294
3058 76.1437
3085 295.0422
3166 282.8401
3188 89.2744
3496 193.0243
3614 53.1365
3656 275.9365
3697 43.2907
3722 154.4600
3847 131.4160
3888 151.3799
4051 76.6159
4174 91.1623
4734 74.1111
4804 8.2611
4952 180.7488
5093 81.9772
5103 104.0302
5144 108.5847
5332 295.0199
5363 157.5469
5457 186.8542
5683 243.0173
5900 60.9959
6049 246.6502
6089 219.2385
6125 308.5170
6181 121.9021
6190 133.0365
6214 58.5676
6331 72.1458
6344 155.6717
6432 202.6996
7006 169.1998
7253 124.9757
7344 304.9525
7385 154.0566
7394 294.3802
7408 235.9103
7540 261.9018
7948 282.9297
8021 226.3173
8226 279.2701
8265 193.3442
8391 74.5685
8443 242.4678
8487 188.9147
8515 50.5976
8527 229.7127
8693 93.7802
8705 30.5562
8731 239.1181
8771 17.1508
8793 293.6604
8887 181.4559
8910 319.2059
8921 177.6068
8973 123.1169
8998 253.6580
PLANTSmolcadARTstart hb
PLANTSmolcadARTstart HB
LINES
PLANTSmolcadARTstart HBCH
LINES
PLANTSmolcadARTstart HB-CHO
LINES
PLANTSmolcadARTend
PLANTSmolcadARTstart HB_WATER
LINES
PLANTSmolcadARTend

PLANTSmolcadARTend

