@<TRIPOS>MOLECULE
aspirin_entry_00001_conf_05
20 20 1
SMALL
NO_CHARGES


@<TRIPOS>ATOM
      1 C         -33.1714  -64.6755    1.3189 C.3       1 UNL1        0.0000
      2 C         -33.8772  -63.6021    2.0636 C.2       1 UNL1        0.0000
      3 C         -31.9548  -62.9191    3.3979 C.ar      1 UNL1        0.0000
      4 C         -30.8801  -63.2114    2.5853 C.ar      1 UNL1        0.0000
      5 C         -29.5827  -63.3146    3.0466 C.ar      1 UNL1        0.0000
      6 C         -29.3527  -63.1142    4.3861 C.ar      1 UNL1        0.0000
      7 C         -30.3909  -62.8198    5.2429 C.ar      1 UNL1        0.0000
      8 C         -31.6889  -62.7236    4.7392 C.ar      1 UNL1        0.0000
      9 C         -32.7582  -62.4104    5.6795 C.2       1 UNL1        0.0000
     10 O         -35.1090  -63.3511    1.8951 O.2       1 UNL1        0.0000
     11 O         -33.2546  -62.8072    2.9842 O.3       1 UNL1        0.0000
     12 O         -32.4997  -62.0340    6.8513 O.co2     1 UNL1       -0.5000
     13 O         -34.0918  -62.5164    5.3219 O.co2     1 UNL1       -0.5000
     14 H         -33.8586  -65.1616    0.6584 H         1 UNL1        0.0000
     15 H         -32.7769  -65.3894    2.0112 H         1 UNL1        0.0000
     16 H         -32.3711  -64.2487    0.7517 H         1 UNL1        0.0000
     17 H         -31.0543  -63.3609    1.5794 H         1 UNL1        0.0000
     18 H         -28.8067  -63.5352    2.4023 H         1 UNL1        0.0000
     19 H         -28.3917  -63.1855    4.7556 H         1 UNL1        0.0000
     20 H         -30.2103  -62.6704    6.2483 H         1 UNL1        0.0000
@<TRIPOS>BOND
     1    1    2 1
     2    1   14 1
     3    1   15 1
     4    1   16 1
     5    2   10 2
     6    2   11 1
     7    3    4 ar
     8    3    8 ar
     9    3   11 1
    10    4    5 ar
    11    4   17 1
    12    5    6 ar
    13    5   18 1
    14    6    7 ar
    15    6   19 1
    16    7    8 ar
    17    7   20 1
    18    8    9 1
    19    9   12 ar
    20    9   13 ar
@<TRIPOS>SUBSTRUCTURE
1 UNL1 1
@<TRIPOS>COMMENT
aspirin
PLANTSproteinTorsions
102
1 189.5209
42 225.5958
151 7.0981
173 113.6792
432 55.0769
491 195.1805
531 240.3777
563 180.8970
572 27.6846
629 69.5719
730 54.4407
826 99.1804
895 157.7674
921 109.6192
954 334.2398
1044 336.8522
1258 277.8016
1480 177.0976
1534 9.5544
1612 351.4624
1654 298.3254
1680 63.4835
1704 35.6096
1767 350.5417
1795 181.6548
1847 51.9724
1879 135.2031
1921 170.3229
1944 39.1184
1966 92.2953
1975 141.0357
2067 63.6990
2118 65.0585
2167 86.7468
2220 126.0300
2243 214.0216
2272 60.3924
2294 12.0074
2609 43.6103
2728 173.6044
2931 166.2407
3031 79.2938
3044 30.4079
3058 186.1028
3085 86.9647
3166 251.4481
3188 274.0241
3496 272.1902
3614 36.5049
3656 135.4385
3697 51.0707
3722 128.8445
3847 198.2743
3888 86.0192
4051 140.3209
4174 201.8352
4734 171.7173
4804 63.3874
4952 123.4092
5093 234.2884
5103 267.1120
5144 26.0566
5332 305.9349
5363 114.5327
5457 254.1512
5683 175.1433
5900 104.4695
6049 159.9936
6089 200.3386
6125 40.7009
6181 135.5664
6190 76.4011
6214 249.7190
6331 244.5247
6344 246.8255
6432 251.9793
7006 125.4519
7253 138.6512
7344 115.3239
7385 94.0798
7394 238.6784
7408 264.0457
7540 195.0983
7948 244.1985
8021 147.8346
8226 245.7434
8265 348.4153
8391 186.5430
8443 24.6268
8487 257.6213
8515 156.1967
8527 160.0898
8693 136.8994
8705 83.2406
8731 70.2254
8771 306.4047
8793 56.3141
8887 236.0900
8910 171.8452
8921 33.2764
8973 145.8963
8998 296.1468
PLANTSmolcadARTstart hb
PLANTSmolcadARTstart HB
LINES
-35.109 -63.3511 1.89514 -36.2658 -64.7421 1.34757 0 255 0 5
-34.0918 -62.5164 5.32185 -35.0814 -60.8897 6.2076 0 255 0 5
PLANTSmolcadARTstart HBCH
LINES
PLANTSmolcadARTstart HB-CHO
LINES
PLANTSmolcadARTend
PLANTSmolcadARTstart HB_WATER
LINES
PLANTSmolcadARTend

PLANTSmolcadARTend

