@<TRIPOS>MOLECULE
aspirin_entry_00001_conf_95
20 20 1
SMALL
NO_CHARGES


@<TRIPOS>ATOM
      1 C         -34.2586  -16.9061   11.2062 C.3       1 UNL1        0.0000
      2 C         -33.2047  -17.3653   10.2664 C.2       1 UNL1        0.0000
      3 C         -31.0635  -18.4645    9.8800 C.ar      1 UNL1        0.0000
      4 C         -31.2723  -19.0649    8.6566 C.ar      1 UNL1        0.0000
      5 C         -30.2545  -19.5765    7.8761 C.ar      1 UNL1        0.0000
      6 C         -28.9667  -19.4803    8.3447 C.ar      1 UNL1        0.0000
      7 C         -28.7019  -18.8902    9.5613 C.ar      1 UNL1        0.0000
      8 C         -29.7571  -18.3842   10.3218 C.ar      1 UNL1        0.0000
      9 C         -29.4335  -17.7678   11.6028 C.2       1 UNL1        0.0000
     10 O         -33.3146  -17.2493    9.0081 O.2       1 UNL1        0.0000
     11 O         -32.0404  -17.9447   10.6854 O.3       1 UNL1        0.0000
     12 O         -28.2868  -17.8846   12.1056 O.co2     1 UNL1       -0.5000
     13 O         -30.3710  -17.0360   12.3122 O.co2     1 UNL1       -0.5000
     14 H         -35.0722  -16.4872   10.6515 H         1 UNL1        0.0000
     15 H         -33.8534  -16.1631   11.8606 H         1 UNL1        0.0000
     16 H         -34.6086  -17.7365   11.7825 H         1 UNL1        0.0000
     17 H         -32.2399  -19.1357    8.3056 H         1 UNL1        0.0000
     18 H         -30.4559  -20.0182    6.9648 H         1 UNL1        0.0000
     19 H         -28.1884  -19.8548    7.7798 H         1 UNL1        0.0000
     20 H         -27.7316  -18.8214    9.9069 H         1 UNL1        0.0000
@<TRIPOS>BOND
     1    1    2 1
     2    1   14 1
     3    1   15 1
     4    1   16 1
     5    2   10 2
     6    2   11 1
     7    3    4 ar
     8    3    8 ar
     9    3   11 1
    10    4    5 ar
    11    4   17 1
    12    5    6 ar
    13    5   18 1
    14    6    7 ar
    15    6   19 1
    16    7    8 ar
    17    7   20 1
    18    8    9 1
    19    9   12 ar
    20    9   13 ar
@<TRIPOS>SUBSTRUCTURE
1 UNL1 1
@<TRIPOS>COMMENT
aspirin
PLANTSproteinTorsions
102
1 128.1846
42 155.7213
151 85.7043
173 136.1098
432 55.5017
491 116.9144
531 16.5189
563 11.1801
572 19.4776
629 69.4432
730 30.6448
826 152.0513
895 159.7117
921 251.5315
954 25.8829
1044 201.5980
1258 32.9665
1480 233.8626
1534 119.6871
1612 29.3698
1654 64.8486
1680 332.1881
1704 257.5015
1767 86.0658
1795 98.9537
1847 128.0604
1879 91.8911
1921 82.4947
1944 20.2362
1966 238.8226
1975 298.2103
2067 202.7000
2118 196.3442
2167 101.8387
2220 258.4662
2243 96.7231
2272 296.8965
2294 147.2727
2609 3.0539
2728 158.5455
2931 176.9130
3031 198.1808
3044 8.6415
3058 3.1173
3085 76.3433
3166 29.9519
3188 88.1255
3496 138.2479
3614 194.5401
3656 32.5775
3697 315.1330
3722 276.4840
3847 115.0608
3888 92.7874
4051 72.2160
4174 26.0222
4734 130.7506
4804 280.4031
4952 189.5240
5093 239.8045
5103 257.6219
5144 45.9141
5332 341.9432
5363 3.6374
5457 47.0447
5683 17.8063
5900 182.6059
6049 144.0697
6089 266.5763
6125 61.1795
6181 220.2598
6190 247.8320
6214 174.2233
6331 341.3512
6344 282.1853
6432 156.6060
7006 134.5169
7253 352.1404
7344 239.8656
7385 67.5822
7394 121.4892
7408 260.8009
7540 221.0561
7948 66.3337
8021 122.8982
8226 267.4932
8265 168.8800
8391 162.3626
8443 101.7662
8487 274.9256
8515 72.0939
8527 254.1826
8693 258.7843
8705 275.1759
8731 272.0367
8771 274.2445
8793 212.8479
8887 155.3882
8910 235.1538
8921 291.0515
8973 96.4133
8998 254.0616
PLANTSmolcadARTstart hb
PLANTSmolcadARTstart HB
LINES
PLANTSmolcadARTstart HBCH
LINES
PLANTSmolcadARTstart HB-CHO
LINES
PLANTSmolcadARTend
PLANTSmolcadARTstart HB_WATER
LINES
PLANTSmolcadARTend

PLANTSmolcadARTend

