@<TRIPOS>MOLECULE
aspirin_entry_00001_conf_73
20 20 1
SMALL
NO_CHARGES


@<TRIPOS>ATOM
      1 C          -9.8540  -53.9266   22.1173 C.3       1 UNL1        0.0000
      2 C         -11.1499  -54.6497   22.1694 C.2       1 UNL1        0.0000
      3 C         -12.4971  -56.6017   21.6065 C.ar      1 UNL1        0.0000
      4 C         -13.7620  -56.0626   21.5052 C.ar      1 UNL1        0.0000
      5 C         -14.9149  -56.8226   21.4952 C.ar      1 UNL1        0.0000
      6 C         -14.7928  -58.1876   21.5905 C.ar      1 UNL1        0.0000
      7 C         -13.5524  -58.7785   21.6944 C.ar      1 UNL1        0.0000
      8 C         -12.4098  -57.9771   21.7007 C.ar      1 UNL1        0.0000
      9 C         -11.1172  -58.6422   21.8122 C.2       1 UNL1        0.0000
     10 O         -12.1801  -54.1647   22.7282 O.2       1 UNL1        0.0000
     11 O         -11.3295  -55.8878   21.6202 O.3       1 UNL1        0.0000
     12 O         -11.0304  -59.8965   21.7841 O.co2     1 UNL1       -0.5000
     13 O          -9.9423  -57.9233   21.9546 O.co2     1 UNL1       -0.5000
     14 H          -9.9536  -52.9817   22.6095 H         1 UNL1        0.0000
     15 H          -9.5747  -53.7691   21.0966 H         1 UNL1        0.0000
     16 H          -9.1016  -54.5077   22.6076 H         1 UNL1        0.0000
     17 H         -13.8520  -55.0374   21.4329 H         1 UNL1        0.0000
     18 H         -15.8430  -56.3771   21.4173 H         1 UNL1        0.0000
     19 H         -15.6395  -58.7777   21.5850 H         1 UNL1        0.0000
     20 H         -13.4685  -59.8050   21.7655 H         1 UNL1        0.0000
@<TRIPOS>BOND
     1    1    2 1
     2    1   14 1
     3    1   15 1
     4    1   16 1
     5    2   10 2
     6    2   11 1
     7    3    4 ar
     8    3    8 ar
     9    3   11 1
    10    4    5 ar
    11    4   17 1
    12    5    6 ar
    13    5   18 1
    14    6    7 ar
    15    6   19 1
    16    7    8 ar
    17    7   20 1
    18    8    9 1
    19    9   12 ar
    20    9   13 ar
@<TRIPOS>SUBSTRUCTURE
1 UNL1 1
@<TRIPOS>COMMENT
aspirin
PLANTSproteinTorsions
102
1 229.6326
42 98.5494
151 334.6501
173 162.3857
432 153.7184
491 154.2805
531 337.8706
563 101.7648
572 193.7353
629 209.0998
730 205.2843
826 353.8969
895 24.5884
921 33.6771
954 32.0483
1044 45.7742
1258 35.9859
1480 22.8049
1534 117.9212
1612 356.8864
1654 147.6193
1680 115.2189
1704 356.5659
1767 76.6858
1795 158.1906
1847 228.6691
1879 117.4608
1921 27.8978
1944 132.1389
1966 131.5005
1975 344.7480
2067 168.3179
2118 96.0102
2167 180.5764
2220 82.6878
2243 34.6889
2272 159.3579
2294 10.3522
2609 143.4447
2728 95.6552
2931 79.4232
3031 222.6755
3044 141.9457
3058 147.8986
3085 241.6019
3166 196.4194
3188 13.6389
3496 2.1051
3614 47.8558
3656 203.3198
3697 49.6949
3722 245.0004
3847 89.5001
3888 114.8641
4051 111.1265
4174 47.8606
4734 168.1735
4804 92.3729
4952 291.8811
5093 170.7360
5103 109.9158
5144 326.5217
5332 189.6625
5363 54.0544
5457 195.2971
5683 54.5834
5900 40.6013
6049 210.3062
6089 240.7874
6125 218.4805
6181 24.2475
6190 207.3777
6214 253.1336
6331 181.5828
6344 31.5124
6432 88.6153
7006 209.1696
7253 205.2771
7344 318.0217
7385 64.4807
7394 238.9402
7408 148.6949
7540 248.0820
7948 44.5979
8021 194.2140
8226 71.3466
8265 238.9196
8391 67.8745
8443 102.4103
8487 216.1626
8515 335.6404
8527 154.6630
8693 182.6721
8705 265.1776
8731 185.1467
8771 105.9172
8793 311.2090
8887 186.7268
8910 99.2145
8921 81.0376
8973 177.7502
8998 156.3454
PLANTSmolcadARTstart hb
PLANTSmolcadARTstart HB
LINES
PLANTSmolcadARTstart HBCH
LINES
PLANTSmolcadARTstart HB-CHO
LINES
PLANTSmolcadARTend
PLANTSmolcadARTstart HB_WATER
LINES
PLANTSmolcadARTend

PLANTSmolcadARTend

