@<TRIPOS>MOLECULE
aspirin_entry_00001_conf_85
20 20 1
SMALL
NO_CHARGES


@<TRIPOS>ATOM
      1 C         -39.8445  -57.3316    3.4738 C.3       1 UNL1        0.0000
      2 C         -40.5002  -57.4207    4.8030 C.2       1 UNL1        0.0000
      3 C         -40.1025  -59.7990    5.1609 C.ar      1 UNL1        0.0000
      4 C         -39.0822  -60.0955    4.2822 C.ar      1 UNL1        0.0000
      5 C         -38.7685  -61.3803    3.8854 C.ar      1 UNL1        0.0000
      6 C         -39.5130  -62.4165    4.3948 C.ar      1 UNL1        0.0000
      7 C         -40.5444  -62.1762    5.2762 C.ar      1 UNL1        0.0000
      8 C         -40.8313  -60.8637    5.6542 C.ar      1 UNL1        0.0000
      9 C         -41.9305  -60.6534    6.5886 C.2       1 UNL1        0.0000
     10 O         -41.1557  -56.4587    5.3066 O.2       1 UNL1        0.0000
     11 O         -40.4476  -58.5429    5.5808 O.3       1 UNL1        0.0000
     12 O         -42.4403  -61.6172    7.2152 O.co2     1 UNL1       -0.5000
     13 O         -42.4540  -59.3924    6.8196 O.co2     1 UNL1       -0.5000
     14 H         -40.0216  -56.3635    3.0538 H         1 UNL1        0.0000
     15 H         -40.2491  -58.0807    2.8259 H         1 UNL1        0.0000
     16 H         -38.7919  -57.4863    3.5846 H         1 UNL1        0.0000
     17 H         -38.5235  -59.3163    3.9011 H         1 UNL1        0.0000
     18 H         -37.9950  -61.5574    3.2248 H         1 UNL1        0.0000
     19 H         -39.2981  -63.3861    4.1140 H         1 UNL1        0.0000
     20 H         -41.0994  -62.9600    5.6550 H         1 UNL1        0.0000
@<TRIPOS>BOND
     1    1    2 1
     2    1   14 1
     3    1   15 1
     4    1   16 1
     5    2   10 2
     6    2   11 1
     7    3    4 ar
     8    3    8 ar
     9    3   11 1
    10    4    5 ar
    11    4   17 1
    12    5    6 ar
    13    5   18 1
    14    6    7 ar
    15    6   19 1
    16    7    8 ar
    17    7   20 1
    18    8    9 1
    19    9   12 ar
    20    9   13 ar
@<TRIPOS>SUBSTRUCTURE
1 UNL1 1
@<TRIPOS>COMMENT
aspirin
PLANTSproteinTorsions
102
1 42.7032
42 5.9485
151 83.6808
173 348.0955
432 68.8211
491 229.7485
531 346.4456
563 304.5585
572 75.8533
629 170.9028
730 249.9109
826 91.0322
895 148.9832
921 76.0024
954 191.2584
1044 14.5290
1258 46.2851
1480 107.2972
1534 171.0580
1612 345.6975
1654 96.8964
1680 47.8803
1704 113.2539
1767 258.2268
1795 116.3334
1847 141.3801
1879 8.3104
1921 169.4818
1944 48.5197
1966 73.5558
1975 12.5045
2067 17.5330
2118 76.5689
2167 164.5989
2220 139.3996
2243 207.4088
2272 65.3933
2294 343.3692
2609 292.6255
2728 337.4784
2931 237.6616
3031 89.5471
3044 52.7905
3058 222.5721
3085 248.7569
3166 192.8069
3188 268.0697
3496 261.6754
3614 113.6194
3656 341.1345
3697 228.5915
3722 83.6501
3847 245.6599
3888 265.8717
4051 15.9262
4174 253.7824
4734 202.8671
4804 27.9786
4952 299.1906
5093 209.4450
5103 83.9907
5144 44.0469
5332 54.7309
5363 60.5936
5457 242.6749
5683 193.8184
5900 88.8527
6049 38.9448
6089 178.7659
6125 308.9879
6181 187.0001
6190 208.3290
6214 123.8262
6331 270.1444
6344 283.2623
6432 232.5800
7006 261.4629
7253 63.4883
7344 256.6342
7385 104.8703
7394 229.9480
7408 71.9689
7540 223.6632
7948 222.5494
8021 161.5993
8226 129.9035
8265 268.0195
8391 161.4205
8443 58.6803
8487 86.6493
8515 84.2797
8527 144.5565
8693 265.0531
8705 79.7566
8731 236.8343
8771 238.9229
8793 240.8996
8887 34.0183
8910 120.6638
8921 101.8038
8973 261.7242
8998 274.7783
PLANTSmolcadARTstart hb
PLANTSmolcadARTstart HB
LINES
-41.1557 -56.4587 5.30664 -41.439 -55.2287 3.66699 0 255 0 5
PLANTSmolcadARTstart HBCH
LINES
PLANTSmolcadARTstart HB-CHO
LINES
-42.454 -59.3924 6.81957 -43.2 -58.952 4.492 0 255 255 5
-42.454 -59.3924 6.81957 -41.89 -59.24 9.17 0 255 255 5
PLANTSmolcadARTend
PLANTSmolcadARTstart HB_WATER
LINES
PLANTSmolcadARTend

PLANTSmolcadARTend

