@<TRIPOS>MOLECULE
aspirin_entry_00001_conf_62
20 20 1
SMALL
NO_CHARGES


@<TRIPOS>ATOM
      1 C         -13.5336  -63.3877   -2.6948 C.3       1 UNL1        0.0000
      2 C         -13.5531  -62.3374   -1.6453 C.2       1 UNL1        0.0000
      3 C         -14.0876  -60.0625   -0.9514 C.ar      1 UNL1        0.0000
      4 C         -13.7298  -60.1655    0.3761 C.ar      1 UNL1        0.0000
      5 C         -13.8224  -59.1196    1.2728 C.ar      1 UNL1        0.0000
      6 C         -14.2954  -57.9134    0.8160 C.ar      1 UNL1        0.0000
      7 C         -14.6675  -57.7558   -0.5013 C.ar      1 UNL1        0.0000
      8 C         -14.5593  -58.8363   -1.3780 C.ar      1 UNL1        0.0000
      9 C         -14.9636  -58.6270   -2.7631 C.2       1 UNL1        0.0000
     10 O         -13.1428  -62.5459   -0.4634 O.2       1 UNL1        0.0000
     11 O         -14.0125  -61.0710   -1.8737 O.3       1 UNL1        0.0000
     12 O         -15.4996  -57.5484   -3.1247 O.co2     1 UNL1       -0.5000
     13 O         -14.7762  -59.6025   -3.7279 O.co2     1 UNL1       -0.5000
     14 H         -13.1330  -64.2918   -2.2862 H         1 UNL1        0.0000
     15 H         -12.9226  -63.0641   -3.5113 H         1 UNL1        0.0000
     16 H         -14.5299  -63.5628   -3.0423 H         1 UNL1        0.0000
     17 H         -13.3740  -61.0718    0.7175 H         1 UNL1        0.0000
     18 H         -13.5428  -59.2406    2.2594 H         1 UNL1        0.0000
     19 H         -14.3738  -57.1161    1.4666 H         1 UNL1        0.0000
     20 H         -15.0220  -56.8463   -0.8373 H         1 UNL1        0.0000
@<TRIPOS>BOND
     1    1    2 1
     2    1   14 1
     3    1   15 1
     4    1   16 1
     5    2   10 2
     6    2   11 1
     7    3    4 ar
     8    3    8 ar
     9    3   11 1
    10    4    5 ar
    11    4   17 1
    12    5    6 ar
    13    5   18 1
    14    6    7 ar
    15    6   19 1
    16    7    8 ar
    17    7   20 1
    18    8    9 1
    19    9   12 ar
    20    9   13 ar
@<TRIPOS>SUBSTRUCTURE
1 UNL1 1
@<TRIPOS>COMMENT
aspirin
PLANTSproteinTorsions
102
1 204.0309
42 90.1449
151 358.6730
173 168.1597
432 179.2239
491 46.3350
531 121.3171
563 115.3366
572 1.0815
629 82.5249
730 64.9148
826 334.4172
895 94.2638
921 162.4672
954 79.9970
1044 78.5090
1258 84.6540
1480 45.4260
1534 243.7451
1612 15.7277
1654 127.2424
1680 324.6866
1704 358.7906
1767 116.7404
1795 82.5373
1847 152.2847
1879 115.5254
1921 16.0973
1944 338.5795
1966 14.1539
1975 50.8753
2067 107.7099
2118 13.4718
2167 196.0019
2220 65.2599
2243 174.5283
2272 78.3807
2294 13.3385
2609 131.4251
2728 207.3445
2931 316.8808
3031 222.4521
3044 162.5190
3058 150.3183
3085 19.8606
3166 197.6662
3188 101.4704
3496 3.4571
3614 46.5351
3656 234.6254
3697 51.6999
3722 248.8172
3847 77.1884
3888 151.2925
4051 191.3113
4174 250.4687
4734 227.6454
4804 83.7586
4952 3.3126
5093 50.1244
5103 27.3331
5144 287.3235
5332 209.7632
5363 96.6643
5457 177.1481
5683 222.2762
5900 322.6859
6049 342.4883
6089 137.6256
6125 25.7856
6181 292.2340
6190 239.8402
6214 84.9186
6331 235.0175
6344 117.1637
6432 113.2065
7006 61.3113
7253 243.5091
7344 209.8054
7385 205.0853
7394 229.3852
7408 101.6897
7540 262.2079
7948 261.9560
8021 116.9415
8226 256.2230
8265 58.4199
8391 162.7139
8443 271.0214
8487 202.3112
8515 257.3022
8527 255.7062
8693 287.2285
8705 263.5129
8731 260.4459
8771 32.2910
8793 32.5427
8887 176.3517
8910 147.5090
8921 272.4985
8973 120.0418
8998 22.4386
PLANTSmolcadARTstart hb
PLANTSmolcadARTstart HB
LINES
-14.7762 -59.6025 -3.7279 -16.1313 -59.0092 -5.33274 0 255 0 5
PLANTSmolcadARTstart HBCH
LINES
PLANTSmolcadARTstart HB-CHO
LINES
PLANTSmolcadARTend
PLANTSmolcadARTstart HB_WATER
LINES
PLANTSmolcadARTend

PLANTSmolcadARTend

