@<TRIPOS>MOLECULE
aspirin_entry_00001_conf_23
20 20 1
SMALL
NO_CHARGES


@<TRIPOS>ATOM
      1 C         -29.7928  -63.1235    3.2025 C.3       1 UNL1        0.0000
      2 C         -30.8995  -63.6581    2.3694 C.2       1 UNL1        0.0000
      3 C         -32.6780  -63.3640    4.0104 C.ar      1 UNL1        0.0000
      4 C         -31.8937  -63.1857    5.1303 C.ar      1 UNL1        0.0000
      5 C         -32.4081  -62.9724    6.3939 C.ar      1 UNL1        0.0000
      6 C         -33.7736  -62.9354    6.5406 C.ar      1 UNL1        0.0000
      7 C         -34.6038  -63.1081    5.4546 C.ar      1 UNL1        0.0000
      8 C         -34.0466  -63.3211    4.1929 C.ar      1 UNL1        0.0000
      9 C         -34.9603  -63.4991    3.0708 C.2       1 UNL1        0.0000
     10 O         -30.7003  -64.2278    1.2539 O.2       1 UNL1        0.0000
     11 O         -32.2118  -63.5776    2.7415 O.3       1 UNL1        0.0000
     12 O         -34.5295  -63.7886    1.9253 O.co2     1 UNL1       -0.5000
     13 O         -36.3293  -63.3551    3.2212 O.co2     1 UNL1       -0.5000
     14 H         -28.8592  -63.3011    2.7106 H         1 UNL1        0.0000
     15 H         -29.7936  -63.6137    4.1534 H         1 UNL1        0.0000
     16 H         -29.9286  -62.0718    3.3431 H         1 UNL1        0.0000
     17 H         -30.8684  -63.2130    5.0184 H         1 UNL1        0.0000
     18 H         -31.7836  -62.8433    7.2059 H         1 UNL1        0.0000
     19 H         -34.1828  -62.7771    7.4747 H         1 UNL1        0.0000
     20 H         -35.6290  -63.0789    5.5726 H         1 UNL1        0.0000
@<TRIPOS>BOND
     1    1    2 1
     2    1   14 1
     3    1   15 1
     4    1   16 1
     5    2   10 2
     6    2   11 1
     7    3    4 ar
     8    3    8 ar
     9    3   11 1
    10    4    5 ar
    11    4   17 1
    12    5    6 ar
    13    5   18 1
    14    6    7 ar
    15    6   19 1
    16    7    8 ar
    17    7   20 1
    18    8    9 1
    19    9   12 ar
    20    9   13 ar
@<TRIPOS>SUBSTRUCTURE
1 UNL1 1
@<TRIPOS>COMMENT
aspirin
PLANTSproteinTorsions
102
1 291.6671
42 68.2124
151 83.7782
173 23.6776
432 199.3597
491 239.1508
531 232.2350
563 174.4211
572 20.5054
629 185.5822
730 251.1400
826 127.2741
895 148.3688
921 88.7356
954 52.2587
1044 241.0979
1258 258.2545
1480 181.4806
1534 173.5497
1612 90.1223
1654 274.4667
1680 47.3987
1704 89.1919
1767 245.7262
1795 84.0591
1847 68.1643
1879 260.0040
1921 170.0214
1944 49.2841
1966 145.4943
1975 240.0324
2067 203.6855
2118 77.8561
2167 211.6296
2220 138.6489
2243 221.0325
2272 44.8192
2294 231.2220
2609 294.3762
2728 152.6773
2931 236.1723
3031 248.4373
3044 44.7243
3058 191.7979
3085 111.7196
3166 81.2268
3188 270.4951
3496 278.6890
3614 134.6220
3656 311.5242
3697 228.5650
3722 26.3540
3847 203.0630
3888 73.8853
4051 324.2861
4174 169.9802
4734 89.6365
4804 5.4266
4952 298.4656
5093 154.8140
5103 160.8039
5144 45.2426
5332 235.7535
5363 234.7686
5457 243.0420
5683 238.6996
5900 212.9585
6049 126.2806
6089 225.5927
6125 255.7176
6181 213.5230
6190 40.0435
6214 125.2739
6331 235.1322
6344 280.6714
6432 228.5381
7006 197.9039
7253 100.5253
7344 253.5487
7385 271.9785
7394 216.7066
7408 130.8581
7540 263.4323
7948 222.3658
8021 197.3992
8226 127.2634
8265 132.4985
8391 102.4922
8443 5.2329
8487 271.0851
8515 119.6434
8527 184.3321
8693 61.2797
8705 82.8686
8731 267.5929
8771 237.4283
8793 44.1834
8887 66.0244
8910 96.0353
8921 48.7858
8973 136.7964
8998 213.3601
PLANTSmolcadARTstart hb
PLANTSmolcadARTstart HB
LINES
-34.5295 -63.7886 1.92529 -36.1522 -64.7599 1.14263 0 255 0 5
PLANTSmolcadARTstart HBCH
LINES
PLANTSmolcadARTstart HB-CHO
LINES
PLANTSmolcadARTend
PLANTSmolcadARTstart HB_WATER
LINES
PLANTSmolcadARTend

PLANTSmolcadARTend

