@<TRIPOS>MOLECULE
aspirin_entry_00001_conf_99
20 20 1
SMALL
NO_CHARGES


@<TRIPOS>ATOM
      1 C           0.2740  -62.8625    2.3155 C.3       1 UNL1        0.0000
      2 C          -0.5199  -64.0669    1.9636 C.2       1 UNL1        0.0000
      3 C          -1.8845  -64.0626    3.9835 C.ar      1 UNL1        0.0000
      4 C          -2.0279  -62.7233    4.2777 C.ar      1 UNL1        0.0000
      5 C          -2.4215  -62.2535    5.5151 C.ar      1 UNL1        0.0000
      6 C          -2.6843  -63.1708    6.5036 C.ar      1 UNL1        0.0000
      7 C          -2.5563  -64.5215    6.2635 C.ar      1 UNL1        0.0000
      8 C          -2.1565  -64.9581    4.9996 C.ar      1 UNL1        0.0000
      9 C          -2.0334  -66.3953    4.7876 C.2       1 UNL1        0.0000
     10 O          -0.3424  -64.7101    0.8849 O.2       1 UNL1        0.0000
     11 O          -1.4977  -64.5719    2.7735 O.3       1 UNL1        0.0000
     12 O          -1.9652  -66.8746    3.6270 O.co2     1 UNL1       -0.5000
     13 O          -1.9893  -67.2831    5.8494 O.co2     1 UNL1       -0.5000
     14 H           0.9763  -62.6584    1.5344 H         1 UNL1        0.0000
     15 H           0.7996  -63.0371    3.2308 H         1 UNL1        0.0000
     16 H          -0.3817  -62.0258    2.4346 H         1 UNL1        0.0000
     17 H          -1.8310  -62.0357    3.5341 H         1 UNL1        0.0000
     18 H          -2.5166  -61.2408    5.6922 H         1 UNL1        0.0000
     19 H          -2.9804  -62.8449    7.4370 H         1 UNL1        0.0000
     20 H          -2.7556  -65.2048    7.0111 H         1 UNL1        0.0000
@<TRIPOS>BOND
     1    1    2 1
     2    1   14 1
     3    1   15 1
     4    1   16 1
     5    2   10 2
     6    2   11 1
     7    3    4 ar
     8    3    8 ar
     9    3   11 1
    10    4    5 ar
    11    4   17 1
    12    5    6 ar
    13    5   18 1
    14    6    7 ar
    15    6   19 1
    16    7    8 ar
    17    7   20 1
    18    8    9 1
    19    9   12 ar
    20    9   13 ar
@<TRIPOS>SUBSTRUCTURE
1 UNL1 1
@<TRIPOS>COMMENT
aspirin
PLANTSproteinTorsions
102
1 261.9209
42 358.1373
151 45.1169
173 47.0882
432 75.0756
491 241.6794
531 237.9816
563 258.2986
572 75.8156
629 267.8521
730 98.7095
826 120.9187
895 249.1723
921 93.3595
954 17.4747
1044 23.6050
1258 145.5122
1480 177.1270
1534 157.8397
1612 89.1497
1654 266.0351
1680 27.2777
1704 9.2546
1767 257.5787
1795 89.4101
1847 82.6540
1879 141.3318
1921 141.9243
1944 53.7171
1966 113.0242
1975 226.1617
2067 29.8769
2118 100.9169
2167 184.9711
2220 27.4905
2243 199.5508
2272 54.5721
2294 237.0407
2609 61.7952
2728 85.3992
2931 243.0848
3031 305.5033
3044 48.1164
3058 189.3753
3085 40.0051
3166 61.1587
3188 42.1079
3496 286.7173
3614 331.9854
3656 13.3346
3697 217.8968
3722 17.6088
3847 234.7231
3888 69.6197
4051 196.2453
4174 161.0041
4734 46.3564
4804 136.9163
4952 62.4784
5093 195.6429
5103 20.6379
5144 24.9627
5332 248.0030
5363 220.7094
5457 171.8032
5683 11.8615
5900 222.6112
6049 77.2441
6089 208.2605
6125 261.1655
6181 178.9311
6190 217.8401
6214 162.7401
6331 115.6224
6344 259.2682
6432 265.9623
7006 192.2095
7253 54.3843
7344 92.6315
7385 235.9354
7394 239.3720
7408 269.6179
7540 289.7603
7948 156.6752
8021 169.9035
8226 91.8650
8265 125.5988
8391 160.2852
8443 244.3332
8487 257.2609
8515 54.6585
8527 187.6887
8693 65.1566
8705 299.7217
8731 240.4215
8771 264.9274
8793 104.8007
8887 22.8624
8910 165.0873
8921 315.3678
8973 254.6206
8998 214.8503
PLANTSmolcadARTstart hb
PLANTSmolcadARTstart HB
LINES
PLANTSmolcadARTstart HBCH
LINES
PLANTSmolcadARTstart HB-CHO
LINES
PLANTSmolcadARTend
PLANTSmolcadARTstart HB_WATER
LINES
PLANTSmolcadARTend

PLANTSmolcadARTend

