@<TRIPOS>MOLECULE
aspirin_entry_00001_conf_15
20 20 1
SMALL
NO_CHARGES


@<TRIPOS>ATOM
      1 C         -36.8168  -63.1339    4.7477 C.3       1 UNL1        0.0000
      2 C         -35.5996  -63.3699    3.9306 C.2       1 UNL1        0.0000
      3 C         -33.1810  -63.2198    3.6658 C.ar      1 UNL1        0.0000
      4 C         -33.0454  -63.3575    2.3006 C.ar      1 UNL1        0.0000
      5 C         -31.8395  -63.6098    1.6770 C.ar      1 UNL1        0.0000
      6 C         -30.7168  -63.7287    2.4598 C.ar      1 UNL1        0.0000
      7 C         -30.7960  -63.6005    3.8293 C.ar      1 UNL1        0.0000
      8 C         -32.0329  -63.3452    4.4234 C.ar      1 UNL1        0.0000
      9 C         -32.0726  -63.2166    5.8752 C.2       1 UNL1        0.0000
     10 O         -35.6349  -63.9594    2.8082 O.2       1 UNL1        0.0000
     11 O         -34.3541  -62.9699    4.3250 O.3       1 UNL1        0.0000
     12 O         -31.0136  -63.1054    6.5441 O.co2     1 UNL1       -0.5000
     13 O         -33.2706  -63.2140    6.5698 O.co2     1 UNL1       -0.5000
     14 H         -37.6699  -63.5313    4.2385 H         1 UNL1        0.0000
     15 H         -36.9480  -62.0825    4.8960 H         1 UNL1        0.0000
     16 H         -36.7088  -63.6172    5.6958 H         1 UNL1        0.0000
     17 H         -33.8894  -63.2672    1.7140 H         1 UNL1        0.0000
     18 H         -31.7832  -63.7054    0.6504 H         1 UNL1        0.0000
     19 H         -29.8035  -63.9169    2.0175 H         1 UNL1        0.0000
     20 H         -29.9480  -63.6910    4.4110 H         1 UNL1        0.0000
@<TRIPOS>BOND
     1    1    2 1
     2    1   14 1
     3    1   15 1
     4    1   16 1
     5    2   10 2
     6    2   11 1
     7    3    4 ar
     8    3    8 ar
     9    3   11 1
    10    4    5 ar
    11    4   17 1
    12    5    6 ar
    13    5   18 1
    14    6    7 ar
    15    6   19 1
    16    7    8 ar
    17    7   20 1
    18    8    9 1
    19    9   12 ar
    20    9   13 ar
@<TRIPOS>SUBSTRUCTURE
1 UNL1 1
@<TRIPOS>COMMENT
aspirin
PLANTSproteinTorsions
102
1 40.8743
42 218.9970
151 23.1896
173 110.6313
432 51.1070
491 171.0788
531 62.3486
563 154.2491
572 252.5163
629 37.3919
730 123.7016
826 93.8831
895 118.9139
921 74.1250
954 358.4780
1044 357.9845
1258 69.3512
1480 104.6052
1534 194.8221
1612 63.0996
1654 300.9081
1680 0.8774
1704 1.0623
1767 141.9870
1795 191.2969
1847 62.2871
1879 253.4475
1921 110.6546
1944 293.4038
1966 75.1056
1975 236.2896
2067 246.4046
2118 119.5628
2167 174.6092
2220 6.7544
2243 220.8188
2272 64.9011
2294 53.0601
2609 256.1511
2728 173.2159
2931 256.2365
3031 83.5644
3044 357.9476
3058 243.5818
3085 89.5969
3166 254.6234
3188 204.6152
3496 257.9496
3614 36.1629
3656 35.5976
3697 269.7617
3722 96.8528
3847 225.1401
3888 109.0692
4051 305.3322
4174 227.5626
4734 200.7580
4804 66.7193
4952 80.9136
5093 182.0840
5103 202.3986
5144 27.6852
5332 280.5828
5363 121.7766
5457 269.6359
5683 102.9836
5900 126.9902
6049 44.6196
6089 193.0679
6125 58.9553
6181 155.0531
6190 80.1046
6214 250.0446
6331 269.0468
6344 140.3120
6432 239.4743
7006 126.5928
7253 63.6692
7344 239.7457
7385 94.8616
7394 245.2164
7408 54.3918
7540 290.3306
7948 164.7224
8021 170.3395
8226 240.5274
8265 317.0474
8391 189.6461
8443 246.5440
8487 59.4927
8515 95.4973
8527 201.5035
8693 75.5440
8705 268.6080
8731 93.5859
8771 299.3918
8793 45.3904
8887 40.2119
8910 178.5163
8921 284.4516
8973 272.3759
8998 217.9702
PLANTSmolcadARTstart hb
PLANTSmolcadARTstart HB
LINES
-35.6349 -63.9594 2.80816 -36.6521 -64.5971 1.67557 0 255 0 5
-31.0136 -63.1054 6.54413 -30.4 -61.31 6.488 0 255 0 5
PLANTSmolcadARTstart HBCH
LINES
PLANTSmolcadARTstart HB-CHO
LINES
PLANTSmolcadARTend
PLANTSmolcadARTstart HB_WATER
LINES
PLANTSmolcadARTend

PLANTSmolcadARTend

