@<TRIPOS>MOLECULE
aspirin_entry_00001_conf_07
20 20 1
SMALL
NO_CHARGES


@<TRIPOS>ATOM
      1 C         -33.0617  -63.4815    6.6768 C.3       1 UNL1        0.0000
      2 C         -33.6745  -62.9141    5.4490 C.2       1 UNL1        0.0000
      3 C         -31.5919  -62.7296    4.1957 C.ar      1 UNL1        0.0000
      4 C         -30.6555  -62.4970    5.1805 C.ar      1 UNL1        0.0000
      5 C         -29.2965  -62.6511    4.9906 C.ar      1 UNL1        0.0000
      6 C         -28.8564  -63.0585    3.7545 C.ar      1 UNL1        0.0000
      7 C         -29.7494  -63.3044    2.7345 C.ar      1 UNL1        0.0000
      8 C         -31.1158  -63.1379    2.9649 C.ar      1 UNL1        0.0000
      9 C         -32.0265  -63.4086    1.8590 C.2       1 UNL1        0.0000
     10 O         -34.9189  -62.6908    5.3479 O.2       1 UNL1        0.0000
     11 O         -32.9457  -62.5900    4.3396 O.3       1 UNL1        0.0000
     12 O         -31.6209  -63.9702    0.8095 O.co2     1 UNL1       -0.5000
     13 O         -33.3648  -63.0580    1.9200 O.co2     1 UNL1       -0.5000
     14 H         -33.8236  -63.6529    7.4083 H         1 UNL1        0.0000
     15 H         -32.3417  -62.7930    7.0666 H         1 UNL1        0.0000
     16 H         -32.5792  -64.4062    6.4395 H         1 UNL1        0.0000
     17 H         -30.9876  -62.1919    6.1085 H         1 UNL1        0.0000
     18 H         -28.6295  -62.4662    5.7568 H         1 UNL1        0.0000
     19 H         -27.8454  -63.1813    3.5874 H         1 UNL1        0.0000
     20 H         -29.4113  -63.6104    1.8084 H         1 UNL1        0.0000
@<TRIPOS>BOND
     1    1    2 1
     2    1   14 1
     3    1   15 1
     4    1   16 1
     5    2   10 2
     6    2   11 1
     7    3    4 ar
     8    3    8 ar
     9    3   11 1
    10    4    5 ar
    11    4   17 1
    12    5    6 ar
    13    5   18 1
    14    6    7 ar
    15    6   19 1
    16    7    8 ar
    17    7   20 1
    18    8    9 1
    19    9   12 ar
    20    9   13 ar
@<TRIPOS>SUBSTRUCTURE
1 UNL1 1
@<TRIPOS>COMMENT
aspirin
PLANTSproteinTorsions
102
1 221.9071
42 8.3273
151 26.2400
173 350.2970
432 70.3607
491 191.3653
531 262.7884
563 257.0604
572 246.0250
629 285.3324
730 262.0705
826 186.4908
895 253.2465
921 77.7943
954 30.1307
1044 292.8039
1258 301.0859
1480 91.3482
1534 156.6515
1612 184.3967
1654 263.1752
1680 60.9520
1704 84.7822
1767 264.6804
1795 117.8167
1847 230.4048
1879 139.6632
1921 124.2077
1944 189.6613
1966 77.4941
1975 152.1166
2067 261.7753
2118 76.7532
2167 103.8101
2220 8.1068
2243 217.6183
2272 254.5846
2294 256.2160
2609 62.2246
2728 119.6386
2931 178.2603
3031 269.1303
3044 113.4662
3058 123.6418
3085 135.4221
3166 50.0796
3188 212.2050
3496 318.7248
3614 18.4193
3656 28.8588
3697 59.3002
3722 41.7166
3847 243.3030
3888 88.8122
4051 192.8196
4174 211.9131
4734 353.6606
4804 117.9693
4952 72.2972
5093 207.0443
5103 70.6051
5144 330.6270
5332 42.8552
5363 110.1048
5457 177.9044
5683 252.9566
5900 162.2833
6049 170.8868
6089 177.0323
6125 28.4151
6181 183.8827
6190 11.1965
6214 145.2977
6331 108.2944
6344 147.2458
6432 230.6761
7006 265.7163
7253 64.3175
7344 91.5921
7385 136.6892
7394 227.7048
7408 51.2252
7540 222.5371
7948 184.5334
8021 147.9724
8226 109.4520
8265 151.7033
8391 187.7803
8443 258.9320
8487 264.5876
8515 99.5729
8527 141.5878
8693 266.3008
8705 77.1139
8731 244.6380
8771 243.9811
8793 58.3303
8887 31.1800
8910 150.4635
8921 331.7593
8973 80.6906
8998 203.4832
PLANTSmolcadARTstart hb
PLANTSmolcadARTstart HB
LINES
-34.9189 -62.6908 5.34793 -35.0814 -60.8897 6.2076 0 255 0 5
PLANTSmolcadARTstart HBCH
LINES
PLANTSmolcadARTstart HB-CHO
LINES
PLANTSmolcadARTend
PLANTSmolcadARTstart HB_WATER
LINES
PLANTSmolcadARTend

PLANTSmolcadARTend

