@<TRIPOS>MOLECULE
aspirin_entry_00001_conf_38
20 20 1
SMALL
NO_CHARGES


@<TRIPOS>ATOM
      1 C         -11.8766  -59.9360    0.8498 C.3       1 UNL1        0.0000
      2 C         -12.2120  -58.5349    1.2094 C.2       1 UNL1        0.0000
      3 C         -13.8102  -56.6946    1.2461 C.ar      1 UNL1        0.0000
      4 C         -13.5468  -56.0616    2.4423 C.ar      1 UNL1        0.0000
      5 C         -13.9620  -54.7768    2.7314 C.ar      1 UNL1        0.0000
      6 C         -14.6745  -54.0948    1.7750 C.ar      1 UNL1        0.0000
      7 C         -14.9658  -54.6804    0.5623 C.ar      1 UNL1        0.0000
      8 C         -14.5286  -55.9809    0.3066 C.ar      1 UNL1        0.0000
      9 C         -14.8581  -56.5633   -0.9888 C.2       1 UNL1        0.0000
     10 O         -11.3982  -57.7716    1.8125 O.2       1 UNL1        0.0000
     11 O         -13.4187  -57.9642    0.9176 O.3       1 UNL1        0.0000
     12 O         -15.4395  -55.8852   -1.8740 O.co2     1 UNL1       -0.5000
     13 O         -14.5474  -57.8782   -1.2922 O.co2     1 UNL1       -0.5000
     14 H         -10.8825  -60.1592    1.1768 H         1 UNL1        0.0000
     15 H         -11.9381  -60.0560   -0.2115 H         1 UNL1        0.0000
     16 H         -12.5671  -60.6009    1.3246 H         1 UNL1        0.0000
     17 H         -13.0109  -56.5749    3.1592 H         1 UNL1        0.0000
     18 H         -13.7423  -54.3405    3.6409 H         1 UNL1        0.0000
     19 H         -14.9959  -53.1330    1.9667 H         1 UNL1        0.0000
     20 H         -15.5015  -54.1617   -0.1516 H         1 UNL1        0.0000
@<TRIPOS>BOND
     1    1    2 1
     2    1   14 1
     3    1   15 1
     4    1   16 1
     5    2   10 2
     6    2   11 1
     7    3    4 ar
     8    3    8 ar
     9    3   11 1
    10    4    5 ar
    11    4   17 1
    12    5    6 ar
    13    5   18 1
    14    6    7 ar
    15    6   19 1
    16    7    8 ar
    17    7   20 1
    18    8    9 1
    19    9   12 ar
    20    9   13 ar
@<TRIPOS>SUBSTRUCTURE
1 UNL1 1
@<TRIPOS>COMMENT
aspirin
PLANTSproteinTorsions
102
1 134.5585
42 72.0828
151 351.9861
173 158.6730
432 44.2580
491 50.8600
531 111.0967
563 97.3051
572 46.0376
629 196.9937
730 242.2797
826 132.9495
895 69.6493
921 238.6460
954 122.2203
1044 103.9352
1258 77.1992
1480 25.4353
1534 344.2490
1612 319.1239
1654 129.9876
1680 335.7533
1704 72.7559
1767 218.4065
1795 141.0827
1847 257.2717
1879 278.0526
1921 14.0944
1944 7.3053
1966 13.7460
1975 64.5614
2067 118.9834
2118 85.7968
2167 178.7553
2220 33.9690
2243 21.7346
2272 68.6549
2294 2.2692
2609 135.5272
2728 86.0110
2931 321.9568
3031 190.5468
3044 236.0136
3058 180.1358
3085 311.8597
3166 237.5609
3188 235.1017
3496 0.1516
3614 50.5857
3656 256.6704
3697 162.9251
3722 255.3922
3847 42.6386
3888 134.5729
4051 272.9970
4174 58.4573
4734 227.2435
4804 35.9014
4952 20.1722
5093 50.8104
5103 130.5034
5144 237.1887
5332 219.0455
5363 89.7980
5457 184.8825
5683 230.6996
5900 180.6291
6049 183.4192
6089 111.3253
6125 97.5283
6181 45.3307
6190 108.8418
6214 215.3501
6331 222.8309
6344 30.9217
6432 256.4669
7006 37.4793
7253 222.9533
7344 131.3801
7385 197.4670
7394 234.8363
7408 115.3664
7540 222.9532
7948 295.8977
8021 128.9396
8226 80.5745
8265 93.1597
8391 85.1478
8443 83.0156
8487 224.2711
8515 246.9757
8527 163.2942
8693 277.3791
8705 239.7686
8731 197.5860
8771 251.7683
8793 184.2449
8887 212.0251
8910 115.7278
8921 17.0290
8973 183.8294
8998 251.4310
PLANTSmolcadARTstart hb
PLANTSmolcadARTstart HB
LINES
PLANTSmolcadARTstart HBCH
LINES
PLANTSmolcadARTstart HB-CHO
LINES
PLANTSmolcadARTend
PLANTSmolcadARTstart HB_WATER
LINES
PLANTSmolcadARTend

PLANTSmolcadARTend

