@<TRIPOS>MOLECULE
aspirin_entry_00001_conf_35
20 20 1
SMALL
NO_CHARGES


@<TRIPOS>ATOM
      1 C         -34.3993  -47.5473    4.6299 C.3       1 UNL1        0.0000
      2 C         -34.2649  -46.0811    4.4382 C.2       1 UNL1        0.0000
      3 C         -32.8791  -44.0756    4.4474 C.ar      1 UNL1        0.0000
      4 C         -32.7248  -43.3663    3.2752 C.ar      1 UNL1        0.0000
      5 C         -32.5355  -41.9992    3.2319 C.ar      1 UNL1        0.0000
      6 C         -32.5003  -41.3113    4.4205 C.ar      1 UNL1        0.0000
      7 C         -32.6488  -41.9710    5.6210 C.ar      1 UNL1        0.0000
      8 C         -32.8386  -43.3537    5.6243 C.ar      1 UNL1        0.0000
      9 C         -32.9914  -44.0127    6.9159 C.2       1 UNL1        0.0000
     10 O         -35.2544  -45.3342    4.1701 O.2       1 UNL1        0.0000
     11 O         -33.0687  -45.4281    4.5369 O.3       1 UNL1        0.0000
     12 O         -33.1719  -43.3445    7.9658 O.co2     1 UNL1       -0.5000
     13 O         -32.9419  -45.3913    7.0362 O.co2     1 UNL1       -0.5000
     14 H         -35.4239  -47.8300    4.5060 H         1 UNL1        0.0000
     15 H         -34.0738  -47.8093    5.6148 H         1 UNL1        0.0000
     16 H         -33.7976  -48.0578    3.9077 H         1 UNL1        0.0000
     17 H         -32.7523  -43.8843    2.3833 H         1 UNL1        0.0000
     18 H         -32.4246  -41.5075    2.3308 H         1 UNL1        0.0000
     19 H         -32.3604  -40.2888    4.4148 H         1 UNL1        0.0000
     20 H         -32.6213  -41.4473    6.5102 H         1 UNL1        0.0000
@<TRIPOS>BOND
     1    1    2 1
     2    1   14 1
     3    1   15 1
     4    1   16 1
     5    2   10 2
     6    2   11 1
     7    3    4 ar
     8    3    8 ar
     9    3   11 1
    10    4    5 ar
    11    4   17 1
    12    5    6 ar
    13    5   18 1
    14    6    7 ar
    15    6   19 1
    16    7    8 ar
    17    7   20 1
    18    8    9 1
    19    9   12 ar
    20    9   13 ar
@<TRIPOS>SUBSTRUCTURE
1 UNL1 1
@<TRIPOS>COMMENT
aspirin
PLANTSproteinTorsions
102
1 201.5941
42 75.1867
151 87.1181
173 22.5911
432 101.2909
491 61.8505
531 224.5419
563 0.1253
572 70.0967
629 28.1732
730 340.3282
826 29.2932
895 81.4575
921 59.3341
954 63.7401
1044 120.9552
1258 35.7721
1480 300.6422
1534 136.4638
1612 10.7603
1654 32.4942
1680 171.9632
1704 265.7679
1767 88.4998
1795 129.9288
1847 132.7798
1879 150.5530
1921 157.3714
1944 37.6728
1966 143.4679
1975 304.6135
2067 97.0545
2118 210.8350
2167 108.7735
2220 227.4934
2243 264.1408
2272 358.5245
2294 21.5571
2609 101.8486
2728 179.0738
2931 135.6809
3031 206.0783
3044 71.6310
3058 306.3376
3085 50.6237
3166 185.9268
3188 48.9788
3496 117.7859
3614 86.3779
3656 278.1349
3697 255.3376
3722 135.4167
3847 102.7254
3888 236.6224
4051 116.5170
4174 99.6443
4734 273.0601
4804 123.2157
4952 91.5669
5093 239.6505
5103 236.7457
5144 351.4162
5332 115.6881
5363 14.3572
5457 149.2216
5683 242.7515
5900 266.5430
6049 66.1324
6089 308.3793
6125 46.8182
6181 198.0583
6190 268.2406
6214 123.1734
6331 131.0245
6344 228.0363
6432 175.4001
7006 263.6039
7253 241.7857
7344 114.5040
7385 76.2721
7394 240.1837
7408 334.2147
7540 260.9696
7948 59.3374
8021 156.4543
8226 257.6819
8265 208.1541
8391 222.4265
8443 109.8604
8487 348.4195
8515 222.0144
8527 131.6974
8693 241.6065
8705 253.8822
8731 214.1305
8771 269.2458
8793 269.4429
8887 149.4008
8910 216.6289
8921 274.6514
8973 166.5056
8998 191.1078
PLANTSmolcadARTstart hb
PLANTSmolcadARTstart HB
LINES
PLANTSmolcadARTstart HBCH
LINES
PLANTSmolcadARTstart HB-CHO
LINES
PLANTSmolcadARTend
PLANTSmolcadARTstart HB_WATER
LINES
PLANTSmolcadARTend

PLANTSmolcadARTend

