@<TRIPOS>MOLECULE
aspirin_entry_00001_conf_30
20 20 1
SMALL
NO_CHARGES


@<TRIPOS>ATOM
      1 C         -16.0534  -55.9835   -3.6638 C.3       1 UNL1        0.0000
      2 C         -15.3809  -56.7759   -2.6033 C.2       1 UNL1        0.0000
      3 C         -14.7556  -57.0635   -0.2648 C.ar      1 UNL1        0.0000
      4 C         -14.6528  -58.4342   -0.1573 C.ar      1 UNL1        0.0000
      5 C         -14.0319  -59.0705    0.8993 C.ar      1 UNL1        0.0000
      6 C         -13.4880  -58.2950    1.8944 C.ar      1 UNL1        0.0000
      7 C         -13.5631  -56.9204    1.8369 C.ar      1 UNL1        0.0000
      8 C         -14.1984  -56.3135    0.7525 C.ar      1 UNL1        0.0000
      9 C         -14.2558  -54.8568    0.7305 C.2       1 UNL1        0.0000
     10 O         -14.7774  -57.8652   -2.8444 O.2       1 UNL1        0.0000
     11 O         -15.3609  -56.3917   -1.2922 O.3       1 UNL1        0.0000
     12 O         -13.5384  -54.1693    1.5012 O.co2     1 UNL1       -0.5000
     13 O         -15.0988  -54.1779   -0.1332 O.co2     1 UNL1       -0.5000
     14 H         -15.9368  -56.4779   -4.6056 H         1 UNL1        0.0000
     15 H         -15.6124  -55.0101   -3.7151 H         1 UNL1        0.0000
     16 H         -17.0942  -55.8920   -3.4343 H         1 UNL1        0.0000
     17 H         -15.0610  -59.0152   -0.9058 H         1 UNL1        0.0000
     18 H         -13.9771  -60.1007    0.9397 H         1 UNL1        0.0000
     19 H         -13.0183  -58.7467    2.6947 H         1 UNL1        0.0000
     20 H         -13.1519  -56.3442    2.5883 H         1 UNL1        0.0000
@<TRIPOS>BOND
     1    1    2 1
     2    1   14 1
     3    1   15 1
     4    1   16 1
     5    2   10 2
     6    2   11 1
     7    3    4 ar
     8    3    8 ar
     9    3   11 1
    10    4    5 ar
    11    4   17 1
    12    5    6 ar
    13    5   18 1
    14    6    7 ar
    15    6   19 1
    16    7    8 ar
    17    7   20 1
    18    8    9 1
    19    9   12 ar
    20    9   13 ar
@<TRIPOS>SUBSTRUCTURE
1 UNL1 1
@<TRIPOS>COMMENT
aspirin
PLANTSproteinTorsions
102
1 54.3103
42 166.6809
151 292.6815
173 166.7259
432 89.6643
491 147.1466
531 16.9900
563 110.6585
572 203.0603
629 90.5437
730 88.7911
826 345.0971
895 112.7304
921 47.8591
954 195.4641
1044 28.2259
1258 70.2364
1480 5.5438
1534 228.9639
1612 318.6824
1654 125.2950
1680 254.0112
1704 8.9809
1767 97.8154
1795 168.6770
1847 159.5674
1879 259.0321
1921 29.3620
1944 323.4379
1966 183.9042
1975 63.7850
2067 252.1273
2118 8.3822
2167 0.9005
2220 223.7312
2243 262.1764
2272 198.4833
2294 184.8426
2609 328.0681
2728 111.4372
2931 81.9549
3031 32.2313
3044 146.6161
3058 147.4919
3085 306.4333
3166 154.3383
3188 146.7102
3496 279.3317
3614 138.0640
3656 168.1716
3697 164.8431
3722 244.3523
3847 80.3407
3888 196.6355
4051 236.3306
4174 231.9935
4734 64.3956
4804 221.4895
4952 18.6831
5093 284.4887
5103 336.1620
5144 316.3303
5332 218.6940
5363 243.8980
5457 177.4668
5683 228.2908
5900 316.6843
6049 225.1845
6089 106.3709
6125 95.8165
6181 65.9861
6190 100.3945
6214 217.8010
6331 186.4999
6344 298.0293
6432 270.9052
7006 200.8944
7253 249.6552
7344 327.5536
7385 266.0156
7394 285.9838
7408 11.0897
7540 190.3038
7948 263.1512
8021 217.6688
8226 108.8837
8265 55.3867
8391 302.8566
8443 3.0159
8487 71.6690
8515 252.9180
8527 103.9535
8693 264.5484
8705 216.4260
8731 113.3121
8771 134.8875
8793 170.2844
8887 317.8957
8910 104.5754
8921 10.0018
8973 145.3919
8998 286.2326
PLANTSmolcadARTstart hb
PLANTSmolcadARTstart HB
LINES
PLANTSmolcadARTstart HBCH
LINES
PLANTSmolcadARTstart HB-CHO
LINES
PLANTSmolcadARTend
PLANTSmolcadARTstart HB_WATER
LINES
PLANTSmolcadARTend

PLANTSmolcadARTend

