@<TRIPOS>MOLECULE
aspirin_entry_00001_conf_09
20 20 1
SMALL
NO_CHARGES


@<TRIPOS>ATOM
      1 C         -13.6500  -57.3763    2.1123 C.3       1 UNL1        0.0000
      2 C         -13.4246  -58.2583    0.9392 C.2       1 UNL1        0.0000
      3 C         -14.1930  -59.1513   -1.1949 C.ar      1 UNL1        0.0000
      4 C         -13.7109  -60.4415   -1.1322 C.ar      1 UNL1        0.0000
      5 C         -13.6651  -61.2908   -2.2200 C.ar      1 UNL1        0.0000
      6 C         -14.1254  -60.8239   -3.4273 C.ar      1 UNL1        0.0000
      7 C         -14.6173  -59.5423   -3.5459 C.ar      1 UNL1        0.0000
      8 C         -14.6478  -58.7134   -2.4235 C.ar      1 UNL1        0.0000
      9 C         -15.1760  -57.3649   -2.5922 C.2       1 UNL1        0.0000
     10 O         -12.4419  -59.0568    0.8645 O.2       1 UNL1        0.0000
     11 O         -14.2570  -58.2767   -0.1442 O.3       1 UNL1        0.0000
     12 O         -15.5735  -56.9615   -3.7150 O.co2     1 UNL1       -0.5000
     13 O         -15.2581  -56.4807   -1.5297 O.co2     1 UNL1       -0.5000
     14 H         -12.8743  -57.5359    2.8319 H         1 UNL1        0.0000
     15 H         -14.5976  -57.6048    2.5530 H         1 UNL1        0.0000
     16 H         -13.6404  -56.3543    1.7967 H         1 UNL1        0.0000
     17 H         -13.3663  -60.7910   -0.2247 H         1 UNL1        0.0000
     18 H         -13.2960  -62.2507   -2.1283 H         1 UNL1        0.0000
     19 H         -14.1021  -61.4394   -4.2554 H         1 UNL1        0.0000
     20 H         -14.9616  -59.1985   -4.4563 H         1 UNL1        0.0000
@<TRIPOS>BOND
     1    1    2 1
     2    1   14 1
     3    1   15 1
     4    1   16 1
     5    2   10 2
     6    2   11 1
     7    3    4 ar
     8    3    8 ar
     9    3   11 1
    10    4    5 ar
    11    4   17 1
    12    5    6 ar
    13    5   18 1
    14    6    7 ar
    15    6   19 1
    16    7    8 ar
    17    7   20 1
    18    8    9 1
    19    9   12 ar
    20    9   13 ar
@<TRIPOS>SUBSTRUCTURE
1 UNL1 1
@<TRIPOS>COMMENT
aspirin
PLANTSproteinTorsions
102
1 195.9921
42 91.2286
151 16.0581
173 159.1282
432 65.1264
491 355.4844
531 355.9189
563 112.0129
572 42.1636
629 221.5031
730 248.4007
826 121.6629
895 42.3454
921 243.2475
954 198.6062
1044 125.6992
1258 62.0136
1480 27.6310
1534 211.9301
1612 64.2288
1654 138.7697
1680 271.6136
1704 12.0094
1767 90.0546
1795 60.9301
1847 298.6084
1879 289.1978
1921 26.3287
1944 50.4000
1966 215.0998
1975 82.7113
2067 79.7132
2118 64.2829
2167 72.0147
2220 40.1997
2243 296.7398
2272 95.1630
2294 13.7465
2609 120.6677
2728 100.3935
2931 80.4080
3031 281.8121
3044 169.0223
3058 192.0734
3085 243.0392
3166 243.5549
3188 31.2778
3496 9.8202
3614 75.5187
3656 44.9745
3697 178.1635
3722 258.3215
3847 43.0545
3888 330.6515
4051 240.8622
4174 182.0100
4734 170.6553
4804 106.4168
4952 335.6356
5093 204.8399
5103 34.1021
5144 256.6028
5332 247.6042
5363 172.3987
5457 192.5005
5683 65.4219
5900 70.3681
6049 230.7854
6089 44.6333
6125 93.8587
6181 75.4512
6190 238.6794
6214 17.9942
6331 230.8851
6344 282.3438
6432 155.7144
7006 303.0045
7253 200.3003
7344 147.0210
7385 41.3252
7394 236.3609
7408 59.2105
7540 259.5850
7948 270.3047
8021 183.8520
8226 136.9490
8265 136.3059
8391 278.3254
8443 84.9978
8487 138.8248
8515 273.2245
8527 156.8606
8693 259.2956
8705 271.9940
8731 113.4426
8771 39.5052
8793 32.4836
8887 156.7372
8910 230.9447
8921 106.6846
8973 158.6657
8998 62.1879
PLANTSmolcadARTstart hb
PLANTSmolcadARTstart HB
LINES
-15.5735 -56.9615 -3.71502 -16.568 -58.3304 -5.09174 0 255 0 5
PLANTSmolcadARTstart HBCH
LINES
PLANTSmolcadARTstart HB-CHO
LINES
PLANTSmolcadARTend
PLANTSmolcadARTstart HB_WATER
LINES
PLANTSmolcadARTend

PLANTSmolcadARTend

