@<TRIPOS>MOLECULE
aspirin_entry_00001_conf_11
20 20 1
SMALL
NO_CHARGES


@<TRIPOS>ATOM
      1 C         -16.0087  -57.1375   -1.5475 C.3       1 UNL1        0.0000
      2 C         -15.4029  -57.6558   -2.8001 C.2       1 UNL1        0.0000
      3 C         -13.9253  -59.2623   -1.7146 C.ar      1 UNL1        0.0000
      4 C         -13.6546  -58.6719   -0.4984 C.ar      1 UNL1        0.0000
      5 C         -13.1379  -59.3582    0.5827 C.ar      1 UNL1        0.0000
      6 C         -12.8815  -60.7000    0.4369 C.ar      1 UNL1        0.0000
      7 C         -13.1330  -61.3397   -0.7572 C.ar      1 UNL1        0.0000
      8 C         -13.6559  -60.6124   -1.8275 C.ar      1 UNL1        0.0000
      9 C         -13.9074  -61.3274   -3.0730 C.2       1 UNL1        0.0000
     10 O         -15.7422  -57.2348   -3.9474 O.2       1 UNL1        0.0000
     11 O         -14.4366  -58.6219   -2.8107 O.3       1 UNL1        0.0000
     12 O         -13.8562  -62.5830   -3.1199 O.co2     1 UNL1       -0.5000
     13 O         -14.2085  -60.6557   -4.2459 O.co2     1 UNL1       -0.5000
     14 H         -16.7369  -56.3908   -1.7866 H         1 UNL1        0.0000
     15 H         -15.2451  -56.7071   -0.9340 H         1 UNL1        0.0000
     16 H         -16.4795  -57.9404   -1.0204 H         1 UNL1        0.0000
     17 H         -13.8484  -57.6643   -0.3903 H         1 UNL1        0.0000
     18 H         -12.9504  -58.8762    1.4764 H         1 UNL1        0.0000
     19 H         -12.4954  -61.2353    1.2304 H         1 UNL1        0.0000
     20 H         -12.9379  -62.3483   -0.8592 H         1 UNL1        0.0000
@<TRIPOS>BOND
     1    1    2 1
     2    1   14 1
     3    1   15 1
     4    1   16 1
     5    2   10 2
     6    2   11 1
     7    3    4 ar
     8    3    8 ar
     9    3   11 1
    10    4    5 ar
    11    4   17 1
    12    5    6 ar
    13    5   18 1
    14    6    7 ar
    15    6   19 1
    16    7    8 ar
    17    7   20 1
    18    8    9 1
    19    9   12 ar
    20    9   13 ar
@<TRIPOS>SUBSTRUCTURE
1 UNL1 1
@<TRIPOS>COMMENT
aspirin
PLANTSproteinTorsions
102
1 179.0798
42 110.1154
151 355.5858
173 146.5980
432 112.9880
491 356.9503
531 21.2979
563 11.4026
572 211.7537
629 141.6480
730 233.1097
826 147.7874
895 61.2553
921 6.1722
954 86.5567
1044 62.3045
1258 294.7793
1480 8.5331
1534 138.7211
1612 15.7262
1654 173.2646
1680 258.0117
1704 60.3973
1767 224.6297
1795 152.6235
1847 19.1201
1879 263.3480
1921 105.4799
1944 169.6227
1966 225.5076
1975 356.0464
2067 144.6322
2118 81.3003
2167 156.6156
2220 63.4024
2243 181.2111
2272 196.4705
2294 20.9165
2609 114.5861
2728 104.5023
2931 238.1234
3031 238.8074
3044 168.3369
3058 239.5986
3085 22.0516
3166 263.8924
3188 241.7231
3496 8.1147
3614 225.7015
3656 202.7171
3697 142.1889
3722 56.2001
3847 82.2952
3888 297.1310
4051 197.3629
4174 93.8113
4734 71.0687
4804 172.2054
4952 16.9429
5093 322.0099
5103 114.8949
5144 249.2503
5332 296.0076
5363 293.0921
5457 326.8184
5683 83.1284
5900 161.8019
6049 282.2632
6089 71.8284
6125 254.3133
6181 87.1996
6190 247.0471
6214 120.0239
6331 339.8160
6344 215.8715
6432 74.8578
7006 195.5884
7253 187.0337
7344 171.9298
7385 213.3851
7394 268.6543
7408 101.5004
7540 245.7665
7948 265.7563
8021 216.6643
8226 132.3872
8265 211.9580
8391 300.5549
8443 243.4378
8487 161.5142
8515 255.4433
8527 251.7796
8693 274.0414
8705 253.6643
8731 226.9729
8771 120.0148
8793 272.4633
8887 192.9111
8910 252.9378
8921 75.7528
8973 280.9418
8998 171.3146
PLANTSmolcadARTstart hb
PLANTSmolcadARTstart HB
LINES
-15.7422 -57.2348 -3.94742 -16.6848 -58.1513 -5.15595 0 255 0 5
PLANTSmolcadARTstart HBCH
LINES
PLANTSmolcadARTstart HB-CHO
LINES
PLANTSmolcadARTend
PLANTSmolcadARTstart HB_WATER
LINES
PLANTSmolcadARTend

PLANTSmolcadARTend

