@<TRIPOS>MOLECULE
aspirin_entry_00001_conf_70
20 20 1
SMALL
NO_CHARGES


@<TRIPOS>ATOM
      1 C          -4.4975  -59.6846    5.6515 C.3       1 UNL1        0.0000
      2 C          -4.2860  -61.0277    5.0548 C.2       1 UNL1        0.0000
      3 C          -2.9437  -63.0519    4.8465 C.ar      1 UNL1        0.0000
      4 C          -3.1073  -63.3969    3.5217 C.ar      1 UNL1        0.0000
      5 C          -2.8044  -64.6462    3.0174 C.ar      1 UNL1        0.0000
      6 C          -2.3137  -65.5936    3.8828 C.ar      1 UNL1        0.0000
      7 C          -2.1313  -65.3019    5.2170 C.ar      1 UNL1        0.0000
      8 C          -2.4485  -64.0276    5.6897 C.ar      1 UNL1        0.0000
      9 C          -2.2406  -63.7606    7.1078 C.2       1 UNL1        0.0000
     10 O          -5.0729  -61.5229    4.1921 O.2       1 UNL1        0.0000
     11 O          -3.2302  -61.8284    5.3887 O.3       1 UNL1        0.0000
     12 O          -1.9330  -64.6858    7.9021 O.co2     1 UNL1       -0.5000
     13 O          -2.3749  -62.4862    7.6325 O.co2     1 UNL1       -0.5000
     14 H          -5.3827  -59.2473    5.2391 H         1 UNL1        0.0000
     15 H          -3.6563  -59.0609    5.4324 H         1 UNL1        0.0000
     16 H          -4.6054  -59.7786    6.7116 H         1 UNL1        0.0000
     17 H          -3.4752  -62.6841    2.8728 H         1 UNL1        0.0000
     18 H          -2.9421  -64.8619    2.0171 H         1 UNL1        0.0000
     19 H          -2.0794  -66.5348    3.5303 H         1 UNL1        0.0000
     20 H          -1.7619  -66.0190    5.8614 H         1 UNL1        0.0000
@<TRIPOS>BOND
     1    1    2 1
     2    1   14 1
     3    1   15 1
     4    1   16 1
     5    2   10 2
     6    2   11 1
     7    3    4 ar
     8    3    8 ar
     9    3   11 1
    10    4    5 ar
    11    4   17 1
    12    5    6 ar
    13    5   18 1
    14    6    7 ar
    15    6   19 1
    16    7    8 ar
    17    7   20 1
    18    8    9 1
    19    9   12 ar
    20    9   13 ar
@<TRIPOS>SUBSTRUCTURE
1 UNL1 1
@<TRIPOS>COMMENT
aspirin
PLANTSproteinTorsions
102
1 10.6615
42 135.6231
151 75.9829
173 89.4860
432 98.3037
491 355.2573
531 17.1080
563 77.2684
572 168.1187
629 76.5286
730 337.7822
826 87.6986
895 89.1727
921 44.2281
954 87.7315
1044 196.6241
1258 37.3581
1480 181.9632
1534 131.7294
1612 91.4584
1654 151.2876
1680 103.5883
1704 202.5396
1767 69.1512
1795 188.5832
1847 119.2847
1879 211.3386
1921 76.4111
1944 210.9860
1966 242.7967
1975 261.4427
2067 231.6457
2118 181.7042
2167 105.3365
2220 305.5727
2243 126.1832
2272 260.9938
2294 113.4995
2609 298.9566
2728 240.0358
2931 133.3704
3031 44.8697
3044 175.3570
3058 209.4797
3085 58.1181
3166 196.3819
3188 177.4045
3496 355.7751
3614 177.9730
3656 90.7653
3697 228.5064
3722 60.9188
3847 46.0632
3888 236.4078
4051 55.3599
4174 109.0735
4734 40.9234
4804 46.2575
4952 59.1704
5093 220.9479
5103 253.0800
5144 340.5208
5332 266.5930
5363 1.3557
5457 266.9876
5683 256.8171
5900 187.5957
6049 82.3918
6089 273.2814
6125 322.7845
6181 199.0392
6190 295.9640
6214 276.6288
6331 35.3288
6344 201.6854
6432 172.0508
7006 137.4430
7253 265.8901
7344 281.7253
7385 22.3229
7394 110.4229
7408 237.5254
7540 181.5595
7948 12.1122
8021 105.2842
8226 272.1965
8265 205.0389
8391 123.7442
8443 123.0480
8487 158.5033
8515 130.9874
8527 229.0003
8693 254.7768
8705 226.0021
8731 214.1933
8771 218.2498
8793 247.9791
8887 283.0444
8910 208.0865
8921 282.1732
8973 281.4839
8998 155.0684
PLANTSmolcadARTstart hb
PLANTSmolcadARTstart HB
LINES
PLANTSmolcadARTstart HBCH
LINES
PLANTSmolcadARTstart HB-CHO
LINES
PLANTSmolcadARTend
PLANTSmolcadARTstart HB_WATER
LINES
PLANTSmolcadARTend

PLANTSmolcadARTend

