@<TRIPOS>MOLECULE
aspirin_entry_00001_conf_77
20 20 1
SMALL
NO_CHARGES


@<TRIPOS>ATOM
      1 C         -12.7862  -64.4125   -2.0268 C.3       1 UNL1        0.0000
      2 C         -13.6370  -63.3479   -1.4372 C.2       1 UNL1        0.0000
      3 C         -14.3221  -62.3723   -3.5635 C.ar      1 UNL1        0.0000
      4 C         -14.3968  -63.4598   -4.4078 C.ar      1 UNL1        0.0000
      5 C         -14.4105  -63.3551   -5.7846 C.ar      1 UNL1        0.0000
      6 C         -14.3470  -62.1003   -6.3404 C.ar      1 UNL1        0.0000
      7 C         -14.2706  -60.9795   -5.5427 C.ar      1 UNL1        0.0000
      8 C         -14.2595  -61.1255   -4.1547 C.ar      1 UNL1        0.0000
      9 C         -14.1777  -59.9142   -3.3474 C.2       1 UNL1        0.0000
     10 O         -13.7995  -63.2189   -0.1860 O.2       1 UNL1        0.0000
     11 O         -14.3059  -62.4295   -2.1962 O.3       1 UNL1        0.0000
     12 O         -13.4771  -59.8783   -2.3037 O.co2     1 UNL1       -0.5000
     13 O         -14.8656  -58.7638   -3.6952 O.co2     1 UNL1       -0.5000
     14 H         -12.3665  -65.0078   -1.2428 H         1 UNL1        0.0000
     15 H         -11.9982  -63.9649   -2.5953 H         1 UNL1        0.0000
     16 H         -13.3807  -65.0307   -2.6661 H         1 UNL1        0.0000
     17 H         -14.4452  -64.4014   -3.9889 H         1 UNL1        0.0000
     18 H         -14.4679  -64.1967   -6.3799 H         1 UNL1        0.0000
     19 H         -14.3560  -61.9955   -7.3671 H         1 UNL1        0.0000
     20 H         -14.2233  -60.0398   -5.9675 H         1 UNL1        0.0000
@<TRIPOS>BOND
     1    1    2 1
     2    1   14 1
     3    1   15 1
     4    1   16 1
     5    2   10 2
     6    2   11 1
     7    3    4 ar
     8    3    8 ar
     9    3   11 1
    10    4    5 ar
    11    4   17 1
    12    5    6 ar
    13    5   18 1
    14    6    7 ar
    15    6   19 1
    16    7    8 ar
    17    7   20 1
    18    8    9 1
    19    9   12 ar
    20    9   13 ar
@<TRIPOS>SUBSTRUCTURE
1 UNL1 1
@<TRIPOS>COMMENT
aspirin
PLANTSproteinTorsions
102
1 38.6213
42 81.3289
151 80.6719
173 162.1740
432 157.7032
491 35.2843
531 4.7177
563 344.5426
572 307.3161
629 157.1777
730 267.3316
826 156.1828
895 60.9071
921 218.6039
954 99.1504
1044 57.4874
1258 88.3308
1480 121.7366
1534 223.4662
1612 27.1039
1654 139.0685
1680 294.6445
1704 10.7718
1767 98.6810
1795 40.2332
1847 313.9702
1879 269.0501
1921 67.6019
1944 24.8061
1966 289.7529
1975 63.6904
2067 171.3905
2118 64.8767
2167 151.6004
2220 186.0778
2243 197.7213
2272 201.9195
2294 67.0877
2609 55.7119
2728 82.6064
2931 45.7702
3031 134.9617
3044 85.8880
3058 242.4255
3085 146.8449
3166 143.7781
3188 95.3214
3496 92.0835
3614 71.3908
3656 288.8210
3697 161.0632
3722 230.8335
3847 335.8317
3888 59.7881
4051 221.4256
4174 340.2881
4734 15.2776
4804 148.7961
4952 156.4421
5093 33.7515
5103 309.1558
5144 221.1738
5332 58.3043
5363 28.1265
5457 176.1692
5683 223.5634
5900 92.7358
6049 215.2871
6089 51.0773
6125 200.0655
6181 271.4199
6190 168.0914
6214 253.2485
6331 162.7424
6344 201.5233
6432 170.1767
7006 178.5793
7253 218.7878
7344 181.5304
7385 241.6390
7394 216.4747
7408 64.7551
7540 288.5799
7948 100.6199
8021 238.1700
8226 73.6855
8265 309.0728
8391 298.5933
8443 178.6851
8487 189.0832
8515 88.9754
8527 144.6002
8693 346.3995
8705 250.5033
8731 47.5360
8771 311.4153
8793 248.2118
8887 42.2569
8910 286.6039
8921 105.4348
8973 224.6308
8998 110.4110
PLANTSmolcadARTstart hb
PLANTSmolcadARTstart HB
LINES
-13.4771 -59.8783 -2.30372 -11.654 -59.599 -3.055 0 255 0 5
-14.8656 -58.7638 -3.6952 -16.3636 -58.6463 -5.10228 0 255 0 5
PLANTSmolcadARTstart HBCH
LINES
PLANTSmolcadARTstart HB-CHO
LINES
PLANTSmolcadARTend
PLANTSmolcadARTstart HB_WATER
LINES
PLANTSmolcadARTend

PLANTSmolcadARTend

