@<TRIPOS>MOLECULE
aspirin_entry_00001_conf_60
20 20 1
SMALL
NO_CHARGES


@<TRIPOS>ATOM
      1 C          -5.4592  -44.8284    3.5858 C.3       1 UNL1        0.0000
      2 C          -5.8062  -43.3952    3.7601 C.2       1 UNL1        0.0000
      3 C          -5.7030  -41.3527    5.0866 C.ar      1 UNL1        0.0000
      4 C          -5.9460  -40.3695    4.1510 C.ar      1 UNL1        0.0000
      5 C          -6.3021  -39.0766    4.4802 C.ar      1 UNL1        0.0000
      6 C          -6.4207  -38.7553    5.8106 C.ar      1 UNL1        0.0000
      7 C          -6.1887  -39.6995    6.7869 C.ar      1 UNL1        0.0000
      8 C          -5.8310  -40.9963    6.4150 C.ar      1 UNL1        0.0000
      9 C          -5.5945  -41.9645    7.4791 C.2       1 UNL1        0.0000
     10 O          -6.5537  -42.7704    2.9480 O.2       1 UNL1        0.0000
     11 O          -5.3484  -42.6444    4.8059 O.3       1 UNL1        0.0000
     12 O          -4.9982  -43.0473    7.2478 O.co2     1 UNL1       -0.5000
     13 O          -6.0166  -41.7321    8.7773 O.co2     1 UNL1       -0.5000
     14 H          -5.9311  -45.2040    2.7020 H         1 UNL1        0.0000
     15 H          -5.7996  -45.3832    4.4349 H         1 UNL1        0.0000
     16 H          -4.3982  -44.9297    3.4955 H         1 UNL1        0.0000
     17 H          -5.8572  -40.6126    3.1523 H         1 UNL1        0.0000
     18 H          -6.4754  -38.3712    3.7465 H         1 UNL1        0.0000
     19 H          -6.6860  -37.7957    6.0825 H         1 UNL1        0.0000
     20 H          -6.2800  -39.4507    7.7847 H         1 UNL1        0.0000
@<TRIPOS>BOND
     1    1    2 1
     2    1   14 1
     3    1   15 1
     4    1   16 1
     5    2   10 2
     6    2   11 1
     7    3    4 ar
     8    3    8 ar
     9    3   11 1
    10    4    5 ar
    11    4   17 1
    12    5    6 ar
    13    5   18 1
    14    6    7 ar
    15    6   19 1
    16    7    8 ar
    17    7   20 1
    18    8    9 1
    19    9   12 ar
    20    9   13 ar
@<TRIPOS>SUBSTRUCTURE
1 UNL1 1
@<TRIPOS>COMMENT
aspirin
PLANTSproteinTorsions
102
1 245.5329
42 205.2967
151 207.7309
173 26.2248
432 187.2734
491 70.7874
531 73.8613
563 123.2638
572 210.9372
629 236.5833
730 18.5619
826 127.1970
895 277.5428
921 53.1689
954 267.4634
1044 99.8982
1258 83.0385
1480 102.0656
1534 249.6783
1612 208.1573
1654 190.4186
1680 355.3965
1704 305.2770
1767 314.0207
1795 192.9537
1847 104.4237
1879 157.5801
1921 182.3902
1944 99.2225
1966 130.5059
1975 233.7824
2067 104.2871
2118 2.2600
2167 156.3115
2220 309.3373
2243 43.1889
2272 54.8186
2294 102.5999
2609 54.4646
2728 295.8498
2931 200.4151
3031 68.9785
3044 89.9050
3058 201.8717
3085 28.0631
3166 46.4850
3188 56.6972
3496 57.7038
3614 68.8324
3656 86.2871
3697 248.0586
3722 309.1168
3847 244.7967
3888 6.0764
4051 29.6919
4174 63.2577
4734 205.2129
4804 44.2690
4952 53.9072
5093 35.8462
5103 93.3925
5144 21.8192
5332 47.8140
5363 42.6570
5457 57.4815
5683 44.7596
5900 71.5452
6049 138.3873
6089 209.0599
6125 133.4734
6181 167.9791
6190 130.4881
6214 145.4414
6331 41.3405
6344 13.1989
6432 79.8095
7006 217.6150
7253 44.1343
7344 219.6409
7385 107.7522
7394 185.9753
7408 327.7610
7540 187.0787
7948 255.4753
8021 185.7459
8226 239.3236
8265 116.4668
8391 42.5196
8443 61.2992
8487 274.5602
8515 30.7332
8527 151.0507
8693 115.9426
8705 155.6190
8731 214.5758
8771 93.7818
8793 24.6711
8887 55.8055
8910 184.2452
8921 150.5674
8973 172.0067
8998 172.0908
PLANTSmolcadARTstart hb
PLANTSmolcadARTstart HB
LINES
-6.55373 -42.7704 2.94798 -8.049 -42.113 3.696 0 255 0 5
PLANTSmolcadARTstart HBCH
LINES
PLANTSmolcadARTstart HB-CHO
LINES
PLANTSmolcadARTend
PLANTSmolcadARTstart HB_WATER
LINES
PLANTSmolcadARTend

PLANTSmolcadARTend

