@<TRIPOS>MOLECULE
aspirin_entry_00001_conf_48
20 20 1
SMALL
NO_CHARGES


@<TRIPOS>ATOM
      1 C         -32.2501  -39.9630    4.5950 C.3       1 UNL1        0.0000
      2 C         -31.8595  -41.0995    5.4671 C.2       1 UNL1        0.0000
      3 C         -32.3874  -42.8465    3.8510 C.ar      1 UNL1        0.0000
      4 C         -32.1985  -42.2187    2.6381 C.ar      1 UNL1        0.0000
      5 C         -32.6933  -42.7047    1.4441 C.ar      1 UNL1        0.0000
      6 C         -33.4107  -43.8761    1.4681 C.ar      1 UNL1        0.0000
      7 C         -33.6295  -44.5441    2.6531 C.ar      1 UNL1        0.0000
      8 C         -33.1131  -44.0218    3.8398 C.ar      1 UNL1        0.0000
      9 C         -33.3674  -44.7597    5.0712 C.2       1 UNL1        0.0000
     10 O         -31.4470  -40.9375    6.6555 O.2       1 UNL1        0.0000
     11 O         -31.9159  -42.4015    5.0563 O.3       1 UNL1        0.0000
     12 O         -34.0513  -45.8151    5.0636 O.co2     1 UNL1       -0.5000
     13 O         -32.8707  -44.3289    6.2899 O.co2     1 UNL1       -0.5000
     14 H         -32.1239  -39.0446    5.1294 H         1 UNL1        0.0000
     15 H         -33.2751  -40.0703    4.3076 H         1 UNL1        0.0000
     16 H         -31.6334  -39.9560    3.7211 H         1 UNL1        0.0000
     17 H         -31.6589  -41.3395    2.6216 H         1 UNL1        0.0000
     18 H         -32.5278  -42.2020    0.5576 H         1 UNL1        0.0000
     19 H         -33.7909  -44.2602    0.5888 H         1 UNL1        0.0000
     20 H         -34.1695  -45.4239    2.6633 H         1 UNL1        0.0000
@<TRIPOS>BOND
     1    1    2 1
     2    1   14 1
     3    1   15 1
     4    1   16 1
     5    2   10 2
     6    2   11 1
     7    3    4 ar
     8    3    8 ar
     9    3   11 1
    10    4    5 ar
    11    4   17 1
    12    5    6 ar
    13    5   18 1
    14    6    7 ar
    15    6   19 1
    16    7    8 ar
    17    7   20 1
    18    8    9 1
    19    9   12 ar
    20    9   13 ar
@<TRIPOS>SUBSTRUCTURE
1 UNL1 1
@<TRIPOS>COMMENT
aspirin
PLANTSproteinTorsions
102
1 249.3541
42 92.3406
151 127.3593
173 93.8998
432 32.2261
491 66.3125
531 211.7373
563 32.9976
572 266.1222
629 37.8374
730 140.1456
826 229.1096
895 183.4908
921 142.1088
954 68.9630
1044 260.6484
1258 165.2357
1480 202.6709
1534 126.5185
1612 160.2227
1654 288.3499
1680 24.2491
1704 166.1407
1767 265.9471
1795 70.1528
1847 154.9871
1879 116.7487
1921 116.4149
1944 333.4451
1966 87.2836
1975 77.2393
2067 58.1224
2118 85.2845
2167 176.7287
2220 122.7241
2243 195.3787
2272 58.0081
2294 47.7214
2609 58.5502
2728 104.9054
2931 111.1161
3031 81.6653
3044 28.7549
3058 180.3610
3085 348.0386
3166 77.8918
3188 214.4933
3496 288.3159
3614 93.2046
3656 335.0172
3697 222.9279
3722 38.9408
3847 214.4630
3888 282.1661
4051 191.8161
4174 201.2853
4734 338.1720
4804 142.3255
4952 157.5191
5093 150.2241
5103 107.6279
5144 30.3780
5332 252.5865
5363 217.1706
5457 180.3298
5683 175.3285
5900 212.9043
6049 76.0184
6089 185.6158
6125 18.6536
6181 155.6645
6190 28.1357
6214 237.0440
6331 341.0009
6344 240.2032
6432 213.9804
7006 263.0814
7253 49.0828
7344 215.5980
7385 83.9032
7394 234.0301
7408 65.5123
7540 246.6460
7948 174.7037
8021 171.3370
8226 139.8383
8265 39.0813
8391 102.0202
8443 2.2964
8487 253.2363
8515 16.9233
8527 188.4738
8693 108.0814
8705 41.7875
8731 240.0801
8771 47.4335
8793 13.3956
8887 249.9780
8910 232.0397
8921 154.4301
8973 322.3996
8998 214.4725
PLANTSmolcadARTstart hb
PLANTSmolcadARTstart HB
LINES
-31.447 -40.9375 6.65552 -29.8727 -39.8573 6.92326 0 255 0 5
PLANTSmolcadARTstart HBCH
LINES
PLANTSmolcadARTstart HB-CHO
LINES
PLANTSmolcadARTend
PLANTSmolcadARTstart HB_WATER
LINES
PLANTSmolcadARTend

PLANTSmolcadARTend

