@<TRIPOS>MOLECULE
aspirin_entry_00001_conf_46
20 20 1
SMALL
NO_CHARGES


@<TRIPOS>ATOM
      1 C         -31.2314  -63.7778    1.2683 C.3       1 UNL1        0.0000
      2 C         -32.3875  -62.8923    1.5586 C.2       1 UNL1        0.0000
      3 C         -32.0308  -62.7974    3.9681 C.ar      1 UNL1        0.0000
      4 C         -30.6572  -62.8452    4.0777 C.ar      1 UNL1        0.0000
      5 C         -29.9973  -63.1427    5.2536 C.ar      1 UNL1        0.0000
      6 C         -30.7508  -63.4036    6.3723 C.ar      1 UNL1        0.0000
      7 C         -32.1272  -63.3698    6.3182 C.ar      1 UNL1        0.0000
      8 C         -32.7584  -63.0648    5.1114 C.ar      1 UNL1        0.0000
      9 C         -34.2161  -63.0396    5.0976 C.2       1 UNL1        0.0000
     10 O         -33.1413  -62.4335    0.6476 O.2       1 UNL1        0.0000
     11 O         -32.7256  -62.5073    2.8252 O.3       1 UNL1        0.0000
     12 O         -34.8546  -63.1342    4.0183 O.co2     1 UNL1       -0.5000
     13 O         -34.9497  -62.9093    6.2648 O.co2     1 UNL1       -0.5000
     14 H         -31.1642  -63.9411    0.2130 H         1 UNL1        0.0000
     15 H         -31.3665  -64.7150    1.7662 H         1 UNL1        0.0000
     16 H         -30.3320  -63.3152    1.6166 H         1 UNL1        0.0000
     17 H         -30.0927  -62.6482    3.2369 H         1 UNL1        0.0000
     18 H         -28.9657  -63.1672    5.2912 H         1 UNL1        0.0000
     19 H         -30.2812  -63.6283    7.2634 H         1 UNL1        0.0000
     20 H         -32.6868  -63.5669    7.1630 H         1 UNL1        0.0000
@<TRIPOS>BOND
     1    1    2 1
     2    1   14 1
     3    1   15 1
     4    1   16 1
     5    2   10 2
     6    2   11 1
     7    3    4 ar
     8    3    8 ar
     9    3   11 1
    10    4    5 ar
    11    4   17 1
    12    5    6 ar
    13    5   18 1
    14    6    7 ar
    15    6   19 1
    16    7    8 ar
    17    7   20 1
    18    8    9 1
    19    9   12 ar
    20    9   13 ar
@<TRIPOS>SUBSTRUCTURE
1 UNL1 1
@<TRIPOS>COMMENT
aspirin
PLANTSproteinTorsions
102
1 35.6294
42 29.6188
151 196.2019
173 80.6531
432 40.0622
491 162.3815
531 24.3580
563 237.7985
572 241.3076
629 30.8398
730 113.5323
826 90.0435
895 357.7148
921 58.4598
954 168.7187
1044 27.7246
1258 305.7104
1480 193.7313
1534 24.5522
1612 154.0672
1654 247.3289
1680 182.2042
1704 7.5523
1767 219.3159
1795 145.8223
1847 118.9430
1879 133.5623
1921 181.9968
1944 65.7047
1966 163.9989
1975 233.6973
2067 175.6658
2118 52.2792
2167 110.4654
2220 72.1354
2243 195.1817
2272 73.8974
2294 6.2596
2609 85.7045
2728 249.9336
2931 238.1123
3031 88.9703
3044 21.6742
3058 179.9434
3085 98.4690
3166 249.8934
3188 221.6547
3496 250.6532
3614 105.8406
3656 47.4747
3697 15.9038
3722 37.4419
3847 264.5248
3888 265.5214
4051 332.4351
4174 168.2585
4734 13.3087
4804 45.3484
4952 187.8484
5093 9.0733
5103 164.5563
5144 246.5882
5332 50.0842
5363 103.9998
5457 250.2594
5683 182.8687
5900 212.5624
6049 85.3222
6089 237.7909
6125 260.4866
6181 230.6830
6190 207.4881
6214 138.4585
6331 235.9648
6344 267.7515
6432 234.2587
7006 118.8195
7253 103.1039
7344 231.8707
7385 51.8572
7394 222.9250
7408 133.6036
7540 195.5633
7948 213.3763
8021 164.5180
8226 145.4730
8265 159.6418
8391 170.9316
8443 69.6997
8487 128.4725
8515 103.4872
8527 219.9921
8693 32.7828
8705 263.8954
8731 204.7121
8771 242.3216
8793 64.5318
8887 232.6978
8910 84.5531
8921 34.6375
8973 339.1860
8998 198.9769
PLANTSmolcadARTstart hb
PLANTSmolcadARTstart HB
LINES
-34.9497 -62.9093 6.26484 -35.0814 -60.8897 6.2076 0 255 0 5
PLANTSmolcadARTstart HBCH
LINES
PLANTSmolcadARTstart HB-CHO
LINES
PLANTSmolcadARTend
PLANTSmolcadARTstart HB_WATER
LINES
PLANTSmolcadARTend

PLANTSmolcadARTend

