@<TRIPOS>MOLECULE
aspirin_entry_00001_conf_36
20 20 1
SMALL
NO_CHARGES


@<TRIPOS>ATOM
      1 C         -12.1820  -59.1542    0.2246 C.3       1 UNL1        0.0000
      2 C         -13.4055  -59.3129   -0.6016 C.2       1 UNL1        0.0000
      3 C         -14.4089  -57.1818    0.0259 C.ar      1 UNL1        0.0000
      4 C         -13.9401  -56.9622    1.3037 C.ar      1 UNL1        0.0000
      5 C         -13.9582  -55.7264    1.9194 C.ar      1 UNL1        0.0000
      6 C         -14.4701  -54.6606    1.2198 C.ar      1 UNL1        0.0000
      7 C         -14.9525  -54.8245   -0.0604 C.ar      1 UNL1        0.0000
      8 C         -14.9169  -56.0892   -0.6496 C.ar      1 UNL1        0.0000
      9 C         -15.4372  -56.2191   -2.0053 C.2       1 UNL1        0.0000
     10 O         -13.6007  -60.3218   -1.3452 O.2       1 UNL1        0.0000
     11 O         -14.4103  -58.3873   -0.6222 O.3       1 UNL1        0.0000
     12 O         -15.1862  -57.2369   -2.6999 O.co2     1 UNL1       -0.5000
     13 O         -16.2214  -55.2319   -2.5782 O.co2     1 UNL1       -0.5000
     14 H         -11.5423  -59.9995    0.0794 H         1 UNL1        0.0000
     15 H         -12.4554  -59.0871    1.2568 H         1 UNL1        0.0000
     16 H         -11.6683  -58.2624   -0.0671 H         1 UNL1        0.0000
     17 H         -13.5552  -57.7635    1.8275 H         1 UNL1        0.0000
     18 H         -13.5960  -55.6065    2.8788 H         1 UNL1        0.0000
     19 H         -14.4945  -53.7265    1.6578 H         1 UNL1        0.0000
     20 H         -15.3355  -54.0189   -0.5800 H         1 UNL1        0.0000
@<TRIPOS>BOND
     1    1    2 1
     2    1   14 1
     3    1   15 1
     4    1   16 1
     5    2   10 2
     6    2   11 1
     7    3    4 ar
     8    3    8 ar
     9    3   11 1
    10    4    5 ar
    11    4   17 1
    12    5    6 ar
    13    5   18 1
    14    6    7 ar
    15    6   19 1
    16    7    8 ar
    17    7   20 1
    18    8    9 1
    19    9   12 ar
    20    9   13 ar
@<TRIPOS>SUBSTRUCTURE
1 UNL1 1
@<TRIPOS>COMMENT
aspirin
PLANTSproteinTorsions
102
1 211.2525
42 126.7744
151 275.4984
173 171.6668
432 88.1460
491 53.1906
531 209.9685
563 353.2169
572 217.1902
629 323.5972
730 90.4969
826 51.7865
895 60.0282
921 39.2771
954 81.7949
1044 68.4359
1258 55.1910
1480 14.5942
1534 215.6562
1612 202.4847
1654 122.5423
1680 258.4153
1704 358.8906
1767 175.6320
1795 147.1835
1847 202.1807
1879 297.5244
1921 47.6998
1944 334.2696
1966 157.0626
1975 58.5112
2067 89.7749
2118 181.1129
2167 170.5760
2220 219.4600
2243 329.3758
2272 301.0378
2294 295.6554
2609 112.8780
2728 209.4379
2931 13.9265
3031 314.0072
3044 146.0870
3058 199.2599
3085 182.7908
3166 11.3586
3188 123.3999
3496 295.8594
3614 225.3679
3656 31.2541
3697 164.8554
3722 51.9991
3847 11.6648
3888 166.4614
4051 244.8951
4174 56.7078
4734 69.4086
4804 182.3542
4952 9.8357
5093 35.0599
5103 27.4834
5144 245.8054
5332 195.8142
5363 278.1046
5457 189.7301
5683 231.0785
5900 185.5556
6049 262.0107
6089 50.6265
6125 256.9770
6181 86.1920
6190 246.3459
6214 277.6393
6331 229.4692
6344 244.1860
6432 129.6319
7006 22.8842
7253 263.4337
7344 176.2328
7385 197.2641
7394 154.3715
7408 113.1889
7540 253.0514
7948 270.5631
8021 118.8482
8226 100.2551
8265 280.0414
8391 65.4351
8443 56.5758
8487 201.8536
8515 276.7616
8527 112.5165
8693 273.5088
8705 244.0265
8731 238.3461
8771 135.6004
8793 211.3003
8887 181.3809
8910 102.0609
8921 13.6356
8973 181.8021
8998 222.4591
PLANTSmolcadARTstart hb
PLANTSmolcadARTstart HB
LINES
PLANTSmolcadARTstart HBCH
LINES
PLANTSmolcadARTstart HB-CHO
LINES
PLANTSmolcadARTend
PLANTSmolcadARTstart HB_WATER
LINES
PLANTSmolcadARTend

PLANTSmolcadARTend

