@<TRIPOS>MOLECULE
aspirin_entry_00001_conf_25
20 20 1
SMALL
NO_CHARGES


@<TRIPOS>ATOM
      1 C          -2.5245  -64.2162    3.9488 C.3       1 UNL1        0.0000
      2 C          -3.3552  -63.1072    4.4826 C.2       1 UNL1        0.0000
      3 C          -3.7269  -61.3687    6.1504 C.ar      1 UNL1        0.0000
      4 C          -4.5053  -60.4562    5.4705 C.ar      1 UNL1        0.0000
      5 C          -5.2308  -59.4603    6.0939 C.ar      1 UNL1        0.0000
      6 C          -5.1732  -59.3767    7.4640 C.ar      1 UNL1        0.0000
      7 C          -4.4104  -60.2630    8.1926 C.ar      1 UNL1        0.0000
      8 C          -3.6910  -61.2565    7.5267 C.ar      1 UNL1        0.0000
      9 C          -2.8966  -62.1738    8.3351 C.2       1 UNL1        0.0000
     10 O          -4.4604  -62.7697    3.9598 O.2       1 UNL1        0.0000
     11 O          -2.9929  -62.3700    5.5745 O.3       1 UNL1        0.0000
     12 O          -2.6963  -61.9522    9.5566 O.co2     1 UNL1       -0.5000
     13 O          -2.3336  -63.3164    7.7921 O.co2     1 UNL1       -0.5000
     14 H          -3.0082  -64.6445    3.0958 H         1 UNL1        0.0000
     15 H          -2.4026  -64.9651    4.7030 H         1 UNL1        0.0000
     16 H          -1.5655  -63.8377    3.6636 H         1 UNL1        0.0000
     17 H          -4.5481  -60.5208    4.4417 H         1 UNL1        0.0000
     18 H          -5.8017  -58.7975    5.5454 H         1 UNL1        0.0000
     19 H          -5.7068  -58.6413    7.9536 H         1 UNL1        0.0000
     20 H          -4.3721  -60.1940    9.2219 H         1 UNL1        0.0000
@<TRIPOS>BOND
     1    1    2 1
     2    1   14 1
     3    1   15 1
     4    1   16 1
     5    2   10 2
     6    2   11 1
     7    3    4 ar
     8    3    8 ar
     9    3   11 1
    10    4    5 ar
    11    4   17 1
    12    5    6 ar
    13    5   18 1
    14    6    7 ar
    15    6   19 1
    16    7    8 ar
    17    7   20 1
    18    8    9 1
    19    9   12 ar
    20    9   13 ar
@<TRIPOS>SUBSTRUCTURE
1 UNL1 1
@<TRIPOS>COMMENT
aspirin
PLANTSproteinTorsions
102
1 198.9831
42 156.5343
151 61.9388
173 243.0868
432 98.3829
491 16.7116
531 208.3661
563 354.8102
572 75.2348
629 284.4369
730 325.1963
826 1.5051
895 26.5832
921 157.5358
954 9.7331
1044 163.8492
1258 35.4941
1480 253.2830
1534 27.3908
1612 13.6323
1654 81.4830
1680 163.7723
1704 290.7159
1767 50.2506
1795 13.2191
1847 340.8983
1879 49.2243
1921 85.2321
1944 4.9273
1966 254.5969
1975 161.4102
2067 251.3201
2118 204.1830
2167 161.0852
2220 38.4734
2243 66.9761
2272 108.8034
2294 74.6065
2609 56.7148
2728 248.6850
2931 167.2235
3031 23.1192
3044 203.5818
3058 254.0625
3085 26.9858
3166 316.1718
3188 80.2580
3496 102.0495
3614 172.8125
3656 67.0742
3697 202.2421
3722 73.0402
3847 158.1107
3888 274.5536
4051 40.4209
4174 210.2696
4734 92.1589
4804 154.9236
4952 206.2034
5093 189.1746
5103 256.3000
5144 71.1376
5332 323.9341
5363 3.8129
5457 152.5002
5683 240.7436
5900 170.8500
6049 37.3500
6089 262.2882
6125 97.1920
6181 124.6325
6190 106.1278
6214 259.9813
6331 92.0432
6344 148.1173
6432 173.6049
7006 162.0262
7253 262.4019
7344 17.5092
7385 69.0968
7394 326.4880
7408 80.8467
7540 133.8017
7948 88.7604
8021 32.7595
8226 226.7460
8265 187.3807
8391 105.7213
8443 94.5663
8487 173.7489
8515 184.9482
8527 80.2809
8693 246.9526
8705 10.1118
8731 158.7819
8771 177.7160
8793 246.6414
8887 151.5058
8910 214.9493
8921 321.8938
8973 295.1778
8998 140.7789
PLANTSmolcadARTstart hb
PLANTSmolcadARTstart HB
LINES
PLANTSmolcadARTstart HBCH
LINES
PLANTSmolcadARTstart HB-CHO
LINES
PLANTSmolcadARTend
PLANTSmolcadARTstart HB_WATER
LINES
PLANTSmolcadARTend

PLANTSmolcadARTend

