@<TRIPOS>MOLECULE
aspirin_entry_00001_conf_39
20 20 1
SMALL
NO_CHARGES


@<TRIPOS>ATOM
      1 C         -41.5926  -52.5650    9.0320 C.3       1 UNL1        0.0000
      2 C         -42.7986  -53.4140    9.2038 C.2       1 UNL1        0.0000
      3 C         -42.2707  -54.9652    7.3990 C.ar      1 UNL1        0.0000
      4 C         -41.5091  -54.1661    6.5729 C.ar      1 UNL1        0.0000
      5 C         -40.7488  -54.6560    5.5294 C.ar      1 UNL1        0.0000
      6 C         -40.7523  -56.0113    5.3048 C.ar      1 UNL1        0.0000
      7 C         -41.4962  -56.8554    6.1000 C.ar      1 UNL1        0.0000
      8 C         -42.2520  -56.3230    7.1456 C.ar      1 UNL1        0.0000
      9 C         -43.0246  -57.2507    7.9629 C.2       1 UNL1        0.0000
     10 O         -43.6907  -53.1651   10.0704 O.2       1 UNL1        0.0000
     11 O         -43.0377  -54.5234    8.4429 O.3       1 UNL1        0.0000
     12 O         -42.8735  -58.4939    7.8488 O.co2     1 UNL1       -0.5000
     13 O         -43.9507  -56.8019    8.8895 O.co2     1 UNL1       -0.5000
     14 H         -41.6223  -51.7582    9.7341 H         1 UNL1        0.0000
     15 H         -41.5727  -52.1715    8.0373 H         1 UNL1        0.0000
     16 H         -40.7155  -53.1537    9.2004 H         1 UNL1        0.0000
     17 H         -41.5069  -53.1486    6.7434 H         1 UNL1        0.0000
     18 H         -40.1923  -54.0211    4.9351 H         1 UNL1        0.0000
     19 H         -40.1920  -56.4021    4.5312 H         1 UNL1        0.0000
     20 H         -41.4938  -57.8728    5.9252 H         1 UNL1        0.0000
@<TRIPOS>BOND
     1    1    2 1
     2    1   14 1
     3    1   15 1
     4    1   16 1
     5    2   10 2
     6    2   11 1
     7    3    4 ar
     8    3    8 ar
     9    3   11 1
    10    4    5 ar
    11    4   17 1
    12    5    6 ar
    13    5   18 1
    14    6    7 ar
    15    6   19 1
    16    7    8 ar
    17    7   20 1
    18    8    9 1
    19    9   12 ar
    20    9   13 ar
@<TRIPOS>SUBSTRUCTURE
1 UNL1 1
@<TRIPOS>COMMENT
aspirin
PLANTSproteinTorsions
102
1 198.0804
42 120.6207
151 35.2237
173 118.6354
432 320.6935
491 112.6288
531 195.7542
563 117.9089
572 286.0727
629 304.2640
730 240.8784
826 27.3104
895 97.1852
921 196.8493
954 129.0884
1044 307.8579
1258 59.2397
1480 134.1685
1534 57.4280
1612 96.8549
1654 157.4507
1680 63.4934
1704 85.8108
1767 10.7789
1795 329.4066
1847 241.2306
1879 215.6158
1921 105.3317
1944 262.3494
1966 47.7618
1975 1.9999
2067 247.9813
2118 118.3224
2167 12.3098
2220 54.9124
2243 172.4145
2272 34.4215
2294 44.5660
2609 148.0829
2728 155.2847
2931 231.0872
3031 257.3407
3044 252.1944
3058 138.5498
3085 224.0511
3166 110.2962
3188 73.2390
3496 137.7172
3614 108.8590
3656 248.3938
3697 152.6345
3722 101.6300
3847 50.0534
3888 236.8934
4051 158.9881
4174 145.8124
4734 153.1958
4804 322.8976
4952 81.3006
5093 115.7151
5103 33.4305
5144 138.7129
5332 215.3159
5363 139.4782
5457 249.1836
5683 317.9890
5900 106.5959
6049 258.2016
6089 259.1958
6125 181.9059
6181 100.5100
6190 195.4762
6214 99.9090
6331 41.7621
6344 268.7919
6432 156.6548
7006 264.3885
7253 126.8588
7344 125.8330
7385 207.9718
7394 85.3506
7408 196.6382
7540 196.7489
7948 204.3734
8021 63.4574
8226 245.3236
8265 167.8774
8391 8.7008
8443 228.1788
8487 207.2524
8515 170.2250
8527 210.0413
8693 171.9982
8705 133.5546
8731 146.9655
8771 258.6845
8793 99.6664
8887 202.2811
8910 88.5043
8921 129.0812
8973 263.9692
8998 211.1727
PLANTSmolcadARTstart hb
PLANTSmolcadARTstart HB
LINES
PLANTSmolcadARTstart HBCH
LINES
PLANTSmolcadARTstart HB-CHO
LINES
-42.8735 -58.4939 7.84876 -41.89 -59.24 9.17 0 255 255 5
PLANTSmolcadARTend
PLANTSmolcadARTstart HB_WATER
LINES
PLANTSmolcadARTend

PLANTSmolcadARTend

