@<TRIPOS>MOLECULE
aspirin_entry_00001_conf_66
20 20 1
SMALL
NO_CHARGES


@<TRIPOS>ATOM
      1 C          -9.4795  -59.1905   11.9620 C.3       1 UNL1        0.0000
      2 C          -9.2646  -58.2237   10.8558 C.2       1 UNL1        0.0000
      3 C         -11.6146  -58.0134   10.2430 C.ar      1 UNL1        0.0000
      4 C         -12.1187  -59.2952   10.1802 C.ar      1 UNL1        0.0000
      5 C         -13.4633  -59.5905   10.2878 C.ar      1 UNL1        0.0000
      6 C         -14.3434  -58.5510   10.4676 C.ar      1 UNL1        0.0000
      7 C         -13.8931  -57.2506   10.5369 C.ar      1 UNL1        0.0000
      8 C         -12.5263  -56.9917   10.4242 C.ar      1 UNL1        0.0000
      9 C         -12.0920  -55.6021   10.5029 C.2       1 UNL1        0.0000
     10 O          -8.1092  -57.8415   10.4982 O.2       1 UNL1        0.0000
     11 O         -10.2922  -57.6755   10.1414 O.3       1 UNL1        0.0000
     12 O         -12.8449  -54.7150   10.9801 O.co2     1 UNL1       -0.5000
     13 O         -10.8422  -55.2072   10.0561 O.co2     1 UNL1       -0.5000
     14 H          -8.5338  -59.4811   12.3696 H         1 UNL1        0.0000
     15 H          -9.9865  -60.0546   11.5866 H         1 UNL1        0.0000
     16 H         -10.0725  -58.7325   12.7254 H         1 UNL1        0.0000
     17 H         -11.4565  -60.0748   10.0460 H         1 UNL1        0.0000
     18 H         -13.7979  -60.5659   10.2356 H         1 UNL1        0.0000
     19 H         -15.3535  -58.7456   10.5512 H         1 UNL1        0.0000
     20 H         -14.5604  -56.4746   10.6722 H         1 UNL1        0.0000
@<TRIPOS>BOND
     1    1    2 1
     2    1   14 1
     3    1   15 1
     4    1   16 1
     5    2   10 2
     6    2   11 1
     7    3    4 ar
     8    3    8 ar
     9    3   11 1
    10    4    5 ar
    11    4   17 1
    12    5    6 ar
    13    5   18 1
    14    6    7 ar
    15    6   19 1
    16    7    8 ar
    17    7   20 1
    18    8    9 1
    19    9   12 ar
    20    9   13 ar
@<TRIPOS>SUBSTRUCTURE
1 UNL1 1
@<TRIPOS>COMMENT
aspirin
PLANTSproteinTorsions
102
1 203.0931
42 152.7251
151 185.3243
173 123.8042
432 106.3106
491 147.1028
531 223.3133
563 268.4945
572 120.6029
629 170.0804
730 272.3316
826 56.4005
895 12.6470
921 13.6570
954 167.7535
1044 52.0625
1258 144.6949
1480 96.3752
1534 14.7756
1612 65.6147
1654 92.2023
1680 194.2740
1704 4.9506
1767 40.4866
1795 9.8509
1847 274.1444
1879 229.8406
1921 100.2973
1944 185.3029
1966 21.4095
1975 22.6086
2067 75.5578
2118 49.3762
2167 288.3467
2220 230.6822
2243 206.7833
2272 262.1453
2294 56.4978
2609 314.4659
2728 288.3276
2931 7.5564
3031 251.3879
3044 20.9835
3058 240.6766
3085 215.4936
3166 38.2942
3188 62.6896
3496 222.0424
3614 214.1859
3656 86.5715
3697 205.1667
3722 218.0633
3847 36.0239
3888 120.3120
4051 173.1402
4174 194.4354
4734 179.4648
4804 23.0517
4952 15.0109
5093 148.2477
5103 62.0589
5144 156.3158
5332 208.4909
5363 23.9324
5457 105.1198
5683 29.7072
5900 24.6943
6049 13.2175
6089 261.5835
6125 42.8827
6181 120.1584
6190 242.5670
6214 114.1020
6331 7.5231
6344 72.8456
6432 253.3301
7006 30.8949
7253 34.4258
7344 105.9611
7385 252.4286
7394 344.0622
7408 159.8491
7540 223.2849
7948 109.2404
8021 317.1859
8226 229.4092
8265 26.1507
8391 349.5790
8443 224.6286
8487 79.2748
8515 151.3598
8527 61.9574
8693 62.4805
8705 195.5851
8731 197.7747
8771 205.9563
8793 70.6705
8887 188.2384
8910 50.0526
8921 180.4952
8973 111.6318
8998 14.9402
PLANTSmolcadARTstart hb
PLANTSmolcadARTstart HB
LINES
PLANTSmolcadARTstart HBCH
LINES
-10.8422 -55.2072 10.0561 -11.165 -54.4203 8.34733 255 0 0 5
PLANTSmolcadARTstart HB-CHO
LINES
PLANTSmolcadARTend
PLANTSmolcadARTstart HB_WATER
LINES
PLANTSmolcadARTend

PLANTSmolcadARTend

