@<TRIPOS>MOLECULE
aspirin_entry_00001_conf_57
20 20 1
SMALL
NO_CHARGES


@<TRIPOS>ATOM
      1 C         -14.0590  -57.3904    1.2572 C.3       1 UNL1        0.0000
      2 C         -13.6329  -58.6983    0.6980 C.2       1 UNL1        0.0000
      3 C         -14.0154  -60.5324   -0.8615 C.ar      1 UNL1        0.0000
      4 C         -13.6932  -61.6220   -0.0805 C.ar      1 UNL1        0.0000
      5 C         -13.4973  -62.8912   -0.5881 C.ar      1 UNL1        0.0000
      6 C         -13.6317  -63.0759   -1.9428 C.ar      1 UNL1        0.0000
      7 C         -13.9520  -62.0210   -2.7693 C.ar      1 UNL1        0.0000
      8 C         -14.1428  -60.7526   -2.2192 C.ar      1 UNL1        0.0000
      9 C         -14.4804  -59.6643   -3.1286 C.2       1 UNL1        0.0000
     10 O         -12.6949  -59.3846    1.2058 O.2       1 UNL1        0.0000
     11 O         -14.2183  -59.2594   -0.4017 O.3       1 UNL1        0.0000
     12 O         -14.5058  -59.8452   -4.3729 O.co2     1 UNL1       -0.5000
     13 O         -14.7824  -58.3964   -2.6608 O.co2     1 UNL1       -0.5000
     14 H         -13.4607  -57.1573    2.1132 H         1 UNL1        0.0000
     15 H         -15.0879  -57.4443    1.5454 H         1 UNL1        0.0000
     16 H         -13.9354  -56.6288    0.5163 H         1 UNL1        0.0000
     17 H         -13.5934  -61.4819    0.9368 H         1 UNL1        0.0000
     18 H         -13.2574  -63.6798    0.0337 H         1 UNL1        0.0000
     19 H         -13.4905  -64.0151   -2.3466 H         1 UNL1        0.0000
     20 H         -14.0514  -62.1675   -3.7864 H         1 UNL1        0.0000
@<TRIPOS>BOND
     1    1    2 1
     2    1   14 1
     3    1   15 1
     4    1   16 1
     5    2   10 2
     6    2   11 1
     7    3    4 ar
     8    3    8 ar
     9    3   11 1
    10    4    5 ar
    11    4   17 1
    12    5    6 ar
    13    5   18 1
    14    6    7 ar
    15    6   19 1
    16    7    8 ar
    17    7   20 1
    18    8    9 1
    19    9   12 ar
    20    9   13 ar
@<TRIPOS>SUBSTRUCTURE
1 UNL1 1
@<TRIPOS>COMMENT
aspirin
PLANTSproteinTorsions
102
1 197.0557
42 106.1229
151 20.6520
173 177.9534
432 59.6763
491 358.2506
531 356.3893
563 97.5653
572 41.9242
629 201.5134
730 246.9049
826 0.1847
895 97.7471
921 187.1090
954 114.3544
1044 122.6668
1258 58.8661
1480 35.0755
1534 214.2048
1612 21.3416
1654 158.5596
1680 259.8273
1704 48.2709
1767 183.3827
1795 85.4419
1847 292.2050
1879 263.1667
1921 26.6993
1944 118.6033
1966 214.6022
1975 66.5670
2067 80.5239
2118 70.5988
2167 307.4007
2220 25.7272
2243 234.8869
2272 96.7280
2294 25.8141
2609 180.1219
2728 103.7811
2931 290.7861
3031 331.5299
3044 192.2177
3058 170.6414
3085 244.5657
3166 209.3906
3188 34.0946
3496 210.8651
3614 61.7074
3656 42.4574
3697 168.5185
3722 253.1240
3847 37.9472
3888 124.3855
4051 223.5031
4174 191.3766
4734 174.9751
4804 97.2032
4952 17.9906
5093 263.6151
5103 331.5553
5144 269.9498
5332 170.6729
5363 238.9226
5457 177.5519
5683 62.8096
5900 68.7357
6049 225.1692
6089 47.8493
6125 92.5669
6181 91.6808
6190 140.0561
6214 16.4996
6331 229.6344
6344 275.6340
6432 153.0709
7006 276.3147
7253 180.5746
7344 217.8046
7385 202.8125
7394 244.8055
7408 99.6554
7540 282.3479
7948 65.9710
8021 180.1974
8226 136.6297
8265 128.4234
8391 73.9981
8443 79.1653
8487 210.7496
8515 268.0582
8527 110.2026
8693 294.0531
8705 268.9117
8731 107.4792
8771 37.5183
8793 171.5770
8887 93.7350
8910 122.5953
8921 96.3344
8973 194.0679
8998 213.8834
PLANTSmolcadARTstart hb
PLANTSmolcadARTstart HB
LINES
PLANTSmolcadARTstart HBCH
LINES
PLANTSmolcadARTstart HB-CHO
LINES
PLANTSmolcadARTend
PLANTSmolcadARTstart HB_WATER
LINES
PLANTSmolcadARTend

PLANTSmolcadARTend

