MODEL 1
REMARK VINA RESULT:      -6.3      0.000      0.000
REMARK  3 active torsions:
REMARK  status: ('A' for Active; 'I' for Inactive)
REMARK    1  A    between atoms: C_2  and  O_11 
REMARK    2  A    between atoms: C_3  and  O_11 
REMARK    3  A    between atoms: C_8  and  C_9 
ROOT
HETATM    1  C   UNL     1     -33.139 -45.404   5.616  1.00  0.00     0.096 A 
HETATM    2  C   UNL     1     -32.723 -44.910   6.834  1.00  0.00     0.038 A 
HETATM    3  C   UNL     1     -33.147 -43.702   7.351  1.00  0.00     0.003 A 
HETATM    4  C   UNL     1     -34.030 -42.954   6.611  1.00  0.00     0.001 A 
HETATM    5  C   UNL     1     -34.478 -43.400   5.387  1.00  0.00     0.021 A 
HETATM    6  C   UNL     1     -34.026 -44.627   4.897  1.00  0.00     0.074 A 
ENDROOT
BRANCH   1   7
HETATM    7  O   UNL     1     -32.745 -46.593   5.065  1.00  0.00    -0.278 OA
BRANCH   7   8
HETATM    8  C   UNL     1     -33.233 -47.829   5.385  1.00  0.00     0.260 C 
HETATM    9  C   UNL     1     -33.919 -48.702   4.399  1.00  0.00     0.126 C 
HETATM   10  O   UNL     1     -33.054 -48.172   6.592  1.00  0.00    -0.265 OA
ENDBRANCH   7   8
ENDBRANCH   1   7
BRANCH   6  11
HETATM   11  C   UNL     1     -34.525 -45.062   3.598  1.00  0.00     0.212 C 
HETATM   12  O   UNL     1     -33.981 -44.674   2.533  1.00  0.00    -0.644 OA
HETATM   13  O   UNL     1     -35.612 -45.912   3.487  1.00  0.00    -0.644 OA
ENDBRANCH   6  11
TORSDOF 3
ENDMDL
