@<TRIPOS>MOLECULE
Olaparib_entry_00001_conf_01_protein
60 37 23
SMALL
NO_CHARGES


@<TRIPOS>ATOM
      1 HZ1        23.1626    9.0300   -0.6344 H       259 LYS259     -0.0901
      2 NZ         22.3540    9.4710   -0.2580 N.4     259 LYS259      0.3781
      3 HZ2        22.6007   10.3245    0.1878 H       259 LYS259     -0.0901
      4 HZ3        21.8953    8.8647    0.3832 H       259 LYS259     -0.0901
      5 HH         20.1028   -6.4255    8.6476 H       279 TYR279      0.2921
      6 OH         19.8080   -7.2760    8.2120 O.3     279 TYR279     -0.5068
      7 HG1        31.7643    5.2115    8.2436 H       323 THR323      0.2099
      8 OG1        32.4070    5.6740    7.6230 O.3     323 THR323     -0.3897
      9 HZ1        29.8615    8.2479    7.4162 H       325 LYS325     -0.0901
     10 NZ         29.1610    8.9330    7.2460 N.4     325 LYS325      0.3781
     11 HZ2        28.4286    8.5487    6.6926 H       325 LYS325     -0.0901
     12 HZ3        29.5557    9.7271    6.7948 H       325 LYS325     -0.0901
     13 HG         24.9005    1.4726   12.0378 H       328 SER328      0.2095
     14 OG         25.1580    2.2890   11.5220 O.3     328 SER328     -0.3927
     15 HZ1        22.6058    2.6200    1.3832 H       330 LYS330     -0.0901
     16 NZ         23.5180    3.0260    1.3810 N.4     330 LYS330      0.3781
     17 HZ2        23.4483    4.0120    1.5237 H       330 LYS330     -0.0901
     18 HZ3        23.9669    2.8420    0.5082 H       330 LYS330     -0.0901
     19 HG1        22.0687   15.2681   23.3702 H       393 THR393      0.2099
     20 OG1        22.9410   15.5890   23.7600 O.3     393 THR393     -0.3897
     21 HH         15.0718   13.1180   20.6535 H       397 TYR397      0.2921
     22 OH         14.8710   12.9690   19.6890 O.3     397 TYR397     -0.5068
     23 HZ1         4.8664  -11.1512   16.7677 H       409 LYS409     -0.0901
     24 NZ          4.4340  -11.4210   17.6290 N.4     409 LYS409      0.3781
     25 HZ2         4.1096  -12.3650   17.5559 H       409 LYS409     -0.0901
     26 HZ3         3.6570  -10.8167   17.8133 H       409 LYS409     -0.0901
     27 HG         14.3703    0.3273   14.3189 H       430 SER430      0.2095
     28 OG         13.4130    0.4260   14.0760 O.3     430 SER430     -0.3927
     29 HG          5.6877   -8.8347   11.3834 H       440 SER440      0.2095
     30 OG          5.9710   -8.9830   12.3290 O.3     440 SER440     -0.3927
     31 HG1        31.6529   -3.8640   10.7720 H       453 THR453      0.2099
     32 OG1        32.1320   -2.9810   10.8570 O.3     453 THR453     -0.3897
     33 HH         22.3834   -5.8166   12.6924 H       455 TYR455      0.2921
     34 OH         23.2810   -5.5850   12.3310 O.3     455 TYR455     -0.5068
     35 HZ1        27.4700  -10.8581   12.8280 H       459 LYS459     -0.0901
     36 NZ         26.6110  -10.3810   12.6630 N.4     459 LYS459      0.3781
     37 HZ2        25.8440  -11.0067   12.7775 H       459 LYS459     -0.0901
     38 HZ3        26.6043   -9.9960   11.7443 H       459 LYS459     -0.0901
     39 HH         26.1682   -2.1607   19.7198 H       462 TYR462      0.2921
     40 OH         25.6260   -2.9400   20.0150 O.3     462 TYR462     -0.5068
     41 HZ1        24.4034    5.8159   23.7619 H       469 LYS469     -0.0901
     42 NZ         23.5700    5.9180   24.3040 N.4     469 LYS469      0.3781
     43 HZ2        23.6808    6.6692   24.9534 H       469 LYS469     -0.0901
     44 HZ3        23.3859    5.0701   24.7995 H       469 LYS469     -0.0901
     45 HG         16.2174    3.9377   22.3949 H       470 SER470      0.2095
     46 OG         15.8020    4.6360   22.9740 O.3     470 SER470     -0.3927
     47 HH         22.5008    4.8585   18.5727 H       473 TYR473      0.2921
     48 OH         22.3100    5.5040   17.8300 O.3     473 TYR473     -0.5068
     49 HG         11.3634   13.3271    7.5430 H       477 SER477      0.2095
     50 OG         11.1460   14.2360    7.8940 O.3     477 SER477     -0.3927
     51 HG         10.9078   -2.2391   24.3961 H       488 SER488      0.2095
     52 OG         10.3440   -2.9460   24.8140 O.3     488 SER488     -0.3927
     53 HZ1        23.2593    1.9465   34.9479 H       516 LYS516     -0.0901
     54 NZ         24.0380    2.5320   34.7210 N.4     516 LYS516      0.3781
     55 HZ2        24.8285    2.2631   35.2703 H       516 LYS516     -0.0901
     56 HZ3        23.8061    3.4857   34.9145 H       516 LYS516     -0.0901
     57 HH         21.9618   15.2272   25.4402 H       556 TYR556      0.2921
     58 OH         22.3900   15.0220   26.3220 O.3     556 TYR556     -0.5068
     59 HH         20.7118    2.1857   33.8150 H       559 TYR559      0.2921
     60 OH         20.7160    2.6790   32.9500 O.3     559 TYR559     -0.5068
@<TRIPOS>BOND
     1    3    2 1
     2    2    1 1
     3    2    4 1
     4   15   16 1
     5   18   16 1
     6   16   17 1
     7   12   10 1
     8    7    8 1
     9    9   10 1
    10   10   11 1
    11    5    6 1
    12   50   49 1
    13   31   32 1
    14   13   14 1
    15   33   34 1
    16   37   36 1
    17   29   30 1
    18   35   36 1
    19   36   38 1
    20   27   28 1
    21   23   24 1
    22   47   48 1
    23   25   24 1
    24   24   26 1
    25   21   22 1
    26   39   40 1
    27   46   45 1
    28   20   19 1
    29   41   42 1
    30   42   43 1
    31   42   44 1
    32   51   52 1
    33   58   57 1
    34   59   60 1
    35   54   55 1
    36   54   56 1
    37   54   53 1
@<TRIPOS>SUBSTRUCTURE
259 LYS259 1
279 TYR279 5
323 THR323 7
325 LYS325 9
328 SER328 13
330 LYS330 15
393 THR393 19
397 TYR397 21
409 LYS409 23
430 SER430 27
440 SER440 29
453 THR453 31
455 TYR455 33
459 LYS459 35
462 TYR462 39
469 LYS469 41
470 SER470 45
473 TYR473 47
477 SER477 49
488 SER488 51
516 LYS516 53
556 TYR556 57
559 TYR559 59
@<TRIPOS>COMMENT
