@<TRIPOS>MOLECULE
Olaparib_entry_00001_conf_08_protein
60 37 23
SMALL
NO_CHARGES


@<TRIPOS>ATOM
      1 HZ1        22.8413   10.3047   -0.0184 H       259 LYS259     -0.0901
      2 NZ         22.3540    9.4710   -0.2580 N.4     259 LYS259      0.3781
      3 HZ2        21.8249    9.1439    0.5174 H       259 LYS259     -0.0901
      4 HZ3        22.9924    8.7717   -0.5621 H       259 LYS259     -0.0901
      5 HH         19.6508   -6.3318    7.9224 H       279 TYR279      0.2921
      6 OH         19.8080   -7.2760    8.2120 O.3     279 TYR279     -0.5068
      7 HG1        31.7538    4.9330    7.8138 H       323 THR323      0.2099
      8 OG1        32.4070    5.6740    7.6230 O.3     323 THR323     -0.3897
      9 HZ1        28.7719    8.0495    7.0073 H       325 LYS325     -0.0901
     10 NZ         29.1610    8.9330    7.2460 N.4     325 LYS325      0.3781
     11 HZ2        28.9254    9.6120    6.5577 H       325 LYS325     -0.0901
     12 HZ3        30.1491    8.8625    7.3389 H       325 LYS325     -0.0901
     13 HG         24.6640    3.0300   11.0683 H       328 SER328      0.2095
     14 OG         25.1580    2.2890   11.5220 O.3     328 SER328     -0.3927
     15 HZ1        23.5778    2.4409    0.5741 H       330 LYS330     -0.0901
     16 NZ         23.5180    3.0260    1.3810 N.4     330 LYS330      0.3781
     17 HZ2        22.5660    3.1001    1.6736 H       330 LYS330     -0.0901
     18 HZ3        23.8771    3.9330    1.1672 H       330 LYS330     -0.0901
     19 HG1        23.7750   15.0508   23.5850 H       393 THR393      0.2099
     20 OG1        22.9410   15.5890   23.7600 O.3     393 THR393     -0.3897
     21 HH         14.2557   12.1986   19.5452 H       397 TYR397      0.2921
     22 OH         14.8710   12.9690   19.6890 O.3     397 TYR397     -0.5068
     23 HZ1         3.9645  -10.5446   17.5147 H       409 LYS409     -0.0901
     24 NZ          4.4340  -11.4210   17.6290 N.4     409 LYS409      0.3781
     25 HZ2         4.9070  -11.6572   16.7792 H       409 LYS409     -0.0901
     26 HZ3         3.7617  -12.1317   17.8429 H       409 LYS409     -0.0901
     27 HG         13.8924   -0.3528   14.4619 H       430 SER430      0.2095
     28 OG         13.4130    0.4260   14.0760 O.3     430 SER430     -0.3927
     29 HG          6.8105   -9.1226   12.8508 H       440 SER440      0.2095
     30 OG          5.9710   -8.9830   12.3290 O.3     440 SER440     -0.3927
     31 HG1        31.1586   -3.2435   10.8526 H       453 THR453      0.2099
     32 OG1        32.1320   -2.9810   10.8570 O.3     453 THR453     -0.3897
     33 HH         22.6168   -4.8541   12.2100 H       455 TYR455      0.2921
     34 OH         23.2810   -5.5850   12.3310 O.3     455 TYR455     -0.5068
     35 HZ1        27.4426  -10.8922   12.8627 H       459 LYS459     -0.0901
     36 NZ         26.6110  -10.3810   12.6630 N.4     459 LYS459      0.3781
     37 HZ2        25.8158  -10.9765   12.7398 H       459 LYS459     -0.0901
     38 HZ3        26.6600   -9.9921   11.7473 H       459 LYS459     -0.0901
     39 HH         26.0533   -3.3250   20.8260 H       462 TYR462      0.2921
     40 OH         25.6260   -2.9400   20.0150 O.3     462 TYR462     -0.5068
     41 HZ1        24.0176    5.0761   24.0044 H       469 LYS469     -0.0901
     42 NZ         23.5700    5.9180   24.3040 N.4     469 LYS469      0.3781
     43 HZ2        24.2217    6.6748   24.2738 H       469 LYS469     -0.0901
     44 HZ3        23.2307    5.8040   25.2368 H       469 LYS469     -0.0901
     45 HG         15.3017    4.4799   23.8230 H       470 SER470      0.2095
     46 OG         15.8020    4.6360   22.9740 O.3     470 SER470     -0.3927
     47 HH         22.4763    6.3347   18.3657 H       473 TYR473      0.2921
     48 OH         22.3100    5.5040   17.8300 O.3     473 TYR473     -0.5068
     49 HG         10.5635   15.0112    7.6564 H       477 SER477      0.2095
     50 OG         11.1460   14.2360    7.8940 O.3     477 SER477     -0.3927
     51 HG          9.3743   -2.7183   24.8203 H       488 SER488      0.2095
     52 OG         10.3440   -2.9460   24.8140 O.3     488 SER488     -0.3927
     53 HZ1        23.6604    3.4435   34.8860 H       516 LYS516     -0.0901
     54 NZ         24.0380    2.5320   34.7210 N.4     516 LYS516      0.3781
     55 HZ2        23.3657    1.8403   34.9827 H       516 LYS516     -0.0901
     56 HZ3        24.8693    2.4117   35.2643 H       516 LYS516     -0.0901
     57 HH         21.9389   15.4379   27.1136 H       556 TYR556      0.2921
     58 OH         22.3900   15.0220   26.3220 O.3     556 TYR556     -0.5068
     59 HH         21.3334    2.3578   33.6622 H       559 TYR559      0.2921
     60 OH         20.7160    2.6790   32.9500 O.3     559 TYR559     -0.5068
@<TRIPOS>BOND
     1    3    2 1
     2    2    1 1
     3    2    4 1
     4   15   16 1
     5   18   16 1
     6   16   17 1
     7   12   10 1
     8    7    8 1
     9    9   10 1
    10   10   11 1
    11    5    6 1
    12   50   49 1
    13   31   32 1
    14   13   14 1
    15   33   34 1
    16   37   36 1
    17   29   30 1
    18   35   36 1
    19   36   38 1
    20   27   28 1
    21   23   24 1
    22   47   48 1
    23   25   24 1
    24   24   26 1
    25   21   22 1
    26   39   40 1
    27   46   45 1
    28   20   19 1
    29   41   42 1
    30   42   43 1
    31   42   44 1
    32   51   52 1
    33   58   57 1
    34   59   60 1
    35   54   55 1
    36   54   56 1
    37   54   53 1
@<TRIPOS>SUBSTRUCTURE
259 LYS259 1
279 TYR279 5
323 THR323 7
325 LYS325 9
328 SER328 13
330 LYS330 15
393 THR393 19
397 TYR397 21
409 LYS409 23
430 SER430 27
440 SER440 29
453 THR453 31
455 TYR455 33
459 LYS459 35
462 TYR462 39
469 LYS469 41
470 SER470 45
473 TYR473 47
477 SER477 49
488 SER488 51
516 LYS516 53
556 TYR556 57
559 TYR559 59
@<TRIPOS>COMMENT
