@<TRIPOS>MOLECULE
query molecule
   32    32     1     0     0
SMALL
NO_CHARGE

@<TRIPOS>ATOM
      1 C         -13.5173  -61.1341   -1.0108 C.3       1 MOL     0.0072
      2 C         -13.5222  -60.0788    0.1316 C.3       1 MOL    -0.0128
      3 C         -12.3444  -60.3422    1.1049 C.3       1 MOL     0.0072
      4 C         -13.5503  -58.6562   -0.4686 C.3       1 MOL     0.0379
      5 C         -13.6607  -57.5518    0.5127 C.ar      1 MOL    -0.0471
      6 C         -13.0671  -56.3400    0.1456 C.ar      1 MOL     0.0037
      7 C         -13.0777  -55.2475    1.0008 C.ar      1 MOL     0.0044
      8 C         -13.6801  -55.3319    2.2574 C.ar      1 MOL    -0.0391
      9 C         -14.3243  -56.5374    2.6104 C.ar      1 MOL     0.0044
     10 C         -14.3090  -57.6383    1.7420 C.ar      1 MOL     0.0037
     11 C         -13.6265  -54.2189    3.2557 C.3       1 MOL     0.0614
     12 C         -12.3787  -54.5513    4.1058 C.3       1 MOL     0.0185
     13 C         -13.4759  -52.8048    2.6592 C.2       1 MOL     0.0489
     14 O         -14.0608  -52.5579    1.5660 O.co2     1 MOL    -0.5492
     15 O         -12.7732  -51.9759    3.3339 O.co2     1 MOL    -0.5492
     16 H         -13.5976  -62.1604   -0.5978 H         1 MOL     0.0232
     17 H         -12.5793  -61.0598   -1.6003 H         1 MOL     0.0232
     18 H         -14.3751  -60.9608   -1.6956 H         1 MOL     0.0232
     19 H         -14.4742  -60.2130    0.7055 H         1 MOL     0.0299
     20 H         -11.3746  -60.2350    0.5769 H         1 MOL     0.0232
     21 H         -12.4144  -61.3710    1.5172 H         1 MOL     0.0232
     22 H         -12.3756  -59.6201    1.9473 H         1 MOL     0.0232
     23 H         -14.4169  -58.5653   -1.1628 H         1 MOL     0.0316
     24 H         -12.6165  -58.4874   -1.0539 H         1 MOL     0.0316
     25 H         -12.5837  -56.2559   -0.8191 H         1 MOL     0.0620
     26 H         -12.6046  -54.3262    0.6902 H         1 MOL     0.0621
     27 H         -14.8230  -56.6151    3.5670 H         1 MOL     0.0621
     28 H         -14.7961  -58.5578    2.0279 H         1 MOL     0.0620
     29 H         -14.5311  -54.2516    3.9047 H         1 MOL     0.0406
     30 H         -11.4647  -54.4548    3.4827 H         1 MOL     0.0239
     31 H         -12.4252  -55.5879    4.5073 H         1 MOL     0.0239
     32 H         -12.2913  -53.8516    4.9694 H         1 MOL     0.0239
@<TRIPOS>BOND
     1    1    2 1 
     2    1   16 1 
     3    1   17 1 
     4    1   18 1 
     5    2    3 1 
     6    2    4 1 
     7    2   19 1 
     8    3   20 1 
     9    3   21 1 
    10    3   22 1 
    11    4    5 1 
    12    4   23 1 
    13    4   24 1 
    14    5    6 ar
    15    5   10 ar
    16    6    7 ar
    17    6   25 1 
    18    7    8 ar
    19    7   26 1 
    20    8    9 ar
    21    8   11 1 
    22    9   10 ar
    23    9   27 1 
    24   10   28 1 
    25   11   12 1 
    26   11   13 1 
    27   11   29 1 
    28   12   30 1 
    29   12   31 1 
    30   12   32 1 
    31   13   14 ar
    32   13   15 ar
@<TRIPOS>SUBSTRUCTURE
1 MOL         1
@<TRIPOS>MOLECULE
query molecule
   32    32     1     0     0
SMALL
NO_CHARGE

@<TRIPOS>ATOM
      1 C         -39.3308  -59.0716    3.9523 C.3       1 MOL     0.0072
      2 C         -39.0170  -57.8917    4.9015 C.3       1 MOL    -0.0128
      3 C         -37.5199  -57.5077    4.8602 C.3       1 MOL     0.0072
      4 C         -39.9490  -56.6813    4.6599 C.3       1 MOL     0.0379
      5 C         -40.4862  -56.0956    5.9225 C.ar      1 MOL    -0.0471
      6 C         -40.2145  -56.6233    7.1882 C.ar      1 MOL     0.0037
      7 C         -40.7506  -56.0413    8.3345 C.ar      1 MOL     0.0044
      8 C         -41.5779  -54.9133    8.2441 C.ar      1 MOL    -0.0391
      9 C         -41.8564  -54.3866    6.9798 C.ar      1 MOL     0.0044
     10 C         -41.3131  -54.9664    5.8327 C.ar      1 MOL     0.0037
     11 C         -42.1146  -54.3281    9.5069 C.3       1 MOL     0.0614
     12 C         -42.4108  -52.8290    9.3558 C.3       1 MOL     0.0185
     13 C         -43.3930  -55.0383    9.9325 C.2       1 MOL     0.0489
     14 O         -43.2799  -55.7055   10.9986 O.co2     1 MOL    -0.5492
     15 O         -44.4198  -54.9019    9.2132 O.co2     1 MOL    -0.5492
     16 H         -38.7066  -59.9504    4.2203 H         1 MOL     0.0232
     17 H         -39.1154  -58.7904    2.9009 H         1 MOL     0.0232
     18 H         -40.3997  -59.3588    4.0345 H         1 MOL     0.0232
     19 H         -39.2382  -58.2550    5.9396 H         1 MOL     0.0299
     20 H         -37.2290  -57.1730    3.8426 H         1 MOL     0.0232
     21 H         -36.8940  -58.3818    5.1388 H         1 MOL     0.0232
     22 H         -37.3146  -56.6854    5.5770 H         1 MOL     0.0232
     23 H         -40.8300  -57.0099    4.0628 H         1 MOL     0.0316
     24 H         -39.4178  -55.8836    4.1013 H         1 MOL     0.0316
     25 H         -39.5812  -57.4963    7.2721 H         1 MOL     0.0620
     26 H         -40.5213  -56.4665    9.3018 H         1 MOL     0.0621
     27 H         -42.4983  -53.5216    6.8919 H         1 MOL     0.0621
     28 H         -41.5426  -54.5436    4.8639 H         1 MOL     0.0620
     29 H         -41.3593  -54.4540   10.3209 H         1 MOL     0.0406
     30 H         -43.1404  -52.6729    8.5348 H         1 MOL     0.0239
     31 H         -41.4779  -52.2745    9.1128 H         1 MOL     0.0239
     32 H         -42.8318  -52.4172   10.2966 H         1 MOL     0.0239
@<TRIPOS>BOND
     1    1    2 1 
     2    1   16 1 
     3    1   17 1 
     4    1   18 1 
     5    2    3 1 
     6    2    4 1 
     7    2   19 1 
     8    3   20 1 
     9    3   21 1 
    10    3   22 1 
    11    4    5 1 
    12    4   23 1 
    13    4   24 1 
    14    5    6 ar
    15    5   10 ar
    16    6    7 ar
    17    6   25 1 
    18    7    8 ar
    19    7   26 1 
    20    8    9 ar
    21    8   11 1 
    22    9   10 ar
    23    9   27 1 
    24   10   28 1 
    25   11   12 1 
    26   11   13 1 
    27   11   29 1 
    28   12   30 1 
    29   12   31 1 
    30   12   32 1 
    31   13   14 ar
    32   13   15 ar
@<TRIPOS>SUBSTRUCTURE
1 MOL         1
@<TRIPOS>MOLECULE
query molecule
   32    32     1     0     0
SMALL
NO_CHARGE

@<TRIPOS>ATOM
      1 C         -33.5025  -39.3274    4.1049 C.3       1 MOL     0.0072
      2 C         -32.4378  -40.2420    3.4548 C.3       1 MOL    -0.0128
      3 C         -31.4294  -39.4135    2.6260 C.3       1 MOL     0.0072
      4 C         -31.7347  -41.1659    4.4811 C.3       1 MOL     0.0379
      5 C         -32.4812  -42.4491    4.6361 C.ar      1 MOL    -0.0471
      6 C         -32.8267  -42.9166    5.9094 C.ar      1 MOL     0.0037
      7 C         -33.5071  -44.1324    6.0512 C.ar      1 MOL     0.0044
      8 C         -33.8485  -44.8956    4.9206 C.ar      1 MOL    -0.0391
      9 C         -33.5023  -44.4177    3.6504 C.ar      1 MOL     0.0044
     10 C         -32.8286  -43.2058    3.5090 C.ar      1 MOL     0.0037
     11 C         -34.5673  -46.1981    5.1048 C.3       1 MOL     0.0614
     12 C         -35.7340  -46.3232    4.1038 C.3       1 MOL     0.0185
     13 C         -33.5949  -47.3651    4.8915 C.2       1 MOL     0.0489
     14 O         -33.1176  -47.8415    5.9590 O.co2     1 MOL    -0.5492
     15 O         -33.3526  -47.7493    3.7098 O.co2     1 MOL    -0.5492
     16 H         -34.0300  -38.7312    3.3323 H         1 MOL     0.0232
     17 H         -33.0216  -38.6334    4.8241 H         1 MOL     0.0232
     18 H         -34.2466  -39.9410    4.6535 H         1 MOL     0.0232
     19 H         -32.9707  -40.9119    2.7296 H         1 MOL     0.0299
     20 H         -30.8500  -38.7318    3.2819 H         1 MOL     0.0232
     21 H         -31.9660  -38.8065    1.8670 H         1 MOL     0.0232
     22 H         -30.7224  -40.0903    2.1007 H         1 MOL     0.0232
     23 H         -31.6405  -40.6791    5.4702 H         1 MOL     0.0316
     24 H         -30.7217  -41.4341    4.1073 H         1 MOL     0.0316
     25 H         -32.5628  -42.3407    6.7852 H         1 MOL     0.0620
     26 H         -33.7678  -44.4868    7.0385 H         1 MOL     0.0621
     27 H         -33.7640  -44.9900    2.7719 H         1 MOL     0.0621
     28 H         -32.5726  -42.8442    2.5238 H         1 MOL     0.0620
     29 H         -34.9640  -46.2581    6.1488 H         1 MOL     0.0406
     30 H         -35.3341  -46.3142    3.0675 H         1 MOL     0.0239
     31 H         -36.4502  -45.4841    4.2170 H         1 MOL     0.0239
     32 H         -36.2739  -47.2796    4.2635 H         1 MOL     0.0239
@<TRIPOS>BOND
     1    1    2 1 
     2    1   16 1 
     3    1   17 1 
     4    1   18 1 
     5    2    3 1 
     6    2    4 1 
     7    2   19 1 
     8    3   20 1 
     9    3   21 1 
    10    3   22 1 
    11    4    5 1 
    12    4   23 1 
    13    4   24 1 
    14    5    6 ar
    15    5   10 ar
    16    6    7 ar
    17    6   25 1 
    18    7    8 ar
    19    7   26 1 
    20    8    9 ar
    21    8   11 1 
    22    9   10 ar
    23    9   27 1 
    24   10   28 1 
    25   11   12 1 
    26   11   13 1 
    27   11   29 1 
    28   12   30 1 
    29   12   31 1 
    30   12   32 1 
    31   13   14 ar
    32   13   15 ar
@<TRIPOS>SUBSTRUCTURE
1 MOL         1
@<TRIPOS>MOLECULE
query molecule
   32    32     1     0     0
SMALL
NO_CHARGE

@<TRIPOS>ATOM
      1 C         -12.7262  -64.7617   -2.6029 C.3       1 MOL     0.0072
      2 C         -12.3144  -65.4452   -3.9330 C.3       1 MOL    -0.0128
      3 C         -11.6768  -66.8346   -3.6725 C.3       1 MOL     0.0072
      4 C         -13.5028  -65.5511   -4.9198 C.3       1 MOL     0.0379
      5 C         -13.4584  -64.4614   -5.9302 C.ar      1 MOL    -0.0471
      6 C         -13.8261  -63.1555   -5.5882 C.ar      1 MOL     0.0037
      7 C         -13.8276  -62.1558   -6.5616 C.ar      1 MOL     0.0044
      8 C         -13.4567  -62.4466   -7.8872 C.ar      1 MOL    -0.0391
      9 C         -13.0748  -63.7513   -8.2158 C.ar      1 MOL     0.0044
     10 C         -13.0774  -64.7553   -7.2448 C.ar      1 MOL     0.0037
     11 C         -13.5000  -61.3333   -8.8830 C.3       1 MOL     0.0614
     12 C         -12.3358  -61.3910   -9.8772 C.3       1 MOL     0.0185
     13 C         -14.8224  -61.3911   -9.6356 C.2       1 MOL     0.0489
     14 O         -14.9562  -62.1574  -10.6321 O.co2     1 MOL    -0.5492
     15 O         -15.7118  -60.6434   -9.1476 O.co2     1 MOL    -0.5492
     16 H         -11.8513  -64.6651   -1.9284 H         1 MOL     0.0232
     17 H         -13.5052  -65.3667   -2.0872 H         1 MOL     0.0232
     18 H         -13.1398  -63.7502   -2.7984 H         1 MOL     0.0232
     19 H         -11.5296  -64.8128   -4.4208 H         1 MOL     0.0299
     20 H         -12.4161  -67.5144   -3.1984 H         1 MOL     0.0232
     21 H         -10.7996  -66.7384   -2.9998 H         1 MOL     0.0232
     22 H         -11.3430  -67.2890   -4.6292 H         1 MOL     0.0232
     23 H         -14.4696  -65.4941   -4.3815 H         1 MOL     0.0316
     24 H         -13.4513  -66.5101   -5.4791 H         1 MOL     0.0316
     25 H         -14.1061  -62.9218   -4.5733 H         1 MOL     0.0620
     26 H         -14.1172  -61.1510   -6.2946 H         1 MOL     0.0621
     27 H         -12.7813  -63.9848   -9.2300 H         1 MOL     0.0621
     28 H         -12.7900  -65.7631   -7.5107 H         1 MOL     0.0620
     29 H         -13.4557  -60.3565   -8.3322 H         1 MOL     0.0406
     30 H         -12.3980  -62.3276  -10.4706 H         1 MOL     0.0239
     31 H         -11.3624  -61.3676   -9.3462 H         1 MOL     0.0239
     32 H         -12.3873  -60.5288  -10.5750 H         1 MOL     0.0239
@<TRIPOS>BOND
     1    1    2 1 
     2    1   16 1 
     3    1   17 1 
     4    1   18 1 
     5    2    3 1 
     6    2    4 1 
     7    2   19 1 
     8    3   20 1 
     9    3   21 1 
    10    3   22 1 
    11    4    5 1 
    12    4   23 1 
    13    4   24 1 
    14    5    6 ar
    15    5   10 ar
    16    6    7 ar
    17    6   25 1 
    18    7    8 ar
    19    7   26 1 
    20    8    9 ar
    21    8   11 1 
    22    9   10 ar
    23    9   27 1 
    24   10   28 1 
    25   11   12 1 
    26   11   13 1 
    27   11   29 1 
    28   12   30 1 
    29   12   31 1 
    30   12   32 1 
    31   13   14 ar
    32   13   15 ar
@<TRIPOS>SUBSTRUCTURE
1 MOL         1
@<TRIPOS>MOLECULE
query molecule
   32    32     1     0     0
SMALL
NO_CHARGE

@<TRIPOS>ATOM
      1 C         -22.2804  -58.3611  -16.5686 C.3       1 MOL     0.0072
      2 C         -22.0988  -57.6998  -15.1759 C.3       1 MOL    -0.0128
      3 C         -22.9852  -58.3944  -14.1129 C.3       1 MOL     0.0072
      4 C         -20.6107  -57.6680  -14.7659 C.3       1 MOL     0.0379
      5 C         -20.3146  -56.5608  -13.8213 C.ar      1 MOL    -0.0471
      6 C         -20.7771  -56.5688  -12.5051 C.ar      1 MOL     0.0037
      7 C         -20.4547  -55.5220  -11.6411 C.ar      1 MOL     0.0044
      8 C         -19.6556  -54.4554  -12.0795 C.ar      1 MOL    -0.0391
      9 C         -19.2036  -54.4486  -13.4051 C.ar      1 MOL     0.0044
     10 C         -19.5287  -55.4926  -14.2735 C.ar      1 MOL     0.0037
     11 C         -19.3167  -53.3881  -11.0899 C.3       1 MOL     0.0614
     12 C         -17.7900  -53.1972  -11.0333 C.3       1 MOL     0.0185
     13 C         -19.9513  -52.0500  -11.4464 C.2       1 MOL     0.0489
     14 O         -19.8067  -51.6320  -12.6366 O.co2     1 MOL    -0.5492
     15 O         -20.5820  -51.4717  -10.5193 O.co2     1 MOL    -0.5492
     16 H         -23.3425  -58.3040  -16.8871 H         1 MOL     0.0232
     17 H         -21.9752  -59.4274  -16.5355 H         1 MOL     0.0232
     18 H         -21.6571  -57.8376  -17.3246 H         1 MOL     0.0232
     19 H         -22.4371  -56.6368  -15.2724 H         1 MOL     0.0299
     20 H         -22.6992  -59.4607  -14.0042 H         1 MOL     0.0232
     21 H         -24.0529  -58.3408  -14.4136 H         1 MOL     0.0232
     22 H         -22.8701  -57.8919  -13.1293 H         1 MOL     0.0232
     23 H         -19.9794  -57.4970  -15.6666 H         1 MOL     0.0316
     24 H         -20.3121  -58.6257  -14.2940 H         1 MOL     0.0316
     25 H         -21.3838  -57.3902  -12.1531 H         1 MOL     0.0620
     26 H         -20.8177  -55.5356  -10.6238 H         1 MOL     0.0621
     27 H         -18.5942  -53.6296  -13.7623 H         1 MOL     0.0621
     28 H         -19.1706  -55.4807  -15.2929 H         1 MOL     0.0620
     29 H         -19.6792  -53.6853  -10.0768 H         1 MOL     0.0406
     30 H         -17.4059  -52.8767  -12.0249 H         1 MOL     0.0239
     31 H         -17.2914  -54.1473  -10.7493 H         1 MOL     0.0239
     32 H         -17.5281  -52.4208  -10.2841 H         1 MOL     0.0239
@<TRIPOS>BOND
     1    1    2 1 
     2    1   16 1 
     3    1   17 1 
     4    1   18 1 
     5    2    3 1 
     6    2    4 1 
     7    2   19 1 
     8    3   20 1 
     9    3   21 1 
    10    3   22 1 
    11    4    5 1 
    12    4   23 1 
    13    4   24 1 
    14    5    6 ar
    15    5   10 ar
    16    6    7 ar
    17    6   25 1 
    18    7    8 ar
    19    7   26 1 
    20    8    9 ar
    21    8   11 1 
    22    9   10 ar
    23    9   27 1 
    24   10   28 1 
    25   11   12 1 
    26   11   13 1 
    27   11   29 1 
    28   12   30 1 
    29   12   31 1 
    30   12   32 1 
    31   13   14 ar
    32   13   15 ar
@<TRIPOS>SUBSTRUCTURE
1 MOL         1
@<TRIPOS>MOLECULE
query molecule
   32    32     1     0     0
SMALL
NO_CHARGE

@<TRIPOS>ATOM
      1 C         -30.3246  -63.6556    2.5714 C.3       1 MOL     0.0072
      2 C         -30.5674  -63.3045    4.0636 C.3       1 MOL    -0.0128
      3 C         -29.2297  -63.0831    4.8023 C.3       1 MOL     0.0072
      4 C         -31.5079  -62.0910    4.2369 C.3       1 MOL     0.0379
      5 C         -32.9273  -62.5225    4.1457 C.ar      1 MOL    -0.0471
      6 C         -33.7087  -62.5414    5.3057 C.ar      1 MOL     0.0037
      7 C         -35.0486  -62.9367    5.2336 C.ar      1 MOL     0.0044
      8 C         -35.6207  -63.3043    4.0104 C.ar      1 MOL    -0.0391
      9 C         -34.8203  -63.2950    2.8543 C.ar      1 MOL     0.0044
     10 C         -33.4849  -62.8982    2.9198 C.ar      1 MOL     0.0037
     11 C         -37.0462  -63.7254    3.8412 C.3       1 MOL     0.0614
     12 C         -37.6085  -64.3717    5.1217 C.3       1 MOL     0.0185
     13 C         -37.8936  -62.5068    3.4538 C.2       1 MOL     0.0489
     14 O         -38.1881  -62.4143    2.2247 O.co2     1 MOL    -0.5492
     15 O         -38.2025  -61.6943    4.3701 O.co2     1 MOL    -0.5492
     16 H         -29.6927  -64.5697    2.4897 H         1 MOL     0.0232
     17 H         -29.8161  -62.8248    2.0503 H         1 MOL     0.0232
     18 H         -31.2920  -63.8598    2.0683 H         1 MOL     0.0232
     19 H         -31.0648  -64.1827    4.5487 H         1 MOL     0.0299
     20 H         -28.6768  -62.2286    4.3626 H         1 MOL     0.0232
     21 H         -28.5959  -63.9910    4.7263 H         1 MOL     0.0232
     22 H         -29.4131  -62.8726    5.8771 H         1 MOL     0.0232
     23 H         -31.3183  -61.3222    3.4633 H         1 MOL     0.0316
     24 H         -31.3709  -61.6447    5.2452 H         1 MOL     0.0316
     25 H         -33.2780  -62.2530    6.2538 H         1 MOL     0.0620
     26 H         -35.6506  -62.9505    6.1330 H         1 MOL     0.0621
     27 H         -35.2451  -63.5940    1.9062 H         1 MOL     0.0621
     28 H         -32.8872  -62.8807    2.0226 H         1 MOL     0.0620
     29 H         -37.1093  -64.4776    3.0166 H         1 MOL     0.0406
     30 H         -37.5589  -63.6489    5.9632 H         1 MOL     0.0239
     31 H         -37.0216  -65.2723    5.3895 H         1 MOL     0.0239
     32 H         -38.6672  -64.6636    4.9681 H         1 MOL     0.0239
@<TRIPOS>BOND
     1    1    2 1 
     2    1   16 1 
     3    1   17 1 
     4    1   18 1 
     5    2    3 1 
     6    2    4 1 
     7    2   19 1 
     8    3   20 1 
     9    3   21 1 
    10    3   22 1 
    11    4    5 1 
    12    4   23 1 
    13    4   24 1 
    14    5    6 ar
    15    5   10 ar
    16    6    7 ar
    17    6   25 1 
    18    7    8 ar
    19    7   26 1 
    20    8    9 ar
    21    8   11 1 
    22    9   10 ar
    23    9   27 1 
    24   10   28 1 
    25   11   12 1 
    26   11   13 1 
    27   11   29 1 
    28   12   30 1 
    29   12   31 1 
    30   12   32 1 
    31   13   14 ar
    32   13   15 ar
@<TRIPOS>SUBSTRUCTURE
1 MOL         1
@<TRIPOS>MOLECULE
query molecule
   32    32     1     0     0
SMALL
NO_CHARGE

@<TRIPOS>ATOM
      1 C         -26.5948  -52.5779  -15.3695 C.3       1 MOL     0.0072
      2 C         -27.9924  -53.2027  -15.5942 C.3       1 MOL    -0.0128
      3 C         -28.3892  -53.0852  -17.0890 C.3       1 MOL     0.0072
      4 C         -28.0518  -54.6569  -15.0567 C.3       1 MOL     0.0379
      5 C         -29.4573  -55.0423  -14.7553 C.ar      1 MOL    -0.0471
      6 C         -29.9565  -54.8536  -13.4613 C.ar      1 MOL     0.0037
      7 C         -31.2992  -55.1189  -13.1815 C.ar      1 MOL     0.0044
      8 C         -32.1600  -55.5737  -14.1870 C.ar      1 MOL    -0.0391
      9 C         -31.6303  -55.8387  -15.4641 C.ar      1 MOL     0.0044
     10 C         -30.2864  -55.5743  -15.7465 C.ar      1 MOL     0.0037
     11 C         -33.6233  -55.7851  -13.9737 C.3       1 MOL     0.0614
     12 C         -33.8682  -56.6744  -12.7509 C.3       1 MOL     0.0185
     13 C         -34.4009  -54.4707  -13.8531 C.2       1 MOL     0.0489
     14 O         -35.4657  -54.4758  -14.5394 O.co2     1 MOL    -0.5492
     15 O         -33.9521  -53.5273  -13.1428 O.co2     1 MOL    -0.5492
     16 H         -26.5815  -51.5163  -15.6918 H         1 MOL     0.0232
     17 H         -25.8278  -53.1365  -15.9445 H         1 MOL     0.0232
     18 H         -26.3286  -52.6223  -14.2915 H         1 MOL     0.0232
     19 H         -28.7200  -52.5979  -14.9951 H         1 MOL     0.0299
     20 H         -27.6843  -53.6659  -17.7208 H         1 MOL     0.0232
     21 H         -28.3526  -52.0222  -17.4096 H         1 MOL     0.0232
     22 H         -29.4162  -53.4704  -17.2557 H         1 MOL     0.0232
     23 H         -27.4845  -54.7348  -14.1046 H         1 MOL     0.0316
     24 H         -27.6325  -55.3704  -15.7927 H         1 MOL     0.0316
     25 H         -29.3030  -54.4863  -12.6845 H         1 MOL     0.0620
     26 H         -31.6800  -54.9585  -12.1831 H         1 MOL     0.0621
     27 H         -32.2666  -56.2433  -16.2392 H         1 MOL     0.0621
     28 H         -29.8924  -55.7702  -16.7336 H         1 MOL     0.0620
     29 H         -34.0366  -56.3290  -14.8633 H         1 MOL     0.0406
     30 H         -33.4772  -56.1967  -11.8293 H         1 MOL     0.0239
     31 H         -33.3584  -57.6535  -12.8829 H         1 MOL     0.0239
     32 H         -34.9554  -56.8594  -12.6221 H         1 MOL     0.0239
@<TRIPOS>BOND
     1    1    2 1 
     2    1   16 1 
     3    1   17 1 
     4    1   18 1 
     5    2    3 1 
     6    2    4 1 
     7    2   19 1 
     8    3   20 1 
     9    3   21 1 
    10    3   22 1 
    11    4    5 1 
    12    4   23 1 
    13    4   24 1 
    14    5    6 ar
    15    5   10 ar
    16    6    7 ar
    17    6   25 1 
    18    7    8 ar
    19    7   26 1 
    20    8    9 ar
    21    8   11 1 
    22    9   10 ar
    23    9   27 1 
    24   10   28 1 
    25   11   12 1 
    26   11   13 1 
    27   11   29 1 
    28   12   30 1 
    29   12   31 1 
    30   12   32 1 
    31   13   14 ar
    32   13   15 ar
@<TRIPOS>SUBSTRUCTURE
1 MOL         1
@<TRIPOS>MOLECULE
query molecule
   32    32     1     0     0
SMALL
NO_CHARGE

@<TRIPOS>ATOM
      1 C         -14.5524  -47.4422    2.7873 C.3       1 MOL     0.0072
      2 C         -14.7544  -47.7911    1.2913 C.3       1 MOL    -0.0128
      3 C         -15.3302  -49.2163    1.1122 C.3       1 MOL     0.0072
      4 C         -15.6201  -46.7475    0.5468 C.3       1 MOL     0.0379
      5 C         -14.8082  -45.5374    0.2325 C.ar      1 MOL    -0.0471
      6 C         -13.9367  -45.5326   -0.8646 C.ar      1 MOL     0.0037
      7 C         -13.1985  -44.3852   -1.1697 C.ar      1 MOL     0.0044
      8 C         -13.3248  -43.2298   -0.3848 C.ar      1 MOL    -0.0391
      9 C         -14.1911  -43.2450    0.7215 C.ar      1 MOL     0.0044
     10 C         -14.9272  -44.3930    1.0283 C.ar      1 MOL     0.0037
     11 C         -12.5712  -41.9712   -0.6736 C.3       1 MOL     0.0614
     12 C         -11.0880  -42.2219   -0.4041 C.3       1 MOL     0.0185
     13 C         -12.7789  -41.5336   -2.1176 C.2       1 MOL     0.0489
     14 O         -13.7823  -40.7798   -2.2639 O.co2     1 MOL    -0.5492
     15 O         -11.9683  -41.9153   -3.0098 O.co2     1 MOL    -0.5492
     16 H         -13.8764  -48.1817    3.2660 H         1 MOL     0.0232
     17 H         -15.5268  -47.4583    3.3200 H         1 MOL     0.0232
     18 H         -14.1065  -46.4317    2.8934 H         1 MOL     0.0232
     19 H         -13.7453  -47.7874    0.8032 H         1 MOL     0.0299
     20 H         -16.3328  -49.2887    1.5792 H         1 MOL     0.0232
     21 H         -14.6605  -49.9646    1.5890 H         1 MOL     0.0232
     22 H         -15.4199  -49.4598    0.0336 H         1 MOL     0.0232
     23 H         -16.4960  -46.4452    1.1516 H         1 MOL     0.0316
     24 H         -15.9674  -47.1646   -0.4232 H         1 MOL     0.0316
     25 H         -13.8387  -46.4156   -1.4788 H         1 MOL     0.0620
     26 H         -12.5294  -44.3851   -2.0184 H         1 MOL     0.0621
     27 H         -14.2903  -42.3649    1.3400 H         1 MOL     0.0621
     28 H         -15.5901  -44.3973    1.8813 H         1 MOL     0.0620
     29 H         -12.9177  -41.1568    0.0078 H         1 MOL     0.0406
     30 H         -10.7121  -43.0127   -1.0878 H         1 MOL     0.0239
     31 H         -10.9454  -42.5594    0.6423 H         1 MOL     0.0239
     32 H         -10.4990  -41.2976   -0.5700 H         1 MOL     0.0239
@<TRIPOS>BOND
     1    1    2 1 
     2    1   16 1 
     3    1   17 1 
     4    1   18 1 
     5    2    3 1 
     6    2    4 1 
     7    2   19 1 
     8    3   20 1 
     9    3   21 1 
    10    3   22 1 
    11    4    5 1 
    12    4   23 1 
    13    4   24 1 
    14    5    6 ar
    15    5   10 ar
    16    6    7 ar
    17    6   25 1 
    18    7    8 ar
    19    7   26 1 
    20    8    9 ar
    21    8   11 1 
    22    9   10 ar
    23    9   27 1 
    24   10   28 1 
    25   11   12 1 
    26   11   13 1 
    27   11   29 1 
    28   12   30 1 
    29   12   31 1 
    30   12   32 1 
    31   13   14 ar
    32   13   15 ar
@<TRIPOS>SUBSTRUCTURE
1 MOL         1
@<TRIPOS>MOLECULE
query molecule
   32    32     1     0     0
SMALL
NO_CHARGE

@<TRIPOS>ATOM
      1 C         -42.8109  -65.0364    1.2717 C.3       1 MOL     0.0072
      2 C         -44.2316  -64.8058    0.6913 C.3       1 MOL    -0.0128
      3 C         -44.9383  -63.6703    1.4796 C.3       1 MOL     0.0072
      4 C         -44.2244  -64.5562   -0.8420 C.3       1 MOL     0.0379
      5 C         -44.1479  -65.8493   -1.5853 C.ar      1 MOL    -0.0471
      6 C         -45.3322  -66.5336   -1.8829 C.ar      1 MOL     0.0037
      7 C         -45.2832  -67.7631   -2.5422 C.ar      1 MOL     0.0044
      8 C         -44.0556  -68.3439   -2.9327 C.ar      1 MOL    -0.0391
      9 C         -42.8847  -67.6305   -2.6506 C.ar      1 MOL     0.0044
     10 C         -42.9276  -66.3944   -1.9923 C.ar      1 MOL     0.0037
     11 C         -44.0769  -69.6907   -3.6032 C.3       1 MOL     0.0614
     12 C         -45.0090  -69.6030   -4.8394 C.3       1 MOL     0.0185
     13 C         -42.7062  -70.2706   -3.9995 C.2       1 MOL     0.0489
     14 O         -41.9670  -70.6445   -3.0350 O.co2     1 MOL    -0.5492
     15 O         -42.4243  -70.4057   -5.2305 O.co2     1 MOL    -0.5492
     16 H         -42.8780  -65.2284    2.3644 H         1 MOL     0.0232
     17 H         -42.1848  -64.1339    1.1131 H         1 MOL     0.0232
     18 H         -42.3220  -65.9029    0.7865 H         1 MOL     0.0232
     19 H         -44.8302  -65.7356    0.8683 H         1 MOL     0.0299
     20 H         -44.3990  -62.7083    1.3387 H         1 MOL     0.0232
     21 H         -44.9734  -63.9045    2.5595 H         1 MOL     0.0232
     22 H         -45.9800  -63.5418    1.1105 H         1 MOL     0.0232
     23 H         -43.3703  -63.9204   -1.1418 H         1 MOL     0.0316
     24 H         -45.1740  -64.0667   -1.1501 H         1 MOL     0.0316
     25 H         -46.2839  -66.1080   -1.5975 H         1 MOL     0.0620
     26 H         -46.2100  -68.2787   -2.7586 H         1 MOL     0.0621
     27 H         -41.9279  -68.0446   -2.9399 H         1 MOL     0.0621
     28 H         -42.0087  -65.8639   -1.7863 H         1 MOL     0.0620
     29 H         -44.5496  -70.4285   -2.8985 H         1 MOL     0.0406
     30 H         -44.6003  -68.8918   -5.5853 H         1 MOL     0.0239
     31 H         -46.0157  -69.2458   -4.5327 H         1 MOL     0.0239
     32 H         -45.1235  -70.5976   -5.3159 H         1 MOL     0.0239
@<TRIPOS>BOND
     1    1    2 1 
     2    1   16 1 
     3    1   17 1 
     4    1   18 1 
     5    2    3 1 
     6    2    4 1 
     7    2   19 1 
     8    3   20 1 
     9    3   21 1 
    10    3   22 1 
    11    4    5 1 
    12    4   23 1 
    13    4   24 1 
    14    5    6 ar
    15    5   10 ar
    16    6    7 ar
    17    6   25 1 
    18    7    8 ar
    19    7   26 1 
    20    8    9 ar
    21    8   11 1 
    22    9   10 ar
    23    9   27 1 
    24   10   28 1 
    25   11   12 1 
    26   11   13 1 
    27   11   29 1 
    28   12   30 1 
    29   12   31 1 
    30   12   32 1 
    31   13   14 ar
    32   13   15 ar
@<TRIPOS>SUBSTRUCTURE
1 MOL         1
@<TRIPOS>MOLECULE
query molecule
   32    32     1     0     0
SMALL
NO_CHARGE

@<TRIPOS>ATOM
      1 C         -21.9909  -69.6251    9.5673 C.3       1 MOL     0.0072
      2 C         -22.9441  -70.7879    9.9526 C.3       1 MOL    -0.0128
      3 C         -23.1983  -71.7439    8.7540 C.3       1 MOL     0.0072
      4 C         -22.4574  -71.5512   11.2128 C.3       1 MOL     0.0379
      5 C         -23.5591  -71.7600   12.1973 C.ar      1 MOL    -0.0471
      6 C         -24.8156  -72.2412   11.8269 C.ar      1 MOL     0.0037
      7 C         -25.8171  -72.4044   12.7833 C.ar      1 MOL     0.0044
      8 C         -25.5917  -72.1006   14.1430 C.ar      1 MOL    -0.0391
      9 C         -24.3261  -71.6232   14.5043 C.ar      1 MOL     0.0044
     10 C         -23.3204  -71.4608   13.5457 C.ar      1 MOL     0.0037
     11 C         -26.7272  -72.2807   15.0994 C.3       1 MOL     0.0614
     12 C         -27.3125  -73.6999   14.9833 C.3       1 MOL     0.0185
     13 C         -26.4025  -72.0565   16.5677 C.2       1 MOL     0.0489
     14 O         -27.1011  -71.1571   17.1158 O.co2     1 MOL    -0.5492
     15 O         -25.5193  -72.7929   17.0858 O.co2     1 MOL    -0.5492
     16 H         -22.4036  -69.0561    8.7084 H         1 MOL     0.0232
     17 H         -20.9913  -70.0169    9.2873 H         1 MOL     0.0232
     18 H         -21.8720  -68.9307   10.4269 H         1 MOL     0.0232
     19 H         -23.9255  -70.3160   10.2223 H         1 MOL     0.0299
     20 H         -22.2489  -72.2245    8.4393 H         1 MOL     0.0232
     21 H         -23.6125  -71.1791    7.8941 H         1 MOL     0.0232
     22 H         -23.9218  -72.5363    9.0445 H         1 MOL     0.0232
     23 H         -21.6767  -70.9536   11.7326 H         1 MOL     0.0316
     24 H         -22.0337  -72.5375   10.9357 H         1 MOL     0.0316
     25 H         -25.0167  -72.4841   10.7937 H         1 MOL     0.0620
     26 H         -26.7860  -72.7747   12.4752 H         1 MOL     0.0621
     27 H         -24.1202  -71.3737   15.5366 H         1 MOL     0.0621
     28 H         -22.3470  -71.0900   13.8355 H         1 MOL     0.0620
     29 H         -27.5340  -71.5485   14.8236 H         1 MOL     0.0406
     30 H         -26.5670  -74.4781   15.2449 H         1 MOL     0.0239
     31 H         -27.6556  -73.8757   13.9428 H         1 MOL     0.0239
     32 H         -28.1790  -73.7963   15.6705 H         1 MOL     0.0239
@<TRIPOS>BOND
     1    1    2 1 
     2    1   16 1 
     3    1   17 1 
     4    1   18 1 
     5    2    3 1 
     6    2    4 1 
     7    2   19 1 
     8    3   20 1 
     9    3   21 1 
    10    3   22 1 
    11    4    5 1 
    12    4   23 1 
    13    4   24 1 
    14    5    6 ar
    15    5   10 ar
    16    6    7 ar
    17    6   25 1 
    18    7    8 ar
    19    7   26 1 
    20    8    9 ar
    21    8   11 1 
    22    9   10 ar
    23    9   27 1 
    24   10   28 1 
    25   11   12 1 
    26   11   13 1 
    27   11   29 1 
    28   12   30 1 
    29   12   31 1 
    30   12   32 1 
    31   13   14 ar
    32   13   15 ar
@<TRIPOS>SUBSTRUCTURE
1 MOL         1
@<TRIPOS>MOLECULE
query molecule
   32    32     1     0     0
SMALL
NO_CHARGE

@<TRIPOS>ATOM
      1 C         -16.5960  -56.1351   -4.4486 C.3       1 MOL     0.0072
      2 C         -17.4087  -55.6998   -5.6985 C.3       1 MOL    -0.0128
      3 C         -18.8594  -55.3234   -5.3002 C.3       1 MOL     0.0072
      4 C         -16.6511  -54.5958   -6.4820 C.3       1 MOL     0.0379
      5 C         -17.2555  -54.3708   -7.8229 C.ar      1 MOL    -0.0471
      6 C         -18.2164  -53.3654   -7.9674 C.ar      1 MOL     0.0037
      7 C         -18.8176  -53.1496   -9.1999 C.ar      1 MOL     0.0044
      8 C         -18.4789  -53.9160  -10.3218 C.ar      1 MOL    -0.0391
      9 C         -17.4863  -54.9097  -10.1780 C.ar      1 MOL     0.0044
     10 C         -16.8764  -55.1373   -8.9321 C.ar      1 MOL     0.0037
     11 C         -19.1523  -53.6925  -11.6445 C.3       1 MOL     0.0614
     12 C         -20.2054  -54.7973  -11.8629 C.3       1 MOL     0.0185
     13 C         -19.8131  -52.3135  -11.7745 C.2       1 MOL     0.0489
     14 O         -20.9583  -52.1137  -11.2638 O.co2     1 MOL    -0.5492
     15 O         -19.1169  -51.4743  -12.4121 O.co2     1 MOL    -0.5492
     16 H         -17.1140  -56.9639   -3.9239 H         1 MOL     0.0232
     17 H         -16.4768  -55.2824   -3.7497 H         1 MOL     0.0232
     18 H         -15.5880  -56.4854   -4.7581 H         1 MOL     0.0232
     19 H         -17.4735  -56.5887   -6.3788 H         1 MOL     0.0299
     20 H         -18.8544  -54.4541   -4.6100 H         1 MOL     0.0232
     21 H         -19.3590  -56.1771   -4.7987 H         1 MOL     0.0232
     22 H         -19.4446  -55.0513   -6.2048 H         1 MOL     0.0232
     23 H         -15.5952  -54.9028   -6.6498 H         1 MOL     0.0316
     24 H         -16.6671  -53.6332   -5.9330 H         1 MOL     0.0316
     25 H         -18.4968  -52.7578   -7.1208 H         1 MOL     0.0620
     26 H         -19.5660  -52.3774   -9.3059 H         1 MOL     0.0621
     27 H         -17.1851  -55.5106  -11.0263 H         1 MOL     0.0621
     28 H         -16.1187  -55.9016   -8.8251 H         1 MOL     0.0620
     29 H         -18.3809  -53.7627  -12.4537 H         1 MOL     0.0406
     30 H         -21.0223  -54.7082  -11.1163 H         1 MOL     0.0239
     31 H         -19.7430  -55.8016  -11.7618 H         1 MOL     0.0239
     32 H         -20.6446  -54.7159  -12.8792 H         1 MOL     0.0239
@<TRIPOS>BOND
     1    1    2 1 
     2    1   16 1 
     3    1   17 1 
     4    1   18 1 
     5    2    3 1 
     6    2    4 1 
     7    2   19 1 
     8    3   20 1 
     9    3   21 1 
    10    3   22 1 
    11    4    5 1 
    12    4   23 1 
    13    4   24 1 
    14    5    6 ar
    15    5   10 ar
    16    6    7 ar
    17    6   25 1 
    18    7    8 ar
    19    7   26 1 
    20    8    9 ar
    21    8   11 1 
    22    9   10 ar
    23    9   27 1 
    24   10   28 1 
    25   11   12 1 
    26   11   13 1 
    27   11   29 1 
    28   12   30 1 
    29   12   31 1 
    30   12   32 1 
    31   13   14 ar
    32   13   15 ar
@<TRIPOS>SUBSTRUCTURE
1 MOL         1
@<TRIPOS>MOLECULE
query molecule
   32    32     1     0     0
SMALL
NO_CHARGE

@<TRIPOS>ATOM
      1 C          -3.5266  -36.6389  -10.5077 C.3       1 MOL     0.0072
      2 C          -4.8281  -37.4435  -10.7516 C.3       1 MOL    -0.0128
      3 C          -5.5223  -37.0141  -12.0713 C.3       1 MOL     0.0072
      4 C          -4.5789  -38.9744  -10.7335 C.3       1 MOL     0.0379
      5 C          -5.8041  -39.6764  -10.2596 C.ar      1 MOL    -0.0471
      6 C          -5.9998  -39.8700   -8.8903 C.ar      1 MOL     0.0037
      7 C          -7.1518  -40.5090   -8.4345 C.ar      1 MOL     0.0044
      8 C          -8.1328  -40.9561   -9.3278 C.ar      1 MOL    -0.0391
      9 C          -7.9156  -40.7776  -10.7081 C.ar      1 MOL     0.0044
     10 C          -6.7564  -40.1462  -11.1719 C.ar      1 MOL     0.0037
     11 C          -9.3936  -41.6395   -8.8876 C.3       1 MOL     0.0614
     12 C          -8.9823  -42.9819   -8.2488 C.3       1 MOL     0.0185
     13 C         -10.2104  -40.8118   -7.8996 C.2       1 MOL     0.0489
     14 O          -9.7023  -40.6248   -6.7594 O.co2     1 MOL    -0.5492
     15 O         -11.3532  -40.4064   -8.2620 O.co2     1 MOL    -0.5492
     16 H          -3.7355  -35.5475  -10.5133 H         1 MOL     0.0232
     17 H          -2.7827  -36.8572  -11.3027 H         1 MOL     0.0232
     18 H          -3.0804  -36.9040   -9.5256 H         1 MOL     0.0232
     19 H          -5.5273  -37.2000   -9.9105 H         1 MOL     0.0299
     20 H          -4.8728  -37.2558  -12.9392 H         1 MOL     0.0232
     21 H          -5.7275  -35.9248  -12.0685 H         1 MOL     0.0232
     22 H          -6.4831  -37.5584  -12.1869 H         1 MOL     0.0232
     23 H          -3.7527  -39.2314  -10.0379 H         1 MOL     0.0316
     24 H          -4.3362  -39.3400  -11.7494 H         1 MOL     0.0316
     25 H          -5.2564  -39.5208   -8.1901 H         1 MOL     0.0620
     26 H          -7.2909  -40.6591   -7.3713 H         1 MOL     0.0621
     27 H          -8.6469  -41.1358  -11.4202 H         1 MOL     0.0621
     28 H          -6.5977  -40.0178  -12.2333 H         1 MOL     0.0620
     29 H         -10.0230  -41.8633   -9.7767 H         1 MOL     0.0406
     30 H          -8.3041  -42.8181   -7.3834 H         1 MOL     0.0239
     31 H          -8.4494  -43.6043   -8.9981 H         1 MOL     0.0239
     32 H          -9.8795  -43.5317   -7.9005 H         1 MOL     0.0239
@<TRIPOS>BOND
     1    1    2 1 
     2    1   16 1 
     3    1   17 1 
     4    1   18 1 
     5    2    3 1 
     6    2    4 1 
     7    2   19 1 
     8    3   20 1 
     9    3   21 1 
    10    3   22 1 
    11    4    5 1 
    12    4   23 1 
    13    4   24 1 
    14    5    6 ar
    15    5   10 ar
    16    6    7 ar
    17    6   25 1 
    18    7    8 ar
    19    7   26 1 
    20    8    9 ar
    21    8   11 1 
    22    9   10 ar
    23    9   27 1 
    24   10   28 1 
    25   11   12 1 
    26   11   13 1 
    27   11   29 1 
    28   12   30 1 
    29   12   31 1 
    30   12   32 1 
    31   13   14 ar
    32   13   15 ar
@<TRIPOS>SUBSTRUCTURE
1 MOL         1
@<TRIPOS>MOLECULE
query molecule
   32    32     1     0     0
SMALL
NO_CHARGE

@<TRIPOS>ATOM
      1 C         -30.0125  -62.6613  -20.6440 C.3       1 MOL     0.0072
      2 C         -29.7024  -61.2289  -20.1297 C.3       1 MOL    -0.0128
      3 C         -28.8443  -60.4480  -21.1590 C.3       1 MOL     0.0072
      4 C         -31.0133  -60.4944  -19.7498 C.3       1 MOL     0.0379
      5 C         -30.7638  -59.4020  -18.7723 C.ar      1 MOL    -0.0471
      6 C         -30.5752  -59.7013  -17.4203 C.ar      1 MOL     0.0037
      7 C         -30.3405  -58.6720  -16.5105 C.ar      1 MOL     0.0044
      8 C         -30.2862  -57.3313  -16.9307 C.ar      1 MOL    -0.0391
      9 C         -30.5013  -57.0422  -18.2826 C.ar      1 MOL     0.0044
     10 C         -30.7342  -58.0704  -19.2000 C.ar      1 MOL     0.0037
     11 C         -29.9692  -56.2891  -15.9053 C.3       1 MOL     0.0614
     12 C         -29.3082  -55.0349  -16.5085 C.3       1 MOL     0.0185
     13 C         -31.2412  -55.8996  -15.1651 C.2       1 MOL     0.0489
     14 O         -31.4254  -56.5324  -14.0876 O.co2     1 MOL    -0.5492
     15 O         -31.9675  -55.0109  -15.6892 O.co2     1 MOL    -0.5492
     16 H         -29.0732  -63.2079  -20.8683 H         1 MOL     0.0232
     17 H         -30.6245  -62.6137  -21.5698 H         1 MOL     0.0232
     18 H         -30.5796  -63.2296  -19.8767 H         1 MOL     0.0232
     19 H         -29.0962  -61.3413  -19.1952 H         1 MOL     0.0299
     20 H         -29.4044  -60.3239  -22.1105 H         1 MOL     0.0232
     21 H         -27.9056  -61.0003  -21.3750 H         1 MOL     0.0232
     22 H         -28.5826  -59.4433  -20.7685 H         1 MOL     0.0232
     23 H         -31.7135  -61.2073  -19.2617 H         1 MOL     0.0316
     24 H         -31.4998  -60.0607  -20.6457 H         1 MOL     0.0316
     25 H         -30.6072  -60.7260  -17.0819 H         1 MOL     0.0620
     26 H         -30.1932  -58.9086  -15.4655 H         1 MOL     0.0621
     27 H         -30.4774  -56.0160  -18.6209 H         1 MOL     0.0621
     28 H         -30.8897  -57.8356  -20.2427 H         1 MOL     0.0620
     29 H         -29.2484  -56.7194  -15.1647 H         1 MOL     0.0406
     30 H         -29.9757  -54.5760  -17.2685 H         1 MOL     0.0239
     31 H         -28.3504  -55.3084  -17.0002 H         1 MOL     0.0239
     32 H         -29.0994  -54.2856  -15.7173 H         1 MOL     0.0239
@<TRIPOS>BOND
     1    1    2 1 
     2    1   16 1 
     3    1   17 1 
     4    1   18 1 
     5    2    3 1 
     6    2    4 1 
     7    2   19 1 
     8    3   20 1 
     9    3   21 1 
    10    3   22 1 
    11    4    5 1 
    12    4   23 1 
    13    4   24 1 
    14    5    6 ar
    15    5   10 ar
    16    6    7 ar
    17    6   25 1 
    18    7    8 ar
    19    7   26 1 
    20    8    9 ar
    21    8   11 1 
    22    9   10 ar
    23    9   27 1 
    24   10   28 1 
    25   11   12 1 
    26   11   13 1 
    27   11   29 1 
    28   12   30 1 
    29   12   31 1 
    30   12   32 1 
    31   13   14 ar
    32   13   15 ar
@<TRIPOS>SUBSTRUCTURE
1 MOL         1
@<TRIPOS>MOLECULE
query molecule
   32    32     1     0     0
SMALL
NO_CHARGE

@<TRIPOS>ATOM
      1 C         -24.6559  -37.6993    0.3963 C.3       1 MOL     0.0072
      2 C         -24.3981  -37.1473    1.8226 C.3       1 MOL    -0.0128
      3 C         -25.0997  -35.7795    2.0317 C.3       1 MOL     0.0072
      4 C         -24.8135  -38.1531    2.9235 C.3       1 MOL     0.0379
      5 C         -23.6500  -38.9023    3.4756 C.ar      1 MOL    -0.0471
      6 C         -22.7532  -39.5906    2.6535 C.ar      1 MOL     0.0037
      7 C         -21.7059  -40.3261    3.2142 C.ar      1 MOL     0.0044
      8 C         -21.5425  -40.3952    4.6057 C.ar      1 MOL    -0.0391
      9 C         -22.4181  -39.6629    5.4276 C.ar      1 MOL     0.0044
     10 C         -23.4667  -38.9275    4.8674 C.ar      1 MOL     0.0037
     11 C         -20.4933  -41.2409    5.2575 C.3       1 MOL     0.0614
     12 C         -20.6082  -42.7003    4.7654 C.3       1 MOL     0.0185
     13 C         -19.0854  -40.7458    4.9581 C.2       1 MOL     0.0489
     14 O         -18.7002  -40.7783    3.7554 O.co2     1 MOL    -0.5492
     15 O         -18.3990  -40.4061    5.9651 O.co2     1 MOL    -0.5492
     16 H         -24.3014  -36.9769   -0.3683 H         1 MOL     0.0232
     17 H         -25.7425  -37.8705    0.2433 H         1 MOL     0.0232
     18 H         -24.1228  -38.6620    0.2509 H         1 MOL     0.0232
     19 H         -23.2976  -36.9708    1.9291 H         1 MOL     0.0299
     20 H         -26.2008  -35.8921    1.9465 H         1 MOL     0.0232
     21 H         -24.7573  -35.0479    1.2706 H         1 MOL     0.0232
     22 H         -24.8627  -35.3783    3.0400 H         1 MOL     0.0232
     23 H         -25.5475  -38.8859    2.5317 H         1 MOL     0.0316
     24 H         -25.2708  -37.6031    3.7761 H         1 MOL     0.0316
     25 H         -22.8726  -39.5562    1.5801 H         1 MOL     0.0620
     26 H         -21.0184  -40.8550    2.5685 H         1 MOL     0.0621
     27 H         -22.2870  -39.6789    6.5005 H         1 MOL     0.0621
     28 H         -24.1425  -38.3806    5.5094 H         1 MOL     0.0620
     29 H         -20.6383  -41.2185    6.3651 H         1 MOL     0.0406
     30 H         -20.4090  -42.7472    3.6728 H         1 MOL     0.0239
     31 H         -21.6266  -43.0953    4.9605 H         1 MOL     0.0239
     32 H         -19.8673  -43.3461    5.2807 H         1 MOL     0.0239
@<TRIPOS>BOND
     1    1    2 1 
     2    1   16 1 
     3    1   17 1 
     4    1   18 1 
     5    2    3 1 
     6    2    4 1 
     7    2   19 1 
     8    3   20 1 
     9    3   21 1 
    10    3   22 1 
    11    4    5 1 
    12    4   23 1 
    13    4   24 1 
    14    5    6 ar
    15    5   10 ar
    16    6    7 ar
    17    6   25 1 
    18    7    8 ar
    19    7   26 1 
    20    8    9 ar
    21    8   11 1 
    22    9   10 ar
    23    9   27 1 
    24   10   28 1 
    25   11   12 1 
    26   11   13 1 
    27   11   29 1 
    28   12   30 1 
    29   12   31 1 
    30   12   32 1 
    31   13   14 ar
    32   13   15 ar
@<TRIPOS>SUBSTRUCTURE
1 MOL         1
@<TRIPOS>MOLECULE
query molecule
   32    32     1     0     0
SMALL
NO_CHARGE

@<TRIPOS>ATOM
      1 C         -25.0777  -68.8627    0.0465 C.3       1 MOL     0.0072
      2 C         -23.6113  -68.7206   -0.4397 C.3       1 MOL    -0.0128
      3 C         -23.2681  -67.2425   -0.7582 C.3       1 MOL     0.0072
      4 C         -22.6482  -69.3991    0.5534 C.3       1 MOL     0.0379
      5 C         -21.2870  -69.6382    0.0122 C.ar      1 MOL    -0.0471
      6 C         -20.2256  -69.6468    0.9269 C.ar      1 MOL     0.0037
      7 C         -18.9185  -69.8192    0.4935 C.ar      1 MOL     0.0044
      8 C         -18.6466  -70.0300   -0.8629 C.ar      1 MOL    -0.0391
      9 C         -19.7069  -70.0380   -1.7813 C.ar      1 MOL     0.0044
     10 C         -21.0194  -69.8427   -1.3432 C.ar      1 MOL     0.0037
     11 C         -17.2506  -70.2684   -1.3530 C.3       1 MOL     0.0614
     12 C         -16.4570  -68.9444   -1.2431 C.3       1 MOL     0.0185
     13 C         -16.5695  -71.3766   -0.5281 C.2       1 MOL     0.0489
     14 O         -17.2995  -72.2800   -0.0164 O.co2     1 MOL    -0.5492
     15 O         -15.3131  -71.2893   -0.3907 O.co2     1 MOL    -0.5492
     16 H         -25.7778  -68.4432   -0.7047 H         1 MOL     0.0232
     17 H         -25.2215  -68.3250    1.0071 H         1 MOL     0.0232
     18 H         -25.3250  -69.9344    0.2009 H         1 MOL     0.0232
     19 H         -23.5382  -69.2897   -1.4034 H         1 MOL     0.0299
     20 H         -23.3318  -66.6258    0.1627 H         1 MOL     0.0232
     21 H         -23.9876  -66.8371   -1.5019 H         1 MOL     0.0232
     22 H         -22.2440  -67.1562   -1.1755 H         1 MOL     0.0232
     23 H         -23.0544  -70.3951    0.8385 H         1 MOL     0.0316
     24 H         -22.5459  -68.7775    1.4685 H         1 MOL     0.0316
     25 H         -20.4229  -69.5016    1.9796 H         1 MOL     0.0620
     26 H         -18.1063  -69.8034    1.2053 H         1 MOL     0.0621
     27 H         -19.5076  -70.1972   -2.8318 H         1 MOL     0.0621
     28 H         -21.8296  -69.8495   -2.0582 H         1 MOL     0.0620
     29 H         -17.2719  -70.5610   -2.4301 H         1 MOL     0.0406
     30 H         -16.2887  -68.6777   -0.1789 H         1 MOL     0.0239
     31 H         -16.9994  -68.1116   -1.7369 H         1 MOL     0.0239
     32 H         -15.4658  -69.0504   -1.7380 H         1 MOL     0.0239
@<TRIPOS>BOND
     1    1    2 1 
     2    1   16 1 
     3    1   17 1 
     4    1   18 1 
     5    2    3 1 
     6    2    4 1 
     7    2   19 1 
     8    3   20 1 
     9    3   21 1 
    10    3   22 1 
    11    4    5 1 
    12    4   23 1 
    13    4   24 1 
    14    5    6 ar
    15    5   10 ar
    16    6    7 ar
    17    6   25 1 
    18    7    8 ar
    19    7   26 1 
    20    8    9 ar
    21    8   11 1 
    22    9   10 ar
    23    9   27 1 
    24   10   28 1 
    25   11   12 1 
    26   11   13 1 
    27   11   29 1 
    28   12   30 1 
    29   12   31 1 
    30   12   32 1 
    31   13   14 ar
    32   13   15 ar
@<TRIPOS>SUBSTRUCTURE
1 MOL         1
@<TRIPOS>MOLECULE
query molecule
   32    32     1     0     0
SMALL
NO_CHARGE

@<TRIPOS>ATOM
      1 C         -25.0824  -47.5106   -9.0150 C.3       1 MOL     0.0072
      2 C         -23.8863  -46.5970   -9.3591 C.3       1 MOL    -0.0128
      3 C         -22.5562  -47.3912   -9.4152 C.3       1 MOL     0.0072
      4 C         -24.1812  -45.8070  -10.6500 C.3       1 MOL     0.0379
      5 C         -23.3073  -44.6087  -10.7179 C.ar      1 MOL    -0.0471
      6 C         -23.6185  -43.4445  -10.0064 C.ar      1 MOL     0.0037
      7 C         -22.8124  -42.3076  -10.1451 C.ar      1 MOL     0.0044
      8 C         -21.6916  -42.3315  -10.9987 C.ar      1 MOL    -0.0391
      9 C         -21.3674  -43.5223  -11.6633 C.ar      1 MOL     0.0044
     10 C         -22.1704  -44.6526  -11.5303 C.ar      1 MOL     0.0037
     11 C         -20.8919  -41.0787  -11.1807 C.3       1 MOL     0.0614
     12 C         -19.5793  -41.2336  -10.3873 C.3       1 MOL     0.0185
     13 C         -20.5930  -40.7795  -12.6577 C.2       1 MOL     0.0489
     14 O         -21.3324  -39.9152  -13.2148 O.co2     1 MOL    -0.5492
     15 O         -19.6431  -41.4197  -13.1931 O.co2     1 MOL    -0.5492
     16 H         -24.9000  -48.0207   -8.0433 H         1 MOL     0.0232
     17 H         -25.2294  -48.2797   -9.7983 H         1 MOL     0.0232
     18 H         -26.0107  -46.9073   -8.9218 H         1 MOL     0.0232
     19 H         -23.7927  -45.8477   -8.5310 H         1 MOL     0.0299
     20 H         -22.6077  -48.1659  -10.2099 H         1 MOL     0.0232
     21 H         -22.3596  -47.8929   -8.4451 H         1 MOL     0.0232
     22 H         -21.7082  -46.7115   -9.6431 H         1 MOL     0.0232
     23 H         -25.2326  -45.4512  -10.6550 H         1 MOL     0.0316
     24 H         -23.9969  -46.4300  -11.5472 H         1 MOL     0.0316
     25 H         -24.4839  -43.4192   -9.3608 H         1 MOL     0.0620
     26 H         -23.0599  -41.4047   -9.6052 H         1 MOL     0.0621
     27 H         -20.4951  -43.5600  -12.2994 H         1 MOL     0.0621
     28 H         -21.9222  -45.5592  -12.0620 H         1 MOL     0.0620
     29 H         -21.4506  -40.2151  -10.7500 H         1 MOL     0.0406
     30 H         -19.0019  -42.1054  -10.7611 H         1 MOL     0.0239
     31 H         -19.8086  -41.3960   -9.3132 H         1 MOL     0.0239
     32 H         -18.9554  -40.3215  -10.4848 H         1 MOL     0.0239
@<TRIPOS>BOND
     1    1    2 1 
     2    1   16 1 
     3    1   17 1 
     4    1   18 1 
     5    2    3 1 
     6    2    4 1 
     7    2   19 1 
     8    3   20 1 
     9    3   21 1 
    10    3   22 1 
    11    4    5 1 
    12    4   23 1 
    13    4   24 1 
    14    5    6 ar
    15    5   10 ar
    16    6    7 ar
    17    6   25 1 
    18    7    8 ar
    19    7   26 1 
    20    8    9 ar
    21    8   11 1 
    22    9   10 ar
    23    9   27 1 
    24   10   28 1 
    25   11   12 1 
    26   11   13 1 
    27   11   29 1 
    28   12   30 1 
    29   12   31 1 
    30   12   32 1 
    31   13   14 ar
    32   13   15 ar
@<TRIPOS>SUBSTRUCTURE
1 MOL         1
@<TRIPOS>MOLECULE
query molecule
   32    32     1     0     0
SMALL
NO_CHARGE

@<TRIPOS>ATOM
      1 C         -23.4846  -30.1702    4.7971 C.3       1 MOL     0.0072
      2 C         -24.5786  -31.2760    4.7237 C.3       1 MOL    -0.0128
      3 C         -25.7963  -30.8701    5.5901 C.3       1 MOL     0.0072
      4 C         -24.9052  -31.6714    3.2574 C.3       1 MOL     0.0379
      5 C         -25.4365  -33.0621    3.1476 C.ar      1 MOL    -0.0471
      6 C         -24.5383  -34.1350    3.1217 C.ar      1 MOL     0.0037
      7 C         -25.0080  -35.4468    3.1025 C.ar      1 MOL     0.0044
      8 C         -26.3843  -35.7119    3.0761 C.ar      1 MOL    -0.0391
      9 C         -27.2842  -34.6332    3.0369 C.ar      1 MOL     0.0044
     10 C         -26.8122  -33.3137    3.0688 C.ar      1 MOL     0.0037
     11 C         -26.9131  -37.1119    3.0771 C.3       1 MOL     0.0614
     12 C         -26.2093  -37.8936    1.9474 C.3       1 MOL     0.0185
     13 C         -26.6637  -37.8108    4.4148 C.2       1 MOL     0.0489
     14 O         -25.4714  -38.0547    4.7540 O.co2     1 MOL    -0.5492
     15 O         -27.6999  -38.1228    5.0705 O.co2     1 MOL    -0.5492
     16 H         -23.2694  -29.9185    5.8597 H         1 MOL     0.0232
     17 H         -23.8170  -29.2505    4.2758 H         1 MOL     0.0232
     18 H         -22.5473  -30.5317    4.3256 H         1 MOL     0.0232
     19 H         -24.1322  -32.1731    5.2094 H         1 MOL     0.0299
     20 H         -26.2925  -29.9691    5.1777 H         1 MOL     0.0232
     21 H         -25.4631  -30.6364    6.6304 H         1 MOL     0.0232
     22 H         -26.5345  -31.6950    5.6381 H         1 MOL     0.0232
     23 H         -23.9671  -31.6491    2.6510 H         1 MOL     0.0316
     24 H         -25.6388  -30.9815    2.8123 H         1 MOL     0.0316
     25 H         -23.4760  -33.9469    3.1237 H         1 MOL     0.0620
     26 H         -24.3033  -36.2672    3.1155 H         1 MOL     0.0621
     27 H         -28.3474  -34.8228    2.9877 H         1 MOL     0.0621
     28 H         -27.5112  -32.4905    3.0417 H         1 MOL     0.0620
     29 H         -28.0132  -37.0992    2.8910 H         1 MOL     0.0406
     30 H         -25.1140  -37.9147    2.1286 H         1 MOL     0.0239
     31 H         -26.3950  -37.3945    0.9729 H         1 MOL     0.0239
     32 H         -26.5835  -38.9357    1.8944 H         1 MOL     0.0239
@<TRIPOS>BOND
     1    1    2 1 
     2    1   16 1 
     3    1   17 1 
     4    1   18 1 
     5    2    3 1 
     6    2    4 1 
     7    2   19 1 
     8    3   20 1 
     9    3   21 1 
    10    3   22 1 
    11    4    5 1 
    12    4   23 1 
    13    4   24 1 
    14    5    6 ar
    15    5   10 ar
    16    6    7 ar
    17    6   25 1 
    18    7    8 ar
    19    7   26 1 
    20    8    9 ar
    21    8   11 1 
    22    9   10 ar
    23    9   27 1 
    24   10   28 1 
    25   11   12 1 
    26   11   13 1 
    27   11   29 1 
    28   12   30 1 
    29   12   31 1 
    30   12   32 1 
    31   13   14 ar
    32   13   15 ar
@<TRIPOS>SUBSTRUCTURE
1 MOL         1
@<TRIPOS>MOLECULE
query molecule
   32    32     1     0     0
SMALL
NO_CHARGE

@<TRIPOS>ATOM
      1 C          -7.1533  -73.4716    9.6429 C.3       1 MOL     0.0072
      2 C          -6.9469  -74.1333    8.2526 C.3       1 MOL    -0.0128
      3 C          -5.9341  -75.3046    8.3498 C.3       1 MOL     0.0072
      4 C          -8.3107  -74.5465    7.6410 C.3       1 MOL     0.0379
      5 C          -8.1933  -74.8061    6.1849 C.ar      1 MOL    -0.0471
      6 C          -8.1816  -76.1099    5.6867 C.ar      1 MOL     0.0037
      7 C          -8.0472  -76.3360    4.3132 C.ar      1 MOL     0.0044
      8 C          -7.9347  -75.2589    3.4138 C.ar      1 MOL    -0.0391
      9 C          -7.9869  -73.9641    3.9353 C.ar      1 MOL     0.0044
     10 C          -8.1015  -73.7344    5.3026 C.ar      1 MOL     0.0037
     11 C          -7.7662  -75.5622    1.9559 C.3       1 MOL     0.0614
     12 C          -9.1488  -75.9395    1.3833 C.3       1 MOL     0.0185
     13 C          -7.1847  -74.4197    1.1345 C.2       1 MOL     0.0489
     14 O          -5.9973  -74.5727    0.7250 O.co2     1 MOL    -0.5492
     15 O          -7.9123  -73.4062    0.9400 O.co2     1 MOL    -0.5492
     16 H          -6.1827  -73.1343   10.0626 H         1 MOL     0.0232
     17 H          -7.6100  -74.1970   10.3495 H         1 MOL     0.0232
     18 H          -7.8267  -72.5929    9.5571 H         1 MOL     0.0232
     19 H          -6.4987  -73.3544    7.5840 H         1 MOL     0.0299
     20 H          -6.3329  -76.1017    9.0129 H         1 MOL     0.0232
     21 H          -4.9714  -74.9465    8.7725 H         1 MOL     0.0232
     22 H          -5.7427  -75.7389    7.3472 H         1 MOL     0.0232
     23 H          -9.0387  -73.7138    7.7602 H         1 MOL     0.0316
     24 H          -8.7094  -75.4562    8.1289 H         1 MOL     0.0316
     25 H          -8.2648  -76.9462    6.3639 H         1 MOL     0.0620
     26 H          -8.0245  -77.3493    3.9368 H         1 MOL     0.0621
     27 H          -7.9273  -73.1235    3.2600 H         1 MOL     0.0621
     28 H          -8.1200  -72.7200    5.6745 H         1 MOL     0.0620
     29 H          -7.0838  -76.4414    1.8375 H         1 MOL     0.0406
     30 H          -9.8489  -75.0801    1.4609 H         1 MOL     0.0239
     31 H          -9.5764  -76.7884    1.9586 H         1 MOL     0.0239
     32 H          -9.0696  -76.2442    0.3194 H         1 MOL     0.0239
@<TRIPOS>BOND
     1    1    2 1 
     2    1   16 1 
     3    1   17 1 
     4    1   18 1 
     5    2    3 1 
     6    2    4 1 
     7    2   19 1 
     8    3   20 1 
     9    3   21 1 
    10    3   22 1 
    11    4    5 1 
    12    4   23 1 
    13    4   24 1 
    14    5    6 ar
    15    5   10 ar
    16    6    7 ar
    17    6   25 1 
    18    7    8 ar
    19    7   26 1 
    20    8    9 ar
    21    8   11 1 
    22    9   10 ar
    23    9   27 1 
    24   10   28 1 
    25   11   12 1 
    26   11   13 1 
    27   11   29 1 
    28   12   30 1 
    29   12   31 1 
    30   12   32 1 
    31   13   14 ar
    32   13   15 ar
@<TRIPOS>SUBSTRUCTURE
1 MOL         1
@<TRIPOS>MOLECULE
query molecule
   32    32     1     0     0
SMALL
NO_CHARGE

@<TRIPOS>ATOM
      1 C         -26.6822  -51.5041  -18.7967 C.3       1 MOL     0.0072
      2 C         -28.0089  -50.8713  -18.2921 C.3       1 MOL    -0.0128
      3 C         -28.1032  -51.0389  -16.7529 C.3       1 MOL     0.0072
      4 C         -28.1414  -49.4008  -18.7645 C.3       1 MOL     0.0379
      5 C         -29.5540  -48.9380  -18.8024 C.ar      1 MOL    -0.0471
      6 C         -30.2315  -48.5648  -17.6395 C.ar      1 MOL     0.0037
      7 C         -31.5640  -48.1505  -17.7062 C.ar      1 MOL     0.0044
      8 C         -32.2360  -48.0984  -18.9374 C.ar      1 MOL    -0.0391
      9 C         -31.5402  -48.4396  -20.1037 C.ar      1 MOL     0.0044
     10 C         -30.2108  -48.8604  -20.0376 C.ar      1 MOL     0.0037
     11 C         -33.6857  -47.7335  -18.9450 C.3       1 MOL     0.0614
     12 C         -34.0645  -46.7343  -20.0387 C.3       1 MOL     0.0185
     13 C         -34.4307  -49.0433  -19.1412 C.2       1 MOL     0.0489
     14 O         -34.8317  -49.5379  -18.0508 O.co2     1 MOL    -0.5492
     15 O         -34.4529  -49.5754  -20.2812 O.co2     1 MOL    -0.5492
     16 H         -26.6282  -52.5724  -18.4974 H         1 MOL     0.0232
     17 H         -25.8101  -50.9727  -18.3607 H         1 MOL     0.0232
     18 H         -26.6177  -51.4436  -19.9029 H         1 MOL     0.0232
     19 H         -28.8463  -51.4502  -18.7577 H         1 MOL     0.0299
     20 H         -27.2810  -50.4890  -16.2500 H         1 MOL     0.0232
     21 H         -28.0348  -52.1121  -16.4766 H         1 MOL     0.0232
     22 H         -29.0730  -50.6411  -16.3851 H         1 MOL     0.0232
     23 H         -27.7533  -49.3137  -19.8057 H         1 MOL     0.0316
     24 H         -27.5649  -48.7205  -18.1081 H         1 MOL     0.0316
     25 H         -29.7271  -48.6001  -16.6851 H         1 MOL     0.0620
     26 H         -32.0873  -47.8768  -16.8003 H         1 MOL     0.0621
     27 H         -32.0434  -48.3896  -21.0593 H         1 MOL     0.0621
     28 H         -29.6894  -49.1276  -20.9454 H         1 MOL     0.0620
     29 H         -33.9880  -47.3310  -17.9502 H         1 MOL     0.0406
     30 H         -33.8392  -47.1470  -21.0449 H         1 MOL     0.0239
     31 H         -33.4954  -45.7892  -19.9066 H         1 MOL     0.0239
     32 H         -35.1484  -46.5013  -19.9820 H         1 MOL     0.0239
@<TRIPOS>BOND
     1    1    2 1 
     2    1   16 1 
     3    1   17 1 
     4    1   18 1 
     5    2    3 1 
     6    2    4 1 
     7    2   19 1 
     8    3   20 1 
     9    3   21 1 
    10    3   22 1 
    11    4    5 1 
    12    4   23 1 
    13    4   24 1 
    14    5    6 ar
    15    5   10 ar
    16    6    7 ar
    17    6   25 1 
    18    7    8 ar
    19    7   26 1 
    20    8    9 ar
    21    8   11 1 
    22    9   10 ar
    23    9   27 1 
    24   10   28 1 
    25   11   12 1 
    26   11   13 1 
    27   11   29 1 
    28   12   30 1 
    29   12   31 1 
    30   12   32 1 
    31   13   14 ar
    32   13   15 ar
@<TRIPOS>SUBSTRUCTURE
1 MOL         1
@<TRIPOS>MOLECULE
query molecule
   32    32     1     0     0
SMALL
NO_CHARGE

@<TRIPOS>ATOM
      1 C         -26.9572  -27.5855   12.1775 C.3       1 MOL     0.0072
      2 C         -27.1226  -27.2548   10.6783 C.3       1 MOL    -0.0128
      3 C         -28.4510  -26.5301   10.3922 C.3       1 MOL     0.0072
      4 C         -25.9066  -26.4921   10.0985 C.3       1 MOL     0.0379
      5 C         -25.6140  -26.9039    8.6906 C.ar      1 MOL    -0.0471
      6 C         -24.7713  -26.0997    7.9063 C.ar      1 MOL     0.0037
      7 C         -24.4745  -26.4660    6.5875 C.ar      1 MOL     0.0044
      8 C         -25.0179  -27.6378    6.0328 C.ar      1 MOL    -0.0391
      9 C         -25.8384  -28.4421    6.8255 C.ar      1 MOL     0.0044
     10 C         -26.1407  -28.0739    8.1330 C.ar      1 MOL     0.0037
     11 C         -24.7006  -27.9863    4.6124 C.3       1 MOL     0.0614
     12 C         -23.9330  -29.3228    4.5828 C.3       1 MOL     0.0185
     13 C         -25.9744  -28.0985    3.7601 C.2       1 MOL     0.0489
     14 O         -26.2960  -27.0343    3.1538 O.co2     1 MOL    -0.5492
     15 O         -26.5791  -29.2088    3.7118 O.co2     1 MOL    -0.5492
     16 H         -27.8094  -28.2075   12.5245 H         1 MOL     0.0232
     17 H         -26.9257  -26.6556   12.7811 H         1 MOL     0.0232
     18 H         -26.0169  -28.1516   12.3435 H         1 MOL     0.0232
     19 H         -27.1583  -28.2373   10.1387 H         1 MOL     0.0299
     20 H         -28.4834  -25.5574   10.9259 H         1 MOL     0.0232
     21 H         -29.3022  -27.1526   10.7405 H         1 MOL     0.0232
     22 H         -28.5734  -26.3415    9.3049 H         1 MOL     0.0232
     23 H         -24.9974  -26.7271   10.6965 H         1 MOL     0.0316
     24 H         -26.0773  -25.3968   10.1218 H         1 MOL     0.0316
     25 H         -24.3485  -25.1941    8.3185 H         1 MOL     0.0620
     26 H         -23.8244  -25.8421    5.9902 H         1 MOL     0.0621
     27 H         -26.2568  -29.3534    6.4208 H         1 MOL     0.0621
     28 H         -26.7905  -28.6968    8.7344 H         1 MOL     0.0620
     29 H         -24.0441  -27.1951    4.1719 H         1 MOL     0.0406
     30 H         -24.5613  -30.1266    5.0211 H         1 MOL     0.0239
     31 H         -22.9834  -29.2599    5.1537 H         1 MOL     0.0239
     32 H         -23.7016  -29.5944    3.5317 H         1 MOL     0.0239
@<TRIPOS>BOND
     1    1    2 1 
     2    1   16 1 
     3    1   17 1 
     4    1   18 1 
     5    2    3 1 
     6    2    4 1 
     7    2   19 1 
     8    3   20 1 
     9    3   21 1 
    10    3   22 1 
    11    4    5 1 
    12    4   23 1 
    13    4   24 1 
    14    5    6 ar
    15    5   10 ar
    16    6    7 ar
    17    6   25 1 
    18    7    8 ar
    19    7   26 1 
    20    8    9 ar
    21    8   11 1 
    22    9   10 ar
    23    9   27 1 
    24   10   28 1 
    25   11   12 1 
    26   11   13 1 
    27   11   29 1 
    28   12   30 1 
    29   12   31 1 
    30   12   32 1 
    31   13   14 ar
    32   13   15 ar
@<TRIPOS>SUBSTRUCTURE
1 MOL         1
@<TRIPOS>MOLECULE
query molecule
   32    32     1     0     0
SMALL
NO_CHARGE

@<TRIPOS>ATOM
      1 C         -21.2605  -26.8962   13.2636 C.3       1 MOL     0.0072
      2 C         -22.0942  -28.0529   13.8833 C.3       1 MOL    -0.0128
      3 C         -21.2092  -28.8788   14.8558 C.3       1 MOL     0.0072
      4 C         -23.4054  -27.5528   14.5602 C.3       1 MOL     0.0379
      5 C         -24.5092  -27.4408   13.5605 C.ar      1 MOL    -0.0471
      6 C         -25.4273  -28.4824   13.3812 C.ar      1 MOL     0.0037
      7 C         -26.4047  -28.3990   12.3856 C.ar      1 MOL     0.0044
      8 C         -26.4696  -27.2711   11.5532 C.ar      1 MOL    -0.0391
      9 C         -25.5947  -26.2019   11.7834 C.ar      1 MOL     0.0044
     10 C         -24.6248  -26.2858   12.7813 C.ar      1 MOL     0.0037
     11 C         -27.4488  -27.2670   10.4242 C.3       1 MOL     0.0614
     12 C         -28.3438  -26.0261   10.4882 C.3       1 MOL     0.0185
     13 C         -26.6716  -27.2810    9.1027 C.2       1 MOL     0.0489
     14 O         -26.6044  -28.4083    8.5323 O.co2     1 MOL    -0.5492
     15 O         -26.1501  -26.2000    8.7122 O.co2     1 MOL    -0.5492
     16 H         -20.3470  -27.2784   12.7575 H         1 MOL     0.0232
     17 H         -20.9484  -26.1825   14.0570 H         1 MOL     0.0232
     18 H         -21.8736  -26.3457   12.5224 H         1 MOL     0.0232
     19 H         -22.3899  -28.7426   13.0517 H         1 MOL     0.0299
     20 H         -20.8795  -28.2488   15.7086 H         1 MOL     0.0232
     21 H         -20.3035  -29.2439   14.3238 H         1 MOL     0.0232
     22 H         -21.7626  -29.7541   15.2521 H         1 MOL     0.0232
     23 H         -23.2511  -26.5599   15.0287 H         1 MOL     0.0316
     24 H         -23.7367  -28.2750   15.3364 H         1 MOL     0.0316
     25 H         -25.3707  -29.3635   14.0045 H         1 MOL     0.0620
     26 H         -27.1007  -29.2127   12.2422 H         1 MOL     0.0621
     27 H         -25.6558  -25.3104   11.1750 H         1 MOL     0.0621
     28 H         -23.9483  -25.4608   12.9460 H         1 MOL     0.0620
     29 H         -28.0832  -28.1825   10.4766 H         1 MOL     0.0406
     30 H         -27.7281  -25.1039   10.4076 H         1 MOL     0.0239
     31 H         -28.8970  -25.9937   11.4499 H         1 MOL     0.0239
     32 H         -29.0764  -26.0326    9.6548 H         1 MOL     0.0239
@<TRIPOS>BOND
     1    1    2 1 
     2    1   16 1 
     3    1   17 1 
     4    1   18 1 
     5    2    3 1 
     6    2    4 1 
     7    2   19 1 
     8    3   20 1 
     9    3   21 1 
    10    3   22 1 
    11    4    5 1 
    12    4   23 1 
    13    4   24 1 
    14    5    6 ar
    15    5   10 ar
    16    6    7 ar
    17    6   25 1 
    18    7    8 ar
    19    7   26 1 
    20    8    9 ar
    21    8   11 1 
    22    9   10 ar
    23    9   27 1 
    24   10   28 1 
    25   11   12 1 
    26   11   13 1 
    27   11   29 1 
    28   12   30 1 
    29   12   31 1 
    30   12   32 1 
    31   13   14 ar
    32   13   15 ar
@<TRIPOS>SUBSTRUCTURE
1 MOL         1
@<TRIPOS>MOLECULE
query molecule
   32    32     1     0     0
SMALL
NO_CHARGE

@<TRIPOS>ATOM
      1 C          -9.3158  -50.8813   10.5801 C.3       1 MOL     0.0072
      2 C         -10.0224  -49.5488   10.2087 C.3       1 MOL    -0.0128
      3 C          -9.7906  -48.4744   11.3045 C.3       1 MOL     0.0072
      4 C          -9.6101  -49.0768    8.7920 C.3       1 MOL     0.0379
      5 C         -10.6876  -48.2681    8.1604 C.ar      1 MOL    -0.0471
      6 C         -11.8492  -48.8888    7.6879 C.ar      1 MOL     0.0037
      7 C         -12.8605  -48.1308    7.0966 C.ar      1 MOL     0.0044
      8 C         -12.7214  -46.7402    6.9725 C.ar      1 MOL    -0.0391
      9 C         -11.5471  -46.1272    7.4273 C.ar      1 MOL     0.0044
     10 C         -10.5358  -46.8848    8.0217 C.ar      1 MOL     0.0037
     11 C         -13.8497  -45.9789    6.3633 C.3       1 MOL     0.0614
     12 C         -14.1128  -44.6713    7.1359 C.3       1 MOL     0.0185
     13 C         -13.5708  -45.6558    4.8990 C.2       1 MOL     0.0489
     14 O         -14.5823  -45.7364    4.1434 O.co2     1 MOL    -0.5492
     15 O         -12.4090  -45.2922    4.5691 O.co2     1 MOL    -0.5492
     16 H          -9.6736  -51.2440   11.5670 H         1 MOL     0.0232
     17 H          -8.2166  -50.7382   10.6327 H         1 MOL     0.0232
     18 H          -9.5371  -51.6581    9.8180 H         1 MOL     0.0232
     19 H         -11.1213  -49.7651   10.1778 H         1 MOL     0.0299
     20 H          -8.7067  -48.2473   11.3979 H         1 MOL     0.0232
     21 H         -10.1550  -48.8437   12.2872 H         1 MOL     0.0232
     22 H         -10.3291  -47.5368   11.0573 H         1 MOL     0.0232
     23 H          -9.4484  -49.9594    8.1356 H         1 MOL     0.0316
     24 H          -8.6842  -48.4709    8.8280 H         1 MOL     0.0316
     25 H         -11.9642  -49.9585    7.7827 H         1 MOL     0.0620
     26 H         -13.7562  -48.6140    6.7347 H         1 MOL     0.0621
     27 H         -11.4251  -45.0582    7.3207 H         1 MOL     0.0621
     28 H          -9.6370  -46.3998    8.3733 H         1 MOL     0.0620
     29 H         -14.7805  -46.5966    6.4064 H         1 MOL     0.0406
     30 H         -13.2087  -44.0276    7.1356 H         1 MOL     0.0239
     31 H         -14.3807  -44.8994    8.1910 H         1 MOL     0.0239
     32 H         -14.9503  -44.1066    6.6758 H         1 MOL     0.0239
@<TRIPOS>BOND
     1    1    2 1 
     2    1   16 1 
     3    1   17 1 
     4    1   18 1 
     5    2    3 1 
     6    2    4 1 
     7    2   19 1 
     8    3   20 1 
     9    3   21 1 
    10    3   22 1 
    11    4    5 1 
    12    4   23 1 
    13    4   24 1 
    14    5    6 ar
    15    5   10 ar
    16    6    7 ar
    17    6   25 1 
    18    7    8 ar
    19    7   26 1 
    20    8    9 ar
    21    8   11 1 
    22    9   10 ar
    23    9   27 1 
    24   10   28 1 
    25   11   12 1 
    26   11   13 1 
    27   11   29 1 
    28   12   30 1 
    29   12   31 1 
    30   12   32 1 
    31   13   14 ar
    32   13   15 ar
@<TRIPOS>SUBSTRUCTURE
1 MOL         1
@<TRIPOS>MOLECULE
query molecule
   32    32     1     0     0
SMALL
NO_CHARGE

@<TRIPOS>ATOM
      1 C         -55.8290  -68.5399  -12.9072 C.3       1 MOL     0.0072
      2 C         -54.8120  -69.1883  -11.9399 C.3       1 MOL    -0.0128
      3 C         -55.4386  -70.3407  -11.1122 C.3       1 MOL     0.0072
      4 C         -53.5459  -69.6386  -12.7095 C.3       1 MOL     0.0379
      5 C         -52.3566  -69.2703  -11.9000 C.ar      1 MOL    -0.0471
      6 C         -51.7945  -70.1920  -11.0145 C.ar      1 MOL     0.0037
      7 C         -50.6952  -69.8243  -10.2352 C.ar      1 MOL     0.0044
      8 C         -50.1528  -68.5327  -10.3370 C.ar      1 MOL    -0.0391
      9 C         -50.7034  -67.6345  -11.2577 C.ar      1 MOL     0.0044
     10 C         -51.8049  -67.9931  -12.0298 C.ar      1 MOL     0.0037
     11 C         -49.0180  -68.1729   -9.4388 C.3       1 MOL     0.0614
     12 C         -47.7746  -67.7805  -10.2439 C.3       1 MOL     0.0185
     13 C         -49.4222  -67.0209   -8.5310 C.2       1 MOL     0.0489
     14 O         -49.8297  -65.9261   -9.0270 O.co2     1 MOL    -0.5492
     15 O         -49.3226  -67.3187   -7.3052 O.co2     1 MOL    -0.5492
     16 H         -56.7106  -68.1665  -12.3471 H         1 MOL     0.0232
     17 H         -56.1712  -69.2807  -13.6590 H         1 MOL     0.0232
     18 H         -55.3574  -67.6859  -13.4382 H         1 MOL     0.0232
     19 H         -54.4957  -68.3893  -11.2207 H         1 MOL     0.0299
     20 H         -55.7739  -71.1596  -11.7828 H         1 MOL     0.0232
     21 H         -56.3147  -69.9730  -10.5378 H         1 MOL     0.0232
     22 H         -54.6955  -70.7531  -10.3974 H         1 MOL     0.0232
     23 H         -53.4653  -69.1000  -13.6761 H         1 MOL     0.0316
     24 H         -53.5409  -70.7301  -12.8832 H         1 MOL     0.0316
     25 H         -52.2127  -71.1847  -10.9315 H         1 MOL     0.0620
     26 H         -50.2659  -70.5399   -9.5487 H         1 MOL     0.0621
     27 H         -50.2737  -66.6492  -11.3646 H         1 MOL     0.0621
     28 H         -52.2319  -67.2877  -12.7263 H         1 MOL     0.0620
     29 H         -48.7573  -69.0542   -8.7992 H         1 MOL     0.0406
     30 H         -47.9992  -66.8806  -10.8528 H         1 MOL     0.0239
     31 H         -47.4639  -68.6044  -10.9203 H         1 MOL     0.0239
     32 H         -46.9342  -67.5441   -9.5570 H         1 MOL     0.0239
@<TRIPOS>BOND
     1    1    2 1 
     2    1   16 1 
     3    1   17 1 
     4    1   18 1 
     5    2    3 1 
     6    2    4 1 
     7    2   19 1 
     8    3   20 1 
     9    3   21 1 
    10    3   22 1 
    11    4    5 1 
    12    4   23 1 
    13    4   24 1 
    14    5    6 ar
    15    5   10 ar
    16    6    7 ar
    17    6   25 1 
    18    7    8 ar
    19    7   26 1 
    20    8    9 ar
    21    8   11 1 
    22    9   10 ar
    23    9   27 1 
    24   10   28 1 
    25   11   12 1 
    26   11   13 1 
    27   11   29 1 
    28   12   30 1 
    29   12   31 1 
    30   12   32 1 
    31   13   14 ar
    32   13   15 ar
@<TRIPOS>SUBSTRUCTURE
1 MOL         1
@<TRIPOS>MOLECULE
query molecule
   32    32     1     0     0
SMALL
NO_CHARGE

@<TRIPOS>ATOM
      1 C         -25.6316  -72.2362   15.9433 C.3       1 MOL     0.0072
      2 C         -25.2868  -72.3202   14.4333 C.3       1 MOL    -0.0128
      3 C         -26.5635  -72.2481   13.5477 C.3       1 MOL     0.0072
      4 C         -24.2286  -71.2561   14.0595 C.3       1 MOL     0.0379
      5 C         -23.4584  -71.6660   12.8568 C.ar      1 MOL    -0.0471
      6 C         -22.4765  -72.6574   12.9546 C.ar      1 MOL     0.0037
      7 C         -21.7589  -73.0422   11.8196 C.ar      1 MOL     0.0044
      8 C         -22.0110  -72.4367   10.5759 C.ar      1 MOL    -0.0391
      9 C         -22.9889  -71.4367   10.4920 C.ar      1 MOL     0.0044
     10 C         -23.7080  -71.0541   11.6254 C.ar      1 MOL     0.0037
     11 C         -21.2258  -72.9076    9.3953 C.3       1 MOL     0.0614
     12 C         -22.1614  -73.2002    8.2037 C.3       1 MOL     0.0185
     13 C         -20.1861  -71.8829    8.9480 C.2       1 MOL     0.0489
     14 O         -19.0712  -72.3740    8.5957 O.co2     1 MOL    -0.5492
     15 O         -20.5338  -70.6706    8.8650 O.co2     1 MOL    -0.5492
     16 H         -26.3380  -73.0443   16.2244 H         1 MOL     0.0232
     17 H         -26.0950  -71.2561   16.1796 H         1 MOL     0.0232
     18 H         -24.7076  -72.3466   16.5500 H         1 MOL     0.0232
     19 H         -24.8155  -73.3227   14.2645 H         1 MOL     0.0299
     20 H         -27.0767  -71.2748   13.6907 H         1 MOL     0.0232
     21 H         -27.2664  -73.0630   13.8198 H         1 MOL     0.0232
     22 H         -26.2970  -72.3540   12.4754 H         1 MOL     0.0232
     23 H         -23.4925  -71.1497   14.8867 H         1 MOL     0.0316
     24 H         -24.6996  -70.2738   13.8614 H         1 MOL     0.0316
     25 H         -22.2770  -73.1283   13.9055 H         1 MOL     0.0620
     26 H         -21.0076  -73.8154   11.8957 H         1 MOL     0.0621
     27 H         -23.1926  -70.9626    9.5422 H         1 MOL     0.0621
     28 H         -24.4618  -70.2837   11.5497 H         1 MOL     0.0620
     29 H         -20.6865  -73.8515    9.6577 H         1 MOL     0.0406
     30 H         -22.7105  -72.2857    7.8980 H         1 MOL     0.0239
     31 H         -22.9004  -73.9830    8.4752 H         1 MOL     0.0239
     32 H         -21.5689  -73.5616    7.3356 H         1 MOL     0.0239
@<TRIPOS>BOND
     1    1    2 1 
     2    1   16 1 
     3    1   17 1 
     4    1   18 1 
     5    2    3 1 
     6    2    4 1 
     7    2   19 1 
     8    3   20 1 
     9    3   21 1 
    10    3   22 1 
    11    4    5 1 
    12    4   23 1 
    13    4   24 1 
    14    5    6 ar
    15    5   10 ar
    16    6    7 ar
    17    6   25 1 
    18    7    8 ar
    19    7   26 1 
    20    8    9 ar
    21    8   11 1 
    22    9   10 ar
    23    9   27 1 
    24   10   28 1 
    25   11   12 1 
    26   11   13 1 
    27   11   29 1 
    28   12   30 1 
    29   12   31 1 
    30   12   32 1 
    31   13   14 ar
    32   13   15 ar
@<TRIPOS>SUBSTRUCTURE
1 MOL         1
@<TRIPOS>MOLECULE
query molecule
   32    32     1     0     0
SMALL
NO_CHARGE

@<TRIPOS>ATOM
      1 C         -41.2773  -41.6451   25.0322 C.3       1 MOL     0.0072
      2 C         -39.8189  -42.1737   24.9657 C.3       1 MOL    -0.0128
      3 C         -39.5471  -43.1929   26.1048 C.3       1 MOL     0.0072
      4 C         -39.5069  -42.7395   23.5562 C.3       1 MOL     0.0379
      5 C         -38.0463  -42.7303   23.2801 C.ar      1 MOL    -0.0471
      6 C         -37.3442  -41.5182   23.2295 C.ar      1 MOL     0.0037
      7 C         -35.9704  -41.5143   22.9707 C.ar      1 MOL     0.0044
      8 C         -35.2757  -42.7224   22.7776 C.ar      1 MOL    -0.0391
      9 C         -35.9905  -43.9278   22.8101 C.ar      1 MOL     0.0044
     10 C         -37.3682  -43.9356   23.0611 C.ar      1 MOL     0.0037
     11 C         -33.8065  -42.6386   22.5233 C.3       1 MOL     0.0614
     12 C         -33.0120  -43.3028   23.6585 C.3       1 MOL     0.0185
     13 C         -33.4508  -43.2822   21.1908 C.2       1 MOL     0.0489
     14 O         -33.3564  -42.4717   20.2308 O.co2     1 MOL    -0.5492
     15 O         -33.2809  -44.5338   21.1589 O.co2     1 MOL    -0.5492
     16 H         -41.4841  -41.1931   26.0251 H         1 MOL     0.0232
     17 H         -41.9934  -42.4773   24.8668 H         1 MOL     0.0232
     18 H         -41.4421  -40.8745   24.2505 H         1 MOL     0.0232
     19 H         -39.1463  -41.2926   25.1332 H         1 MOL     0.0299
     20 H         -40.2046  -44.0802   25.9895 H         1 MOL     0.0232
     21 H         -39.7554  -42.7292   27.0936 H         1 MOL     0.0232
     22 H         -38.4895  -43.5277   26.0882 H         1 MOL     0.0232
     23 H         -39.9861  -42.0980   22.7859 H         1 MOL     0.0316
     24 H         -39.8803  -43.7768   23.4574 H         1 MOL     0.0316
     25 H         -37.8706  -40.5862   23.3835 H         1 MOL     0.0620
     26 H         -35.4442  -40.5722   22.9130 H         1 MOL     0.0621
     27 H         -35.4767  -44.8600   22.6192 H         1 MOL     0.0621
     28 H         -37.9077  -44.8710   23.0857 H         1 MOL     0.0620
     29 H         -33.5031  -41.5627   22.4890 H         1 MOL     0.0406
     30 H         -33.2758  -44.3769   23.7545 H         1 MOL     0.0239
     31 H         -33.2129  -42.8012   24.6289 H         1 MOL     0.0239
     32 H         -31.9199  -43.2337   23.4569 H         1 MOL     0.0239
@<TRIPOS>BOND
     1    1    2 1 
     2    1   16 1 
     3    1   17 1 
     4    1   18 1 
     5    2    3 1 
     6    2    4 1 
     7    2   19 1 
     8    3   20 1 
     9    3   21 1 
    10    3   22 1 
    11    4    5 1 
    12    4   23 1 
    13    4   24 1 
    14    5    6 ar
    15    5   10 ar
    16    6    7 ar
    17    6   25 1 
    18    7    8 ar
    19    7   26 1 
    20    8    9 ar
    21    8   11 1 
    22    9   10 ar
    23    9   27 1 
    24   10   28 1 
    25   11   12 1 
    26   11   13 1 
    27   11   29 1 
    28   12   30 1 
    29   12   31 1 
    30   12   32 1 
    31   13   14 ar
    32   13   15 ar
@<TRIPOS>SUBSTRUCTURE
1 MOL         1
@<TRIPOS>MOLECULE
query molecule
   32    32     1     0     0
SMALL
NO_CHARGE

@<TRIPOS>ATOM
      1 C         -63.0221  -42.2105  -10.2137 C.3       1 MOL     0.0072
      2 C         -63.4753  -42.6194   -8.7856 C.3       1 MOL    -0.0128
      3 C         -64.9786  -42.2745   -8.5986 C.3       1 MOL     0.0072
      4 C         -63.1353  -44.0993   -8.4458 C.3       1 MOL     0.0379
      5 C         -63.4971  -44.4144   -7.0299 C.ar      1 MOL    -0.0471
      6 C         -64.7800  -44.9027   -6.7496 C.ar      1 MOL     0.0037
      7 C         -65.1664  -45.1663   -5.4377 C.ar      1 MOL     0.0044
      8 C         -64.2779  -44.9607   -4.3724 C.ar      1 MOL    -0.0391
      9 C         -62.9790  -44.5063   -4.6597 C.ar      1 MOL     0.0044
     10 C         -62.5887  -44.2316   -5.9803 C.ar      1 MOL     0.0037
     11 C         -64.7004  -45.2120   -2.9510 C.3       1 MOL     0.0614
     12 C         -65.7615  -44.1734   -2.5434 C.3       1 MOL     0.0185
     13 C         -65.3025  -46.6069   -2.8273 C.2       1 MOL     0.0489
     14 O         -64.4581  -47.5278   -2.6544 O.co2     1 MOL    -0.5492
     15 O         -66.5505  -46.7775   -2.9355 O.co2     1 MOL    -0.5492
     16 H         -63.2463  -41.1348  -10.3849 H         1 MOL     0.0232
     17 H         -63.5511  -42.8066  -10.9849 H         1 MOL     0.0232
     18 H         -61.9287  -42.3613  -10.3314 H         1 MOL     0.0232
     19 H         -62.8951  -41.9782   -8.0722 H         1 MOL     0.0299
     20 H         -65.6086  -42.9106   -9.2553 H         1 MOL     0.0232
     21 H         -65.1652  -41.2098   -8.8546 H         1 MOL     0.0232
     22 H         -65.2844  -42.4428   -7.5447 H         1 MOL     0.0232
     23 H         -62.0478  -44.2869   -8.5612 H         1 MOL     0.0316
     24 H         -63.7003  -44.7883   -9.1075 H         1 MOL     0.0316
     25 H         -65.4790  -45.0686   -7.5568 H         1 MOL     0.0620
     26 H         -66.1640  -45.5304   -5.2352 H         1 MOL     0.0621
     27 H         -62.2734  -44.3576   -3.8536 H         1 MOL     0.0621
     28 H         -61.5901  -43.8739   -6.1850 H         1 MOL     0.0620
     29 H         -63.8228  -45.1071   -2.2691 H         1 MOL     0.0406
     30 H         -66.6416  -44.2665   -3.2155 H         1 MOL     0.0239
     31 H         -65.3668  -43.1410   -2.6156 H         1 MOL     0.0239
     32 H         -66.0963  -44.3601   -1.5019 H         1 MOL     0.0239
@<TRIPOS>BOND
     1    1    2 1 
     2    1   16 1 
     3    1   17 1 
     4    1   18 1 
     5    2    3 1 
     6    2    4 1 
     7    2   19 1 
     8    3   20 1 
     9    3   21 1 
    10    3   22 1 
    11    4    5 1 
    12    4   23 1 
    13    4   24 1 
    14    5    6 ar
    15    5   10 ar
    16    6    7 ar
    17    6   25 1 
    18    7    8 ar
    19    7   26 1 
    20    8    9 ar
    21    8   11 1 
    22    9   10 ar
    23    9   27 1 
    24   10   28 1 
    25   11   12 1 
    26   11   13 1 
    27   11   29 1 
    28   12   30 1 
    29   12   31 1 
    30   12   32 1 
    31   13   14 ar
    32   13   15 ar
@<TRIPOS>SUBSTRUCTURE
1 MOL         1
@<TRIPOS>MOLECULE
query molecule
   32    32     1     0     0
SMALL
NO_CHARGE

@<TRIPOS>ATOM
      1 C         -32.0267  -34.4652  -20.6575 C.3       1 MOL     0.0072
      2 C         -30.7866  -34.2882  -19.7409 C.3       1 MOL    -0.0128
      3 C         -29.5952  -35.1308  -20.2697 C.3       1 MOL     0.0072
      4 C         -30.4377  -32.7889  -19.5551 C.3       1 MOL     0.0379
      5 C         -29.9627  -32.5138  -18.1696 C.ar      1 MOL    -0.0471
      6 C         -30.8791  -32.2181  -17.1498 C.ar      1 MOL     0.0037
      7 C         -30.4282  -31.9726  -15.8475 C.ar      1 MOL     0.0044
      8 C         -29.0594  -32.0093  -15.5545 C.ar      1 MOL    -0.0391
      9 C         -28.1454  -32.2820  -16.5851 C.ar      1 MOL     0.0044
     10 C         -28.5935  -32.5350  -17.8837 C.ar      1 MOL     0.0037
     11 C         -28.5147  -31.7611  -14.1856 C.3       1 MOL     0.0614
     12 C         -28.7099  -30.2730  -13.8394 C.3       1 MOL     0.0185
     13 C         -29.1862  -32.6631  -13.1455 C.2       1 MOL     0.0489
     14 O         -28.7634  -33.8532  -13.1443 O.co2     1 MOL    -0.5492
     15 O         -30.0655  -32.1578  -12.3869 O.co2     1 MOL    -0.5492
     16 H         -32.3024  -35.5377  -20.7331 H         1 MOL     0.0232
     17 H         -31.8067  -34.0837  -21.6770 H         1 MOL     0.0232
     18 H         -32.8923  -33.9030  -20.2490 H         1 MOL     0.0232
     19 H         -31.0696  -34.6908  -18.7338 H         1 MOL     0.0299
     20 H         -29.2954  -34.7748  -21.2777 H         1 MOL     0.0232
     21 H         -29.8882  -36.1994  -20.3493 H         1 MOL     0.0232
     22 H         -28.7215  -35.0513  -19.5909 H         1 MOL     0.0232
     23 H         -31.3476  -32.1686  -19.7113 H         1 MOL     0.0316
     24 H         -29.6527  -32.4725  -20.2695 H         1 MOL     0.0316
     25 H         -31.9367  -32.1864  -17.3686 H         1 MOL     0.0620
     26 H         -31.1398  -31.7541  -15.0649 H         1 MOL     0.0621
     27 H         -27.0857  -32.2964  -16.3751 H         1 MOL     0.0621
     28 H         -27.8833  -32.7475  -18.6699 H         1 MOL     0.0620
     29 H         -27.4155  -31.9652  -14.1749 H         1 MOL     0.0406
     30 H         -29.7891  -30.0118  -13.8439 H         1 MOL     0.0239
     31 H         -28.1852  -29.6276  -14.5747 H         1 MOL     0.0239
     32 H         -28.2989  -30.0591  -12.8288 H         1 MOL     0.0239
@<TRIPOS>BOND
     1    1    2 1 
     2    1   16 1 
     3    1   17 1 
     4    1   18 1 
     5    2    3 1 
     6    2    4 1 
     7    2   19 1 
     8    3   20 1 
     9    3   21 1 
    10    3   22 1 
    11    4    5 1 
    12    4   23 1 
    13    4   24 1 
    14    5    6 ar
    15    5   10 ar
    16    6    7 ar
    17    6   25 1 
    18    7    8 ar
    19    7   26 1 
    20    8    9 ar
    21    8   11 1 
    22    9   10 ar
    23    9   27 1 
    24   10   28 1 
    25   11   12 1 
    26   11   13 1 
    27   11   29 1 
    28   12   30 1 
    29   12   31 1 
    30   12   32 1 
    31   13   14 ar
    32   13   15 ar
@<TRIPOS>SUBSTRUCTURE
1 MOL         1
@<TRIPOS>MOLECULE
query molecule
   32    32     1     0     0
SMALL
NO_CHARGE

@<TRIPOS>ATOM
      1 C         -65.3857  -70.3773   -8.9199 C.3       1 MOL     0.0072
      2 C         -64.0348  -70.8744   -8.3406 C.3       1 MOL    -0.0128
      3 C         -63.5391  -72.1263   -9.1103 C.3       1 MOL     0.0072
      4 C         -62.9801  -69.7418   -8.3102 C.3       1 MOL     0.0379
      5 C         -61.9585  -69.9969   -7.2598 C.ar      1 MOL    -0.0471
      6 C         -62.2103  -69.6538   -5.9266 C.ar      1 MOL     0.0037
      7 C         -61.2332  -69.8702   -4.9497 C.ar      1 MOL     0.0044
      8 C         -59.9903  -70.4300   -5.2916 C.ar      1 MOL    -0.0391
      9 C         -59.7559  -70.7764   -6.6317 C.ar      1 MOL     0.0044
     10 C         -60.7304  -70.5654   -7.6045 C.ar      1 MOL     0.0037
     11 C         -58.9776  -70.6555   -4.2073 C.3       1 MOL     0.0614
     12 C         -58.6605  -72.1625   -4.0906 C.3       1 MOL     0.0185
     13 C         -57.6673  -69.9059   -4.4786 C.2       1 MOL     0.0489
     14 O         -57.0191  -70.2550   -5.5059 O.co2     1 MOL    -0.5492
     15 O         -57.3337  -69.0244   -3.6350 O.co2     1 MOL    -0.5492
     16 H         -66.1439  -71.1879   -8.8808 H         1 MOL     0.0232
     17 H         -65.2625  -70.0575   -9.9755 H         1 MOL     0.0232
     18 H         -65.7617  -69.5148   -8.3299 H         1 MOL     0.0232
     19 H         -64.2285  -71.1784   -7.2804 H         1 MOL     0.0299
     20 H         -63.3595  -71.8738  -10.1771 H         1 MOL     0.0232
     21 H         -64.3049  -72.9302   -9.0664 H         1 MOL     0.0232
     22 H         -62.5955  -72.5110   -8.6723 H         1 MOL     0.0232
     23 H         -63.4716  -68.7777   -8.0526 H         1 MOL     0.0316
     24 H         -62.4713  -69.6435   -9.2887 H         1 MOL     0.0316
     25 H         -63.1596  -69.2155   -5.6549 H         1 MOL     0.0620
     26 H         -61.4375  -69.6009   -3.9232 H         1 MOL     0.0621
     27 H         -58.8079  -71.2128   -6.9082 H         1 MOL     0.0621
     28 H         -60.5324  -70.8422   -8.6306 H         1 MOL     0.0620
     29 H         -59.3940  -70.2995   -3.2342 H         1 MOL     0.0406
     30 H         -58.1602  -72.5177   -5.0178 H         1 MOL     0.0239
     31 H         -59.5889  -72.7547   -3.9478 H         1 MOL     0.0239
     32 H         -57.9850  -72.3538   -3.2313 H         1 MOL     0.0239
@<TRIPOS>BOND
     1    1    2 1 
     2    1   16 1 
     3    1   17 1 
     4    1   18 1 
     5    2    3 1 
     6    2    4 1 
     7    2   19 1 
     8    3   20 1 
     9    3   21 1 
    10    3   22 1 
    11    4    5 1 
    12    4   23 1 
    13    4   24 1 
    14    5    6 ar
    15    5   10 ar
    16    6    7 ar
    17    6   25 1 
    18    7    8 ar
    19    7   26 1 
    20    8    9 ar
    21    8   11 1 
    22    9   10 ar
    23    9   27 1 
    24   10   28 1 
    25   11   12 1 
    26   11   13 1 
    27   11   29 1 
    28   12   30 1 
    29   12   31 1 
    30   12   32 1 
    31   13   14 ar
    32   13   15 ar
@<TRIPOS>SUBSTRUCTURE
1 MOL         1
@<TRIPOS>MOLECULE
query molecule
   32    32     1     0     0
SMALL
NO_CHARGE

@<TRIPOS>ATOM
      1 C         -16.4964  -64.7517  -16.0602 C.3       1 MOL     0.0072
      2 C         -15.8861  -64.7546  -14.6375 C.3       1 MOL    -0.0128
      3 C         -15.8681  -66.1754  -14.0199 C.3       1 MOL     0.0072
      4 C         -14.5038  -64.0681  -14.6123 C.3       1 MOL     0.0379
      5 C         -14.2542  -63.4101  -13.3007 C.ar      1 MOL    -0.0471
      6 C         -14.5156  -62.0400  -13.1786 C.ar      1 MOL     0.0037
      7 C         -14.2509  -61.3843  -11.9752 C.ar      1 MOL     0.0044
      8 C         -13.7345  -62.0832  -10.8757 C.ar      1 MOL    -0.0391
      9 C         -13.4827  -63.4600  -11.0037 C.ar      1 MOL     0.0044
     10 C         -13.7434  -64.1187  -12.2100 C.ar      1 MOL     0.0037
     11 C         -13.4381  -61.4242   -9.5642 C.3       1 MOL     0.0614
     12 C         -12.7717  -60.0534   -9.7788 C.3       1 MOL     0.0185
     13 C         -14.7274  -61.2093   -8.7658 C.2       1 MOL     0.0489
     14 O         -15.7136  -60.7211   -9.3890 O.co2     1 MOL    -0.5492
     15 O         -14.6829  -61.5479   -7.5513 O.co2     1 MOL    -0.5492
     16 H         -17.5156  -65.1913  -16.0439 H         1 MOL     0.0232
     17 H         -15.8619  -65.3439  -16.7515 H         1 MOL     0.0232
     18 H         -16.5655  -63.7115  -16.4438 H         1 MOL     0.0232
     19 H         -16.5665  -64.1273  -14.0033 H         1 MOL     0.0299
     20 H         -15.2199  -66.8445  -14.6242 H         1 MOL     0.0232
     21 H         -16.8932  -66.6002  -13.9961 H         1 MOL     0.0232
     22 H         -15.4736  -66.1418  -12.9827 H         1 MOL     0.0232
     23 H         -14.4786  -63.2602  -15.3775 H         1 MOL     0.0316
     24 H         -13.6897  -64.7889  -14.8142 H         1 MOL     0.0316
     25 H         -14.9159  -61.4909  -14.0171 H         1 MOL     0.0620
     26 H         -14.4488  -60.3247  -11.8937 H         1 MOL     0.0621
     27 H         -13.0851  -64.0100  -10.1639 H         1 MOL     0.0621
     28 H         -13.5447  -65.1769  -12.2980 H         1 MOL     0.0620
     29 H         -12.7574  -62.0678   -8.9579 H         1 MOL     0.0406
     30 H         -13.4363  -59.3882  -10.3699 H         1 MOL     0.0239
     31 H         -11.8149  -60.1685  -10.3292 H         1 MOL     0.0239
     32 H         -12.5647  -59.5694   -8.8010 H         1 MOL     0.0239
@<TRIPOS>BOND
     1    1    2 1 
     2    1   16 1 
     3    1   17 1 
     4    1   18 1 
     5    2    3 1 
     6    2    4 1 
     7    2   19 1 
     8    3   20 1 
     9    3   21 1 
    10    3   22 1 
    11    4    5 1 
    12    4   23 1 
    13    4   24 1 
    14    5    6 ar
    15    5   10 ar
    16    6    7 ar
    17    6   25 1 
    18    7    8 ar
    19    7   26 1 
    20    8    9 ar
    21    8   11 1 
    22    9   10 ar
    23    9   27 1 
    24   10   28 1 
    25   11   12 1 
    26   11   13 1 
    27   11   29 1 
    28   12   30 1 
    29   12   31 1 
    30   12   32 1 
    31   13   14 ar
    32   13   15 ar
@<TRIPOS>SUBSTRUCTURE
1 MOL         1
@<TRIPOS>MOLECULE
query molecule
   32    32     1     0     0
SMALL
NO_CHARGE

@<TRIPOS>ATOM
      1 C         -55.0444  -62.4723  -23.2191 C.3       1 MOL     0.0072
      2 C         -56.3396  -62.0601  -22.4674 C.3       1 MOL    -0.0128
      3 C         -57.2065  -61.1414  -23.3686 C.3       1 MOL     0.0072
      4 C         -57.1051  -63.3088  -21.9668 C.3       1 MOL     0.0379
      5 C         -57.9045  -63.0317  -20.7436 C.ar      1 MOL    -0.0471
      6 C         -57.3413  -63.2705  -19.4863 C.ar      1 MOL     0.0037
      7 C         -58.0880  -63.0279  -18.3285 C.ar      1 MOL     0.0044
      8 C         -59.4029  -62.5366  -18.4027 C.ar      1 MOL    -0.0391
      9 C         -59.9618  -62.3263  -19.6721 C.ar      1 MOL     0.0044
     10 C         -59.2192  -62.5644  -20.8316 C.ar      1 MOL     0.0037
     11 C         -60.1427  -62.2502  -17.1308 C.3       1 MOL     0.0614
     12 C         -61.0494  -61.0141  -17.2767 C.3       1 MOL     0.0185
     13 C         -61.0527  -63.4106  -16.7315 C.2       1 MOL     0.0489
     14 O         -61.7247  -63.9757  -17.6349 O.co2     1 MOL    -0.5492
     15 O         -61.0671  -63.6605  -15.4895 O.co2     1 MOL    -0.5492
     16 H         -54.4672  -61.5737  -23.5219 H         1 MOL     0.0232
     17 H         -55.2985  -63.0536  -24.1307 H         1 MOL     0.0232
     18 H         -54.4030  -63.1012  -22.5666 H         1 MOL     0.0232
     19 H         -56.0260  -61.4702  -21.5693 H         1 MOL     0.0299
     20 H         -57.4998  -61.6796  -24.2951 H         1 MOL     0.0232
     21 H         -56.6339  -60.2345  -23.6582 H         1 MOL     0.0232
     22 H         -58.1264  -60.8240  -22.8363 H         1 MOL     0.0232
     23 H         -56.3740  -64.1013  -21.6911 H         1 MOL     0.0316
     24 H         -57.7836  -63.6967  -22.7517 H         1 MOL     0.0316
     25 H         -56.3282  -63.6372  -19.4065 H         1 MOL     0.0620
     26 H         -57.6437  -63.2169  -17.3616 H         1 MOL     0.0621
     27 H         -60.9811  -61.9736  -19.7521 H         1 MOL     0.0621
     28 H         -59.6643  -62.3893  -21.7999 H         1 MOL     0.0620
     29 H         -59.4225  -62.0714  -16.2962 H         1 MOL     0.0406
     30 H         -61.7402  -61.1452  -18.1354 H         1 MOL     0.0239
     31 H         -60.4275  -60.1108  -17.4642 H         1 MOL     0.0239
     32 H         -61.6449  -60.8432  -16.3574 H         1 MOL     0.0239
@<TRIPOS>BOND
     1    1    2 1 
     2    1   16 1 
     3    1   17 1 
     4    1   18 1 
     5    2    3 1 
     6    2    4 1 
     7    2   19 1 
     8    3   20 1 
     9    3   21 1 
    10    3   22 1 
    11    4    5 1 
    12    4   23 1 
    13    4   24 1 
    14    5    6 ar
    15    5   10 ar
    16    6    7 ar
    17    6   25 1 
    18    7    8 ar
    19    7   26 1 
    20    8    9 ar
    21    8   11 1 
    22    9   10 ar
    23    9   27 1 
    24   10   28 1 
    25   11   12 1 
    26   11   13 1 
    27   11   29 1 
    28   12   30 1 
    29   12   31 1 
    30   12   32 1 
    31   13   14 ar
    32   13   15 ar
@<TRIPOS>SUBSTRUCTURE
1 MOL         1
@<TRIPOS>MOLECULE
query molecule
   32    32     1     0     0
SMALL
NO_CHARGE

@<TRIPOS>ATOM
      1 C         -65.3418  -42.6849   11.0218 C.3       1 MOL     0.0072
      2 C         -65.2752  -41.9974    9.6296 C.3       1 MOL    -0.0128
      3 C         -66.1848  -40.7382    9.5820 C.3       1 MOL     0.0072
      4 C         -63.8089  -41.7431    9.1730 C.3       1 MOL     0.0379
      5 C         -63.1721  -40.6094    9.9044 C.ar      1 MOL    -0.0471
      6 C         -63.2856  -39.3073    9.3982 C.ar      1 MOL     0.0037
      7 C         -62.7317  -38.2337   10.0960 C.ar      1 MOL     0.0044
      8 C         -62.0319  -38.4449   11.2986 C.ar      1 MOL    -0.0391
      9 C         -61.9102  -39.7505   11.7893 C.ar      1 MOL     0.0044
     10 C         -62.4693  -40.8283   11.0945 C.ar      1 MOL     0.0037
     11 C         -61.4625  -37.2436   11.9909 C.3       1 MOL     0.0614
     12 C         -62.5320  -36.7547   12.9943 C.3       1 MOL     0.0185
     13 C         -60.1225  -37.5020   12.6925 C.2       1 MOL     0.0489
     14 O         -59.9576  -37.0310   13.8533 O.co2     1 MOL    -0.5492
     15 O         -59.2690  -38.1551   12.0230 O.co2     1 MOL    -0.5492
     16 H         -66.3951  -42.8944   11.3025 H         1 MOL     0.0232
     17 H         -64.8940  -42.0275   11.7970 H         1 MOL     0.0232
     18 H         -64.7838  -43.6446   11.0062 H         1 MOL     0.0232
     19 H         -65.7130  -42.7308    8.9004 H         1 MOL     0.0299
     20 H         -65.7927  -39.9859   10.3035 H         1 MOL     0.0232
     21 H         -67.2327  -40.9695    9.8570 H         1 MOL     0.0232
     22 H         -66.1724  -40.2895    8.5668 H         1 MOL     0.0232
     23 H         -63.7801  -41.4938    8.0903 H         1 MOL     0.0316
     24 H         -63.1940  -42.6518    9.3477 H         1 MOL     0.0316
     25 H         -63.8142  -39.1357    8.4717 H         1 MOL     0.0620
     26 H         -62.8490  -37.2318    9.7079 H         1 MOL     0.0621
     27 H         -61.3772  -39.9251   12.7134 H         1 MOL     0.0621
     28 H         -62.3624  -41.8314   11.4805 H         1 MOL     0.0620
     29 H         -61.3143  -36.4328   11.2323 H         1 MOL     0.0406
     30 H         -62.7128  -37.5222   13.7760 H         1 MOL     0.0239
     31 H         -63.4936  -36.5515   12.4753 H         1 MOL     0.0239
     32 H         -62.1963  -35.8177   13.4872 H         1 MOL     0.0239
@<TRIPOS>BOND
     1    1    2 1 
     2    1   16 1 
     3    1   17 1 
     4    1   18 1 
     5    2    3 1 
     6    2    4 1 
     7    2   19 1 
     8    3   20 1 
     9    3   21 1 
    10    3   22 1 
    11    4    5 1 
    12    4   23 1 
    13    4   24 1 
    14    5    6 ar
    15    5   10 ar
    16    6    7 ar
    17    6   25 1 
    18    7    8 ar
    19    7   26 1 
    20    8    9 ar
    21    8   11 1 
    22    9   10 ar
    23    9   27 1 
    24   10   28 1 
    25   11   12 1 
    26   11   13 1 
    27   11   29 1 
    28   12   30 1 
    29   12   31 1 
    30   12   32 1 
    31   13   14 ar
    32   13   15 ar
@<TRIPOS>SUBSTRUCTURE
1 MOL         1
@<TRIPOS>MOLECULE
query molecule
   32    32     1     0     0
SMALL
NO_CHARGE

@<TRIPOS>ATOM
      1 C         -28.8235  -73.4869   17.5268 C.3       1 MOL     0.0072
      2 C         -27.9003  -72.9901   16.3814 C.3       1 MOL    -0.0128
      3 C         -28.5828  -71.8580   15.5740 C.3       1 MOL     0.0072
      4 C         -26.5007  -72.6004   16.9234 C.3       1 MOL     0.0379
      5 C         -25.4854  -72.6109   15.8388 C.ar      1 MOL    -0.0471
      6 C         -24.9920  -73.8213   15.3425 C.ar      1 MOL     0.0037
      7 C         -24.0400  -73.8291   14.3188 C.ar      1 MOL     0.0044
      8 C         -23.5716  -72.6235   13.7715 C.ar      1 MOL    -0.0391
      9 C         -24.0587  -71.4180   14.2889 C.ar      1 MOL     0.0044
     10 C         -25.0077  -71.4121   15.3124 C.ar      1 MOL     0.0037
     11 C         -22.5776  -72.6981   12.6576 C.3       1 MOL     0.0614
     12 C         -22.8684  -71.6191   11.5972 C.3       1 MOL     0.0185
     13 C         -21.1654  -72.5076   13.2070 C.2       1 MOL     0.0489
     14 O         -20.9490  -71.4505   13.8601 O.co2     1 MOL    -0.5492
     15 O         -20.3361  -73.4315   12.9484 O.co2     1 MOL    -0.5492
     16 H         -29.7978  -73.8276   17.1172 H         1 MOL     0.0232
     17 H         -29.0103  -72.6728   18.2573 H         1 MOL     0.0232
     18 H         -28.3488  -74.3382   18.0594 H         1 MOL     0.0232
     19 H         -27.7567  -73.8565   15.6852 H         1 MOL     0.0299
     20 H         -28.7746  -70.9820   16.2301 H         1 MOL     0.0232
     21 H         -29.5542  -72.2056   15.1635 H         1 MOL     0.0232
     22 H         -27.9385  -71.5311   14.7325 H         1 MOL     0.0232
     23 H         -26.1697  -73.3522   17.6730 H         1 MOL     0.0316
     24 H         -26.5166  -71.5970   17.3886 H         1 MOL     0.0316
     25 H         -25.3460  -74.7561   15.7515 H         1 MOL     0.0620
     26 H         -23.6590  -74.7678   13.9431 H         1 MOL     0.0621
     27 H         -23.6965  -70.4802   13.8907 H         1 MOL     0.0621
     28 H         -25.3780  -70.4716   15.6932 H         1 MOL     0.0620
     29 H         -22.6403  -73.7036   12.1723 H         1 MOL     0.0406
     30 H         -22.8309  -70.6055   12.0480 H         1 MOL     0.0239
     31 H         -23.8826  -71.7753   11.1696 H         1 MOL     0.0239
     32 H         -22.1252  -71.6741   10.7767 H         1 MOL     0.0239
@<TRIPOS>BOND
     1    1    2 1 
     2    1   16 1 
     3    1   17 1 
     4    1   18 1 
     5    2    3 1 
     6    2    4 1 
     7    2   19 1 
     8    3   20 1 
     9    3   21 1 
    10    3   22 1 
    11    4    5 1 
    12    4   23 1 
    13    4   24 1 
    14    5    6 ar
    15    5   10 ar
    16    6    7 ar
    17    6   25 1 
    18    7    8 ar
    19    7   26 1 
    20    8    9 ar
    21    8   11 1 
    22    9   10 ar
    23    9   27 1 
    24   10   28 1 
    25   11   12 1 
    26   11   13 1 
    27   11   29 1 
    28   12   30 1 
    29   12   31 1 
    30   12   32 1 
    31   13   14 ar
    32   13   15 ar
@<TRIPOS>SUBSTRUCTURE
1 MOL         1
@<TRIPOS>MOLECULE
query molecule
   32    32     1     0     0
SMALL
NO_CHARGE

@<TRIPOS>ATOM
      1 C         -43.0456  -65.1428  -16.3169 C.3       1 MOL     0.0072
      2 C         -42.0777  -65.0424  -15.1082 C.3       1 MOL    -0.0128
      3 C         -41.5843  -63.5848  -14.9199 C.3       1 MOL     0.0072
      4 C         -42.7186  -65.6202  -13.8232 C.3       1 MOL     0.0379
      5 C         -41.8309  -66.6455  -13.2075 C.ar      1 MOL    -0.0471
      6 C         -41.6574  -67.8947  -13.8141 C.ar      1 MOL     0.0037
      7 C         -40.8479  -68.8622  -13.2101 C.ar      1 MOL     0.0044
      8 C         -40.2009  -68.5964  -11.9892 C.ar      1 MOL    -0.0391
      9 C         -40.3819  -67.3409  -11.3930 C.ar      1 MOL     0.0044
     10 C         -41.1864  -66.3705  -11.9969 C.ar      1 MOL     0.0037
     11 C         -39.3328  -69.6620  -11.3889 C.3       1 MOL     0.0614
     12 C         -37.9220  -69.0954  -11.1183 C.3       1 MOL     0.0185
     13 C         -39.9000  -70.1941  -10.0717 C.2       1 MOL     0.0489
     14 O         -39.7239  -69.4740   -9.0438 O.co2     1 MOL    -0.5492
     15 O         -40.4873  -71.3162  -10.1089 O.co2     1 MOL    -0.5492
     16 H         -42.5478  -64.7749  -17.2390 H         1 MOL     0.0232
     17 H         -43.9548  -64.5323  -16.1373 H         1 MOL     0.0232
     18 H         -43.3516  -66.1975  -16.4777 H         1 MOL     0.0232
     19 H         -41.1872  -65.6778  -15.3510 H         1 MOL     0.0299
     20 H         -42.4426  -62.9152  -14.7017 H         1 MOL     0.0232
     21 H         -41.0895  -63.2276  -15.8488 H         1 MOL     0.0232
     22 H         -40.8584  -63.5186  -14.0842 H         1 MOL     0.0232
     23 H         -43.6729  -66.1317  -14.0740 H         1 MOL     0.0316
     24 H         -42.9123  -64.8239  -13.0791 H         1 MOL     0.0316
     25 H         -42.1545  -68.1088  -14.7487 H         1 MOL     0.0620
     26 H         -40.7198  -69.8222  -13.6907 H         1 MOL     0.0621
     27 H         -39.8886  -67.1197  -10.4586 H         1 MOL     0.0621
     28 H         -41.3092  -65.4071  -11.5245 H         1 MOL     0.0620
     29 H         -39.2481  -70.5156  -12.1046 H         1 MOL     0.0406
     30 H         -37.9762  -68.3059  -10.3373 H         1 MOL     0.0239
     31 H         -37.4904  -68.6505  -12.0372 H         1 MOL     0.0239
     32 H         -37.2441  -69.8978  -10.7593 H         1 MOL     0.0239
@<TRIPOS>BOND
     1    1    2 1 
     2    1   16 1 
     3    1   17 1 
     4    1   18 1 
     5    2    3 1 
     6    2    4 1 
     7    2   19 1 
     8    3   20 1 
     9    3   21 1 
    10    3   22 1 
    11    4    5 1 
    12    4   23 1 
    13    4   24 1 
    14    5    6 ar
    15    5   10 ar
    16    6    7 ar
    17    6   25 1 
    18    7    8 ar
    19    7   26 1 
    20    8    9 ar
    21    8   11 1 
    22    9   10 ar
    23    9   27 1 
    24   10   28 1 
    25   11   12 1 
    26   11   13 1 
    27   11   29 1 
    28   12   30 1 
    29   12   31 1 
    30   12   32 1 
    31   13   14 ar
    32   13   15 ar
@<TRIPOS>SUBSTRUCTURE
1 MOL         1
@<TRIPOS>MOLECULE
query molecule
   32    32     1     0     0
SMALL
NO_CHARGE

@<TRIPOS>ATOM
      1 C         -20.5660  -46.1397   24.6024 C.3       1 MOL     0.0072
      2 C         -21.3372  -45.4316   23.4535 C.3       1 MOL    -0.0128
      3 C         -21.5535  -43.9366   23.8032 C.3       1 MOL     0.0072
      4 C         -20.6146  -45.6459   22.1083 C.3       1 MOL     0.0379
      5 C         -21.4311  -45.2784   20.9175 C.ar      1 MOL    -0.0471
      6 C         -22.5414  -46.0321   20.5325 C.ar      1 MOL     0.0037
      7 C         -23.2243  -45.7503   19.3466 C.ar      1 MOL     0.0044
      8 C         -22.8292  -44.6854   18.5337 C.ar      1 MOL    -0.0391
      9 C         -21.7449  -43.8917   18.9579 C.ar      1 MOL     0.0044
     10 C         -21.0519  -44.1910   20.1338 C.ar      1 MOL     0.0037
     11 C         -23.4568  -44.3300   17.2233 C.3       1 MOL     0.0614
     12 C         -22.5646  -44.9522   16.1301 C.3       1 MOL     0.0185
     13 C         -24.9080  -44.7598   17.0621 C.2       1 MOL     0.0489
     14 O         -25.1969  -45.6191   16.1784 O.co2     1 MOL    -0.5492
     15 O         -25.7125  -44.1670   17.8374 O.co2     1 MOL    -0.5492
     16 H         -21.1101  -46.0269   25.5639 H         1 MOL     0.0232
     17 H         -19.5540  -45.6956   24.7180 H         1 MOL     0.0232
     18 H         -20.4520  -47.2225   24.3853 H         1 MOL     0.0232
     19 H         -22.3439  -45.9148   23.3810 H         1 MOL     0.0299
     20 H         -20.5747  -43.4194   23.8964 H         1 MOL     0.0232
     21 H         -22.0941  -43.8402   24.7682 H         1 MOL     0.0232
     22 H         -22.1462  -43.4334   23.0119 H         1 MOL     0.0232
     23 H         -20.3423  -46.7190   21.9989 H         1 MOL     0.0316
     24 H         -19.6851  -45.0379   22.0766 H         1 MOL     0.0316
     25 H         -22.8661  -46.8642   21.1530 H         1 MOL     0.0620
     26 H         -24.0702  -46.3600   19.0555 H         1 MOL     0.0621
     27 H         -21.4406  -43.0444   18.3591 H         1 MOL     0.0621
     28 H         -20.2114  -43.5772   20.4324 H         1 MOL     0.0620
     29 H         -23.4252  -43.2167   17.0979 H         1 MOL     0.0406
     30 H         -22.5762  -46.0594   16.1963 H         1 MOL     0.0239
     31 H         -21.5178  -44.6012   16.2606 H         1 MOL     0.0239
     32 H         -22.9145  -44.6510   15.1215 H         1 MOL     0.0239
@<TRIPOS>BOND
     1    1    2 1 
     2    1   16 1 
     3    1   17 1 
     4    1   18 1 
     5    2    3 1 
     6    2    4 1 
     7    2   19 1 
     8    3   20 1 
     9    3   21 1 
    10    3   22 1 
    11    4    5 1 
    12    4   23 1 
    13    4   24 1 
    14    5    6 ar
    15    5   10 ar
    16    6    7 ar
    17    6   25 1 
    18    7    8 ar
    19    7   26 1 
    20    8    9 ar
    21    8   11 1 
    22    9   10 ar
    23    9   27 1 
    24   10   28 1 
    25   11   12 1 
    26   11   13 1 
    27   11   29 1 
    28   12   30 1 
    29   12   31 1 
    30   12   32 1 
    31   13   14 ar
    32   13   15 ar
@<TRIPOS>SUBSTRUCTURE
1 MOL         1
@<TRIPOS>MOLECULE
query molecule
   32    32     1     0     0
SMALL
NO_CHARGE

@<TRIPOS>ATOM
      1 C         -64.9813  -46.2600   -2.7407 C.3       1 MOL     0.0072
      2 C         -65.5214  -44.8158   -2.8723 C.3       1 MOL    -0.0128
      3 C         -66.1260  -44.3323   -1.5342 C.3       1 MOL     0.0072
      4 C         -64.4601  -43.8354   -3.4346 C.3       1 MOL     0.0379
      5 C         -64.2962  -43.9988   -4.9111 C.ar      1 MOL    -0.0471
      6 C         -63.0182  -44.1645   -5.4646 C.ar      1 MOL     0.0037
      7 C         -62.8660  -44.3286   -6.8465 C.ar      1 MOL     0.0044
      8 C         -63.9831  -44.3312   -7.6951 C.ar      1 MOL    -0.0391
      9 C         -65.2588  -44.1486   -7.1362 C.ar      1 MOL     0.0044
     10 C         -65.4110  -43.9788   -5.7600 C.ar      1 MOL     0.0037
     11 C         -63.9047  -44.5012   -9.1800 C.3       1 MOL     0.0614
     12 C         -62.9564  -43.4389   -9.7605 C.3       1 MOL     0.0185
     13 C         -63.4177  -45.8851   -9.5930 C.2       1 MOL     0.0489
     14 O         -62.4076  -46.3436   -8.9971 O.co2     1 MOL    -0.5492
     15 O         -64.0795  -46.4300  -10.5224 O.co2     1 MOL    -0.5492
     16 H         -65.7789  -46.9302   -2.3548 H         1 MOL     0.0232
     17 H         -64.1262  -46.2817   -2.0330 H         1 MOL     0.0232
     18 H         -64.6425  -46.6407   -3.7260 H         1 MOL     0.0232
     19 H         -66.3649  -44.8339   -3.6101 H         1 MOL     0.0299
     20 H         -65.3522  -44.3134   -0.7400 H         1 MOL     0.0232
     21 H         -66.9346  -45.0299   -1.2211 H         1 MOL     0.0232
     22 H         -66.5609  -43.3174   -1.6394 H         1 MOL     0.0232
     23 H         -63.4773  -44.0028   -2.9505 H         1 MOL     0.0316
     24 H         -64.7795  -42.7850   -3.2573 H         1 MOL     0.0316
     25 H         -62.1484  -44.1638   -4.8239 H         1 MOL     0.0620
     26 H         -61.8780  -44.4547   -7.2674 H         1 MOL     0.0621
     27 H         -66.1316  -44.1368   -7.7742 H         1 MOL     0.0621
     28 H         -66.3972  -43.8327   -5.3419 H         1 MOL     0.0620
     29 H         -64.9171  -44.3506   -9.6294 H         1 MOL     0.0406
     30 H         -61.9458  -43.5461   -9.3114 H         1 MOL     0.0239
     31 H         -63.3390  -42.4217   -9.5358 H         1 MOL     0.0239
     32 H         -62.8721  -43.5574  -10.8603 H         1 MOL     0.0239
@<TRIPOS>BOND
     1    1    2 1 
     2    1   16 1 
     3    1   17 1 
     4    1   18 1 
     5    2    3 1 
     6    2    4 1 
     7    2   19 1 
     8    3   20 1 
     9    3   21 1 
    10    3   22 1 
    11    4    5 1 
    12    4   23 1 
    13    4   24 1 
    14    5    6 ar
    15    5   10 ar
    16    6    7 ar
    17    6   25 1 
    18    7    8 ar
    19    7   26 1 
    20    8    9 ar
    21    8   11 1 
    22    9   10 ar
    23    9   27 1 
    24   10   28 1 
    25   11   12 1 
    26   11   13 1 
    27   11   29 1 
    28   12   30 1 
    29   12   31 1 
    30   12   32 1 
    31   13   14 ar
    32   13   15 ar
@<TRIPOS>SUBSTRUCTURE
1 MOL         1
@<TRIPOS>MOLECULE
query molecule
   32    32     1     0     0
SMALL
NO_CHARGE

@<TRIPOS>ATOM
      1 C         -12.2413  -70.5269   17.4964 C.3       1 MOL     0.0072
      2 C         -10.7034  -70.3416   17.5494 C.3       1 MOL    -0.0128
      3 C         -10.1435  -70.8422   18.9054 C.3       1 MOL     0.0072
      4 C         -10.0128  -71.0062   16.3302 C.3       1 MOL     0.0379
      5 C          -9.1177  -70.0495   15.6162 C.ar      1 MOL    -0.0471
      6 C          -7.9551  -69.5551   16.2171 C.ar      1 MOL     0.0037
      7 C          -7.1198  -68.6772   15.5213 C.ar      1 MOL     0.0044
      8 C          -7.4275  -68.2869   14.2055 C.ar      1 MOL    -0.0391
      9 C          -8.5953  -68.7788   13.6123 C.ar      1 MOL     0.0044
     10 C          -9.4361  -69.6515   14.3103 C.ar      1 MOL     0.0037
     11 C          -6.4653  -67.3746   13.4997 C.3       1 MOL     0.0614
     12 C          -6.3381  -67.8093   12.0224 C.3       1 MOL     0.0185
     13 C          -6.8798  -65.9060   13.6375 C.2       1 MOL     0.0489
     14 O          -6.9473  -65.4815   14.8312 O.co2     1 MOL    -0.5492
     15 O          -7.0820  -65.2179   12.5948 O.co2     1 MOL    -0.5492
     16 H         -12.7183  -69.9946   18.3467 H         1 MOL     0.0232
     17 H         -12.5010  -71.6046   17.5655 H         1 MOL     0.0232
     18 H         -12.6507  -70.1220   16.5480 H         1 MOL     0.0232
     19 H         -10.5062  -69.2392   17.4801 H         1 MOL     0.0299
     20 H         -10.3407  -71.9286   19.0291 H         1 MOL     0.0232
     21 H         -10.6210  -70.3029   19.7503 H         1 MOL     0.0232
     22 H          -9.0465  -70.6778   18.9569 H         1 MOL     0.0232
     23 H         -10.7782  -71.3357   15.5945 H         1 MOL     0.0316
     24 H          -9.4129  -71.8829   16.6474 H         1 MOL     0.0316
     25 H          -7.6977  -69.8542   17.2240 H         1 MOL     0.0620
     26 H          -6.2256  -68.2984   15.9981 H         1 MOL     0.0621
     27 H          -8.8428  -68.4923   12.6003 H         1 MOL     0.0621
     28 H         -10.3313  -70.0305   13.8377 H         1 MOL     0.0620
     29 H          -5.4615  -67.4816   13.9867 H         1 MOL     0.0406
     30 H          -7.3311  -67.7228   11.5312 H         1 MOL     0.0239
     31 H          -6.0096  -68.8680   11.9718 H         1 MOL     0.0239
     32 H          -5.6085  -67.1697   11.4934 H         1 MOL     0.0239
@<TRIPOS>BOND
     1    1    2 1 
     2    1   16 1 
     3    1   17 1 
     4    1   18 1 
     5    2    3 1 
     6    2    4 1 
     7    2   19 1 
     8    3   20 1 
     9    3   21 1 
    10    3   22 1 
    11    4    5 1 
    12    4   23 1 
    13    4   24 1 
    14    5    6 ar
    15    5   10 ar
    16    6    7 ar
    17    6   25 1 
    18    7    8 ar
    19    7   26 1 
    20    8    9 ar
    21    8   11 1 
    22    9   10 ar
    23    9   27 1 
    24   10   28 1 
    25   11   12 1 
    26   11   13 1 
    27   11   29 1 
    28   12   30 1 
    29   12   31 1 
    30   12   32 1 
    31   13   14 ar
    32   13   15 ar
@<TRIPOS>SUBSTRUCTURE
1 MOL         1
@<TRIPOS>MOLECULE
query molecule
   32    32     1     0     0
SMALL
NO_CHARGE

@<TRIPOS>ATOM
      1 C         -38.4934  -68.7927   18.2411 C.3       1 MOL     0.0072
      2 C         -38.6316  -67.9967   19.5650 C.3       1 MOL    -0.0128
      3 C         -37.2489  -67.7711   20.2331 C.3       1 MOL     0.0072
      4 C         -39.3735  -66.6558   19.3676 C.3       1 MOL     0.0379
      5 C         -40.8469  -66.8102   19.5044 C.ar      1 MOL    -0.0471
      6 C         -41.4281  -66.8047   20.7780 C.ar      1 MOL     0.0037
      7 C         -42.8085  -66.9617   20.9224 C.ar      1 MOL     0.0044
      8 C         -43.6310  -67.1098   19.7985 C.ar      1 MOL    -0.0391
      9 C         -43.0453  -67.0852   18.5206 C.ar      1 MOL     0.0044
     10 C         -41.6627  -66.9438   18.3785 C.ar      1 MOL     0.0037
     11 C         -45.1084  -67.3186   19.8910 C.3       1 MOL     0.0614
     12 C         -45.3567  -68.7876   20.3074 C.3       1 MOL     0.0185
     13 C         -45.7940  -66.3818   20.8859 C.2       1 MOL     0.0489
     14 O         -45.6873  -66.6464   22.1184 O.co2     1 MOL    -0.5492
     15 O         -46.4309  -65.4241   20.3634 O.co2     1 MOL    -0.5492
     16 H         -37.9930  -69.7668   18.4256 H         1 MOL     0.0232
     17 H         -37.8848  -68.2185   17.5097 H         1 MOL     0.0232
     18 H         -39.4911  -68.9861   17.7948 H         1 MOL     0.0232
     19 H         -39.2392  -68.6133   20.2740 H         1 MOL     0.0299
     20 H         -36.6010  -67.1458   19.5846 H         1 MOL     0.0232
     21 H         -36.7440  -68.7451   20.4053 H         1 MOL     0.0232
     22 H         -37.3725  -67.2594   21.2104 H         1 MOL     0.0232
     23 H         -39.1493  -66.2171   18.3762 H         1 MOL     0.0316
     24 H         -39.0578  -65.9390   20.1576 H         1 MOL     0.0316
     25 H         -40.8044  -66.6857   21.6517 H         1 MOL     0.0620
     26 H         -43.2463  -66.9687   21.9107 H         1 MOL     0.0621
     27 H         -43.6660  -67.1868   17.6417 H         1 MOL     0.0621
     28 H         -41.2216  -66.9407   17.3918 H         1 MOL     0.0620
     29 H         -45.5666  -67.1723   18.8818 H         1 MOL     0.0406
     30 H         -44.8782  -68.9899   21.2900 H         1 MOL     0.0239
     31 H         -44.9327  -69.4914   19.5595 H         1 MOL     0.0239
     32 H         -46.4460  -68.9832   20.3990 H         1 MOL     0.0239
@<TRIPOS>BOND
     1    1    2 1 
     2    1   16 1 
     3    1   17 1 
     4    1   18 1 
     5    2    3 1 
     6    2    4 1 
     7    2   19 1 
     8    3   20 1 
     9    3   21 1 
    10    3   22 1 
    11    4    5 1 
    12    4   23 1 
    13    4   24 1 
    14    5    6 ar
    15    5   10 ar
    16    6    7 ar
    17    6   25 1 
    18    7    8 ar
    19    7   26 1 
    20    8    9 ar
    21    8   11 1 
    22    9   10 ar
    23    9   27 1 
    24   10   28 1 
    25   11   12 1 
    26   11   13 1 
    27   11   29 1 
    28   12   30 1 
    29   12   31 1 
    30   12   32 1 
    31   13   14 ar
    32   13   15 ar
@<TRIPOS>SUBSTRUCTURE
1 MOL         1
@<TRIPOS>MOLECULE
query molecule
   32    32     1     0     0
SMALL
NO_CHARGE

@<TRIPOS>ATOM
      1 C         -23.9761  -34.4874   -7.1308 C.3       1 MOL     0.0072
      2 C         -23.0687  -35.0519   -8.2522 C.3       1 MOL    -0.0128
      3 C         -23.5294  -34.5520   -9.6448 C.3       1 MOL     0.0072
      4 C         -21.5771  -34.7283   -7.9936 C.3       1 MOL     0.0379
      5 C         -20.8791  -35.9093   -7.4153 C.ar      1 MOL    -0.0471
      6 C         -20.2689  -36.8634   -8.2389 C.ar      1 MOL     0.0037
      7 C         -19.5997  -37.9591   -7.6749 C.ar      1 MOL     0.0044
      8 C         -19.5337  -38.1122   -6.2775 C.ar      1 MOL    -0.0391
      9 C         -20.1507  -37.1448   -5.4696 C.ar      1 MOL     0.0044
     10 C         -20.8154  -36.0558   -6.0277 C.ar      1 MOL     0.0037
     11 C         -18.8100  -39.2965   -5.6954 C.3       1 MOL     0.0614
     12 C         -17.8749  -38.8338   -4.5508 C.3       1 MOL     0.0185
     13 C         -19.7827  -40.3486   -5.1346 C.2       1 MOL     0.0489
     14 O         -19.2410  -41.3049   -4.5009 O.co2     1 MOL    -0.5492
     15 O         -21.0171  -40.2006   -5.3660 O.co2     1 MOL    -0.5492
     16 H         -25.0335  -34.7733   -7.3112 H         1 MOL     0.0232
     17 H         -23.9110  -33.3784   -7.1118 H         1 MOL     0.0232
     18 H         -23.6609  -34.8790   -6.1415 H         1 MOL     0.0232
     19 H         -23.1735  -36.1662   -8.2547 H         1 MOL     0.0299
     20 H         -23.4570  -33.4462   -9.7062 H         1 MOL     0.0232
     21 H         -24.5841  -34.8474   -9.8287 H         1 MOL     0.0232
     22 H         -22.8970  -34.9924  -10.4445 H         1 MOL     0.0232
     23 H         -21.4794  -33.8821   -7.2829 H         1 MOL     0.0316
     24 H         -21.0605  -34.4728   -8.9420 H         1 MOL     0.0316
     25 H         -20.3122  -36.7533   -9.3130 H         1 MOL     0.0620
     26 H         -19.1324  -38.6893   -8.3207 H         1 MOL     0.0621
     27 H         -20.1019  -37.2486   -4.3936 H         1 MOL     0.0621
     28 H         -21.2755  -35.3217   -5.3850 H         1 MOL     0.0620
     29 H         -18.1811  -39.7855   -6.4793 H         1 MOL     0.0406
     30 H         -18.4709  -38.3157   -3.7682 H         1 MOL     0.0239
     31 H         -17.1118  -38.1263   -4.9383 H         1 MOL     0.0239
     32 H         -17.3584  -39.6980   -4.0866 H         1 MOL     0.0239
@<TRIPOS>BOND
     1    1    2 1 
     2    1   16 1 
     3    1   17 1 
     4    1   18 1 
     5    2    3 1 
     6    2    4 1 
     7    2   19 1 
     8    3   20 1 
     9    3   21 1 
    10    3   22 1 
    11    4    5 1 
    12    4   23 1 
    13    4   24 1 
    14    5    6 ar
    15    5   10 ar
    16    6    7 ar
    17    6   25 1 
    18    7    8 ar
    19    7   26 1 
    20    8    9 ar
    21    8   11 1 
    22    9   10 ar
    23    9   27 1 
    24   10   28 1 
    25   11   12 1 
    26   11   13 1 
    27   11   29 1 
    28   12   30 1 
    29   12   31 1 
    30   12   32 1 
    31   13   14 ar
    32   13   15 ar
@<TRIPOS>SUBSTRUCTURE
1 MOL         1
@<TRIPOS>MOLECULE
query molecule
   32    32     1     0     0
SMALL
NO_CHARGE

@<TRIPOS>ATOM
      1 C         -47.9592  -51.0031   22.6451 C.3       1 MOL     0.0072
      2 C         -49.2092  -50.2235   22.1772 C.3       1 MOL    -0.0128
      3 C         -50.3317  -51.1989   21.7464 C.3       1 MOL     0.0072
      4 C         -49.6785  -49.2290   23.2633 C.3       1 MOL     0.0379
      5 C         -50.4408  -48.1028   22.6537 C.ar      1 MOL    -0.0471
      6 C         -49.7633  -46.9618   22.2072 C.ar      1 MOL     0.0037
      7 C         -50.4785  -45.8931   21.6662 C.ar      1 MOL     0.0044
      8 C         -51.8828  -45.9488   21.5499 C.ar      1 MOL    -0.0391
      9 C         -52.5485  -47.0990   22.0004 C.ar      1 MOL     0.0044
     10 C         -51.8348  -48.1689   22.5454 C.ar      1 MOL     0.0037
     11 C         -52.6085  -44.7833   20.9444 C.3       1 MOL     0.0614
     12 C         -53.6011  -45.2835   19.8747 C.3       1 MOL     0.0185
     13 C         -53.3996  -44.0019   21.9958 C.2       1 MOL     0.0489
     14 O         -54.3289  -44.6079   22.5985 O.co2     1 MOL    -0.5492
     15 O         -53.0400  -42.8011   22.1608 O.co2     1 MOL    -0.5492
     16 H         -47.6005  -51.6746   21.8368 H         1 MOL     0.0232
     17 H         -48.1962  -51.6264   23.5328 H         1 MOL     0.0232
     18 H         -47.1390  -50.3058   22.9130 H         1 MOL     0.0232
     19 H         -48.9027  -49.6219   21.2849 H         1 MOL     0.0299
     20 H         -50.6511  -51.8342   22.5975 H         1 MOL     0.0232
     21 H         -49.9646  -51.8583   20.9304 H         1 MOL     0.0232
     22 H         -51.2106  -50.6365   21.3686 H         1 MOL     0.0232
     23 H         -48.8015  -48.7837   23.7817 H         1 MOL     0.0316
     24 H         -50.3275  -49.7277   24.0100 H         1 MOL     0.0316
     25 H         -48.6867  -46.9054   22.2841 H         1 MOL     0.0620
     26 H         -49.9525  -45.0129   21.3206 H         1 MOL     0.0621
     27 H         -53.6260  -47.1583   21.9301 H         1 MOL     0.0621
     28 H         -52.3580  -49.0491   22.8903 H         1 MOL     0.0620
     29 H         -51.8699  -44.0888   20.4756 H         1 MOL     0.0406
     30 H         -54.3982  -45.8945   20.3473 H         1 MOL     0.0239
     31 H         -53.0710  -45.9025   19.1220 H         1 MOL     0.0239
     32 H         -54.0714  -44.4205   19.3585 H         1 MOL     0.0239
@<TRIPOS>BOND
     1    1    2 1 
     2    1   16 1 
     3    1   17 1 
     4    1   18 1 
     5    2    3 1 
     6    2    4 1 
     7    2   19 1 
     8    3   20 1 
     9    3   21 1 
    10    3   22 1 
    11    4    5 1 
    12    4   23 1 
    13    4   24 1 
    14    5    6 ar
    15    5   10 ar
    16    6    7 ar
    17    6   25 1 
    18    7    8 ar
    19    7   26 1 
    20    8    9 ar
    21    8   11 1 
    22    9   10 ar
    23    9   27 1 
    24   10   28 1 
    25   11   12 1 
    26   11   13 1 
    27   11   29 1 
    28   12   30 1 
    29   12   31 1 
    30   12   32 1 
    31   13   14 ar
    32   13   15 ar
@<TRIPOS>SUBSTRUCTURE
1 MOL         1
@<TRIPOS>MOLECULE
query molecule
   32    32     1     0     0
SMALL
NO_CHARGE

@<TRIPOS>ATOM
      1 C         -51.3310  -75.3898  -10.8723 C.3       1 MOL     0.0072
      2 C         -50.8810  -73.9909  -10.3747 C.3       1 MOL    -0.0128
      3 C         -50.0443  -74.1003   -9.0715 C.3       1 MOL     0.0072
      4 C         -50.1418  -73.2034  -11.4884 C.3       1 MOL     0.0379
      5 C         -50.5665  -71.7767  -11.4783 C.ar      1 MOL    -0.0471
      6 C         -51.4727  -71.3088  -12.4376 C.ar      1 MOL     0.0037
      7 C         -51.8765  -69.9689  -12.4267 C.ar      1 MOL     0.0044
      8 C         -51.3869  -69.0736  -11.4611 C.ar      1 MOL    -0.0391
      9 C         -50.4774  -69.5650  -10.5156 C.ar      1 MOL     0.0044
     10 C         -50.0647  -70.8946  -10.5181 C.ar      1 MOL     0.0037
     11 C         -51.7864  -67.6232  -11.4296 C.3       1 MOL     0.0614
     12 C         -53.2255  -67.4424  -11.9693 C.3       1 MOL     0.0185
     13 C         -51.6944  -67.0390  -10.0025 C.2       1 MOL     0.0489
     14 O         -50.7068  -66.2733   -9.7671 O.co2     1 MOL    -0.5492
     15 O         -52.5881  -67.4192   -9.1835 O.co2     1 MOL    -0.5492
     16 H         -51.8960  -75.9175  -10.0750 H         1 MOL     0.0232
     17 H         -50.4511  -76.0059  -11.1511 H         1 MOL     0.0232
     18 H         -51.9883  -75.2863  -11.7615 H         1 MOL     0.0232
     19 H         -51.8146  -73.4214  -10.1326 H         1 MOL     0.0299
     20 H         -49.1068  -74.6646   -9.2630 H         1 MOL     0.0232
     21 H         -50.6203  -74.6322   -8.2851 H         1 MOL     0.0232
     22 H         -49.7783  -73.0908   -8.6945 H         1 MOL     0.0232
     23 H         -50.4068  -73.6124  -12.4863 H         1 MOL     0.0316
     24 H         -49.0446  -73.2516  -11.3506 H         1 MOL     0.0316
     25 H         -51.8548  -71.9842  -13.1879 H         1 MOL     0.0620
     26 H         -52.5776  -69.6228  -13.1760 H         1 MOL     0.0621
     27 H         -50.0906  -68.8896   -9.7638 H         1 MOL     0.0621
     28 H         -49.3630  -71.2411   -9.7727 H         1 MOL     0.0620
     29 H         -51.0990  -67.0468  -12.0980 H         1 MOL     0.0406
     30 H         -53.9450  -68.0117  -11.3420 H         1 MOL     0.0239
     31 H         -53.2990  -67.8205  -13.0126 H         1 MOL     0.0239
     32 H         -53.5157  -66.3711  -11.9606 H         1 MOL     0.0239
@<TRIPOS>BOND
     1    1    2 1 
     2    1   16 1 
     3    1   17 1 
     4    1   18 1 
     5    2    3 1 
     6    2    4 1 
     7    2   19 1 
     8    3   20 1 
     9    3   21 1 
    10    3   22 1 
    11    4    5 1 
    12    4   23 1 
    13    4   24 1 
    14    5    6 ar
    15    5   10 ar
    16    6    7 ar
    17    6   25 1 
    18    7    8 ar
    19    7   26 1 
    20    8    9 ar
    21    8   11 1 
    22    9   10 ar
    23    9   27 1 
    24   10   28 1 
    25   11   12 1 
    26   11   13 1 
    27   11   29 1 
    28   12   30 1 
    29   12   31 1 
    30   12   32 1 
    31   13   14 ar
    32   13   15 ar
@<TRIPOS>SUBSTRUCTURE
1 MOL         1
@<TRIPOS>MOLECULE
query molecule
   32    32     1     0     0
SMALL
NO_CHARGE

@<TRIPOS>ATOM
      1 C         -60.6466  -34.3609   -1.9443 C.3       1 MOL     0.0072
      2 C         -61.6121  -35.5735   -2.0380 C.3       1 MOL    -0.0128
      3 C         -62.2452  -35.9019   -0.6702 C.3       1 MOL     0.0072
      4 C         -62.7146  -35.3762   -3.1094 C.3       1 MOL     0.0379
      5 C         -62.2532  -35.9246   -4.4103 C.ar      1 MOL    -0.0471
      6 C         -61.7049  -35.0616   -5.3618 C.ar      1 MOL     0.0037
      7 C         -61.2856  -35.5577   -6.5940 C.ar      1 MOL     0.0044
      8 C         -61.3795  -36.9228   -6.8832 C.ar      1 MOL    -0.0391
      9 C         -61.9386  -37.7870   -5.9221 C.ar      1 MOL     0.0044
     10 C         -62.3774  -37.2896   -4.6906 C.ar      1 MOL     0.0037
     11 C         -60.9316  -37.5070   -8.1694 C.3       1 MOL     0.0614
     12 C         -61.9541  -37.1568   -9.2693 C.3       1 MOL     0.0185
     13 C         -59.5531  -37.1184   -8.6506 C.2       1 MOL     0.0489
     14 O         -58.8290  -36.2765   -8.0575 O.co2     1 MOL    -0.5492
     15 O         -59.2127  -37.8193   -9.6537 O.co2     1 MOL    -0.5492
     16 H         -59.8570  -34.5610   -1.1897 H         1 MOL     0.0232
     17 H         -61.2059  -33.4521   -1.6363 H         1 MOL     0.0232
     18 H         -60.1629  -34.1658   -2.9234 H         1 MOL     0.0232
     19 H         -61.0056  -36.4654   -2.3497 H         1 MOL     0.0299
     20 H         -62.8755  -35.0581   -0.3258 H         1 MOL     0.0232
     21 H         -61.4515  -36.0963    0.0831 H         1 MOL     0.0232
     22 H         -62.8807  -36.8119   -0.7634 H         1 MOL     0.0232
     23 H         -62.9630  -34.3057   -3.2375 H         1 MOL     0.0316
     24 H         -63.6287  -35.9376   -2.8220 H         1 MOL     0.0316
     25 H         -61.6087  -34.0086   -5.1431 H         1 MOL     0.0620
     26 H         -60.8788  -34.8825   -7.3339 H         1 MOL     0.0621
     27 H         -62.0414  -38.8421   -6.1339 H         1 MOL     0.0621
     28 H         -62.8147  -37.9516   -3.9576 H         1 MOL     0.0620
     29 H         -60.9377  -38.6239   -8.0699 H         1 MOL     0.0406
     30 H         -62.0409  -36.0600   -9.3993 H         1 MOL     0.0239
     31 H         -62.9497  -37.5699   -9.0052 H         1 MOL     0.0239
     32 H         -61.6333  -37.6070  -10.2340 H         1 MOL     0.0239
@<TRIPOS>BOND
     1    1    2 1 
     2    1   16 1 
     3    1   17 1 
     4    1   18 1 
     5    2    3 1 
     6    2    4 1 
     7    2   19 1 
     8    3   20 1 
     9    3   21 1 
    10    3   22 1 
    11    4    5 1 
    12    4   23 1 
    13    4   24 1 
    14    5    6 ar
    15    5   10 ar
    16    6    7 ar
    17    6   25 1 
    18    7    8 ar
    19    7   26 1 
    20    8    9 ar
    21    8   11 1 
    22    9   10 ar
    23    9   27 1 
    24   10   28 1 
    25   11   12 1 
    26   11   13 1 
    27   11   29 1 
    28   12   30 1 
    29   12   31 1 
    30   12   32 1 
    31   13   14 ar
    32   13   15 ar
@<TRIPOS>SUBSTRUCTURE
1 MOL         1
@<TRIPOS>MOLECULE
query molecule
   32    32     1     0     0
SMALL
NO_CHARGE

@<TRIPOS>ATOM
      1 C         -40.8718  -33.8126  -18.7061 C.3       1 MOL     0.0072
      2 C         -39.6556  -34.3383  -19.5116 C.3       1 MOL    -0.0128
      3 C         -39.6733  -33.7724  -20.9554 C.3       1 MOL     0.0072
      4 C         -38.3387  -34.0813  -18.7358 C.3       1 MOL     0.0379
      5 C         -37.1324  -34.6098  -19.4297 C.ar      1 MOL    -0.0471
      6 C         -36.0170  -33.7699  -19.5676 C.ar      1 MOL     0.0037
      7 C         -34.8716  -34.2205  -20.2314 C.ar      1 MOL     0.0044
      8 C         -34.8255  -35.5135  -20.7632 C.ar      1 MOL    -0.0391
      9 C         -35.9423  -36.3518  -20.6086 C.ar      1 MOL     0.0044
     10 C         -37.0820  -35.9083  -19.9428 C.ar      1 MOL     0.0037
     11 C         -33.6474  -36.0644  -21.5049 C.3       1 MOL     0.0614
     12 C         -33.8326  -35.7073  -22.9939 C.3       1 MOL     0.0185
     13 C         -32.3082  -35.5646  -20.9588 C.2       1 MOL     0.0489
     14 O         -31.9324  -36.1176  -19.8844 O.co2     1 MOL    -0.5492
     15 O         -31.6873  -34.6783  -21.6140 O.co2     1 MOL    -0.5492
     16 H         -41.8204  -34.0677  -19.2245 H         1 MOL     0.0232
     17 H         -40.8120  -32.7078  -18.6084 H         1 MOL     0.0232
     18 H         -40.8926  -34.2611  -17.6912 H         1 MOL     0.0232
     19 H         -39.7754  -35.4501  -19.5965 H         1 MOL     0.0299
     20 H         -39.5472  -32.6701  -20.9394 H         1 MOL     0.0232
     21 H         -40.6363  -34.0131  -21.4536 H         1 MOL     0.0232
     22 H         -38.8498  -34.2178  -21.5530 H         1 MOL     0.0232
     23 H         -38.3853  -34.5660  -17.7367 H         1 MOL     0.0316
     24 H         -38.1933  -32.9878  -18.6003 H         1 MOL     0.0316
     25 H         -36.0402  -32.7692  -19.1607 H         1 MOL     0.0620
     26 H         -34.0176  -33.5653  -20.3315 H         1 MOL     0.0621
     27 H         -35.9149  -37.3543  -21.0143 H         1 MOL     0.0621
     28 H         -37.9326  -36.5643  -19.8307 H         1 MOL     0.0620
     29 H         -33.6618  -37.1815  -21.4273 H         1 MOL     0.0406
     30 H         -33.8384  -34.6056  -23.1289 H         1 MOL     0.0239
     31 H         -34.7988  -36.1072  -23.3698 H         1 MOL     0.0239
     32 H         -33.0092  -36.1380  -23.6014 H         1 MOL     0.0239
@<TRIPOS>BOND
     1    1    2 1 
     2    1   16 1 
     3    1   17 1 
     4    1   18 1 
     5    2    3 1 
     6    2    4 1 
     7    2   19 1 
     8    3   20 1 
     9    3   21 1 
    10    3   22 1 
    11    4    5 1 
    12    4   23 1 
    13    4   24 1 
    14    5    6 ar
    15    5   10 ar
    16    6    7 ar
    17    6   25 1 
    18    7    8 ar
    19    7   26 1 
    20    8    9 ar
    21    8   11 1 
    22    9   10 ar
    23    9   27 1 
    24   10   28 1 
    25   11   12 1 
    26   11   13 1 
    27   11   29 1 
    28   12   30 1 
    29   12   31 1 
    30   12   32 1 
    31   13   14 ar
    32   13   15 ar
@<TRIPOS>SUBSTRUCTURE
1 MOL         1
@<TRIPOS>MOLECULE
query molecule
   32    32     1     0     0
SMALL
NO_CHARGE

@<TRIPOS>ATOM
      1 C         -13.2753  -59.4641   10.0166 C.3       1 MOL     0.0072
      2 C         -11.9614  -60.0611   10.5652 C.3       1 MOL    -0.0128
      3 C         -12.2619  -61.4258   11.2234 C.3       1 MOL     0.0072
      4 C         -10.8298  -60.2316    9.5275 C.3       1 MOL     0.0379
      5 C         -10.0634  -58.9775    9.3527 C.ar      1 MOL    -0.0471
      6 C          -8.9901  -58.6732   10.1934 C.ar      1 MOL     0.0037
      7 C          -8.2891  -57.4731   10.0287 C.ar      1 MOL     0.0044
      8 C          -8.6564  -56.5701    9.0171 C.ar      1 MOL    -0.0391
      9 C          -9.6990  -56.9128    8.1469 C.ar      1 MOL     0.0044
     10 C         -10.4028  -58.1018    8.3217 C.ar      1 MOL     0.0037
     11 C          -7.9410  -55.2511    8.9126 C.3       1 MOL     0.0614
     12 C          -7.0833  -55.2694    7.6305 C.3       1 MOL     0.0185
     13 C          -8.9567  -54.1016    8.8985 C.2       1 MOL     0.0489
     14 O          -9.7697  -54.0676    9.8747 O.co2     1 MOL    -0.5492
     15 O          -8.9690  -53.3104    7.9101 O.co2     1 MOL    -0.5492
     16 H         -14.0160  -59.3416   10.8333 H         1 MOL     0.0232
     17 H         -13.7077  -60.1574    9.2596 H         1 MOL     0.0232
     18 H         -13.1019  -58.4840    9.5301 H         1 MOL     0.0232
     19 H         -11.5799  -59.3707   11.3584 H         1 MOL     0.0299
     20 H         -12.6172  -62.1563   10.4704 H         1 MOL     0.0232
     21 H         -13.0257  -61.3128   12.0185 H         1 MOL     0.0232
     22 H         -11.3270  -61.8166   11.6844 H         1 MOL     0.0232
     23 H         -11.2355  -60.5338    8.5409 H         1 MOL     0.0316
     24 H         -10.1072  -60.9981    9.8773 H         1 MOL     0.0316
     25 H          -8.7020  -59.3639   10.9718 H         1 MOL     0.0620
     26 H          -7.4653  -57.2382   10.6883 H         1 MOL     0.0621
     27 H          -9.9645  -56.2429    7.3435 H         1 MOL     0.0621
     28 H         -11.2177  -58.3401    7.6526 H         1 MOL     0.0620
     29 H          -7.2618  -55.1149    9.7892 H         1 MOL     0.0406
     30 H          -7.7353  -55.3620    6.7365 H         1 MOL     0.0239
     31 H          -6.3801  -56.1288    7.6527 H         1 MOL     0.0239
     32 H          -6.4943  -54.3319    7.5451 H         1 MOL     0.0239
@<TRIPOS>BOND
     1    1    2 1 
     2    1   16 1 
     3    1   17 1 
     4    1   18 1 
     5    2    3 1 
     6    2    4 1 
     7    2   19 1 
     8    3   20 1 
     9    3   21 1 
    10    3   22 1 
    11    4    5 1 
    12    4   23 1 
    13    4   24 1 
    14    5    6 ar
    15    5   10 ar
    16    6    7 ar
    17    6   25 1 
    18    7    8 ar
    19    7   26 1 
    20    8    9 ar
    21    8   11 1 
    22    9   10 ar
    23    9   27 1 
    24   10   28 1 
    25   11   12 1 
    26   11   13 1 
    27   11   29 1 
    28   12   30 1 
    29   12   31 1 
    30   12   32 1 
    31   13   14 ar
    32   13   15 ar
@<TRIPOS>SUBSTRUCTURE
1 MOL         1
@<TRIPOS>MOLECULE
query molecule
   32    32     1     0     0
SMALL
NO_CHARGE

@<TRIPOS>ATOM
      1 C         -52.0783  -61.2968   23.3406 C.3       1 MOL     0.0072
      2 C         -50.9601  -60.2472   23.0932 C.3       1 MOL    -0.0128
      3 C         -51.4547  -59.1536   22.1172 C.3       1 MOL     0.0072
      4 C         -50.4270  -59.6843   24.4307 C.3       1 MOL     0.0379
      5 C         -49.0318  -59.1693   24.4135 C.ar      1 MOL    -0.0471
      6 C         -48.5025  -58.6875   25.6257 C.ar      1 MOL     0.0037
      7 C         -47.1896  -58.2062   25.6963 C.ar      1 MOL     0.0044
      8 C         -46.3659  -58.1910   24.5638 C.ar      1 MOL    -0.0391
      9 C         -46.9123  -58.6760   23.3647 C.ar      1 MOL     0.0044
     10 C         -48.2197  -59.1500   23.2819 C.ar      1 MOL     0.0037
     11 C         -44.9560  -57.6668   24.5437 C.3       1 MOL     0.0614
     12 C         -44.5959  -56.8956   25.8266 C.3       1 MOL     0.0185
     13 C         -43.9344  -58.7810   24.3416 C.2       1 MOL     0.0489
     14 O         -43.7921  -59.6089   25.2886 O.co2     1 MOL    -0.5492
     15 O         -43.3293  -58.7798   23.2333 O.co2     1 MOL    -0.5492
     16 H         -52.4276  -61.7294   22.3817 H         1 MOL     0.0232
     17 H         -52.9445  -60.8249   23.8470 H         1 MOL     0.0232
     18 H         -51.7022  -62.1193   23.9831 H         1 MOL     0.0232
     19 H         -50.1134  -60.7909   22.5982 H         1 MOL     0.0299
     20 H         -52.2980  -58.5912   22.5705 H         1 MOL     0.0232
     21 H         -51.8036  -59.6098   21.1675 H         1 MOL     0.0232
     22 H         -50.6352  -58.4411   21.8900 H         1 MOL     0.0232
     23 H         -50.4328  -60.5151   25.1777 H         1 MOL     0.0316
     24 H         -51.0947  -58.8797   24.8031 H         1 MOL     0.0316
     25 H         -49.1207  -58.6916   26.5131 H         1 MOL     0.0620
     26 H         -46.8114  -57.8378   26.6403 H         1 MOL     0.0621
     27 H         -46.2977  -58.6731   22.4723 H         1 MOL     0.0621
     28 H         -48.6047  -59.5052   22.3373 H         1 MOL     0.0620
     29 H         -44.8574  -56.9480   23.6908 H         1 MOL     0.0406
     30 H         -44.6256  -57.5739   26.7047 H         1 MOL     0.0239
     31 H         -45.3207  -56.0719   25.9990 H         1 MOL     0.0239
     32 H         -43.5786  -56.4617   25.7475 H         1 MOL     0.0239
@<TRIPOS>BOND
     1    1    2 1 
     2    1   16 1 
     3    1   17 1 
     4    1   18 1 
     5    2    3 1 
     6    2    4 1 
     7    2   19 1 
     8    3   20 1 
     9    3   21 1 
    10    3   22 1 
    11    4    5 1 
    12    4   23 1 
    13    4   24 1 
    14    5    6 ar
    15    5   10 ar
    16    6    7 ar
    17    6   25 1 
    18    7    8 ar
    19    7   26 1 
    20    8    9 ar
    21    8   11 1 
    22    9   10 ar
    23    9   27 1 
    24   10   28 1 
    25   11   12 1 
    26   11   13 1 
    27   11   29 1 
    28   12   30 1 
    29   12   31 1 
    30   12   32 1 
    31   13   14 ar
    32   13   15 ar
@<TRIPOS>SUBSTRUCTURE
1 MOL         1
@<TRIPOS>MOLECULE
query molecule
   32    32     1     0     0
SMALL
NO_CHARGE

@<TRIPOS>ATOM
      1 C         -22.7365  -34.3634  -13.0562 C.3       1 MOL     0.0072
      2 C         -21.9130  -35.0568  -11.9399 C.3       1 MOL    -0.0128
      3 C         -21.2319  -36.3501  -12.4556 C.3       1 MOL     0.0072
      4 C         -20.8689  -34.1086  -11.2986 C.3       1 MOL     0.0379
      5 C         -21.4887  -33.3671  -10.1664 C.ar      1 MOL    -0.0471
      6 C         -21.4017  -33.8853   -8.8686 C.ar      1 MOL     0.0037
      7 C         -21.9883  -33.1984   -7.8011 C.ar      1 MOL     0.0044
      8 C         -22.6731  -31.9902   -8.0231 C.ar      1 MOL    -0.0391
      9 C         -22.7300  -31.4680   -9.3220 C.ar      1 MOL     0.0044
     10 C         -22.1460  -32.1534  -10.3890 C.ar      1 MOL     0.0037
     11 C         -23.3182  -31.3087   -6.8594 C.3       1 MOL     0.0614
     12 C         -22.8749  -29.8400   -6.7666 C.3       1 MOL     0.0185
     13 C         -24.8423  -31.4052   -6.9543 C.2       1 MOL     0.0489
     14 O         -25.3288  -32.2356   -6.1419 O.co2     1 MOL    -0.5492
     15 O         -25.4555  -30.6882   -7.8015 O.co2     1 MOL    -0.5492
     16 H         -23.5016  -35.0586  -13.4605 H         1 MOL     0.0232
     17 H         -22.0680  -34.0518  -13.8869 H         1 MOL     0.0232
     18 H         -23.2494  -33.4625  -12.6596 H         1 MOL     0.0232
     19 H         -22.6237  -35.3620  -11.1299 H         1 MOL     0.0299
     20 H         -20.5006  -36.1100  -13.2546 H         1 MOL     0.0232
     21 H         -21.9903  -37.0508  -12.8615 H         1 MOL     0.0232
     22 H         -20.6951  -36.8520  -11.6223 H         1 MOL     0.0232
     23 H         -20.4775  -33.3804  -12.0337 H         1 MOL     0.0316
     24 H         -20.0255  -34.6979  -10.8780 H         1 MOL     0.0316
     25 H         -20.8780  -34.8148   -8.6964 H         1 MOL     0.0620
     26 H         -21.9088  -33.6027   -6.8021 H         1 MOL     0.0621
     27 H         -23.2271  -30.5250   -9.4985 H         1 MOL     0.0621
     28 H         -22.2004  -31.7474  -11.3886 H         1 MOL     0.0620
     29 H         -23.0067  -31.8328   -5.9189 H         1 MOL     0.0406
     30 H         -23.1540  -29.2740   -7.6804 H         1 MOL     0.0239
     31 H         -21.7724  -29.7744   -6.6410 H         1 MOL     0.0239
     32 H         -23.3545  -29.3597   -5.8875 H         1 MOL     0.0239
@<TRIPOS>BOND
     1    1    2 1 
     2    1   16 1 
     3    1   17 1 
     4    1   18 1 
     5    2    3 1 
     6    2    4 1 
     7    2   19 1 
     8    3   20 1 
     9    3   21 1 
    10    3   22 1 
    11    4    5 1 
    12    4   23 1 
    13    4   24 1 
    14    5    6 ar
    15    5   10 ar
    16    6    7 ar
    17    6   25 1 
    18    7    8 ar
    19    7   26 1 
    20    8    9 ar
    21    8   11 1 
    22    9   10 ar
    23    9   27 1 
    24   10   28 1 
    25   11   12 1 
    26   11   13 1 
    27   11   29 1 
    28   12   30 1 
    29   12   31 1 
    30   12   32 1 
    31   13   14 ar
    32   13   15 ar
@<TRIPOS>SUBSTRUCTURE
1 MOL         1
@<TRIPOS>MOLECULE
query molecule
   32    32     1     0     0
SMALL
NO_CHARGE

@<TRIPOS>ATOM
      1 C         -25.5644  -38.8869  -18.0226 C.3       1 MOL     0.0072
      2 C         -26.2208  -40.1632  -18.6068 C.3       1 MOL    -0.0128
      3 C         -25.2460  -41.3670  -18.5783 C.3       1 MOL     0.0072
      4 C         -27.5704  -40.4776  -17.9111 C.3       1 MOL     0.0379
      5 C         -28.4797  -41.2380  -18.8153 C.ar      1 MOL    -0.0471
      6 C         -28.6766  -40.8269  -20.1388 C.ar      1 MOL     0.0037
      7 C         -29.5656  -41.5065  -20.9676 C.ar      1 MOL     0.0044
      8 C         -30.2766  -42.6181  -20.4845 C.ar      1 MOL    -0.0391
      9 C         -30.0629  -43.0443  -19.1695 C.ar      1 MOL     0.0044
     10 C         -29.1651  -42.3618  -18.3428 C.ar      1 MOL     0.0037
     11 C         -31.2301  -43.2725  -21.4283 C.3       1 MOL     0.0614
     12 C         -31.2090  -44.7975  -21.2827 C.3       1 MOL     0.0185
     13 C         -32.6274  -42.7122  -21.1930 C.2       1 MOL     0.0489
     14 O         -33.3353  -43.1891  -20.2645 O.co2     1 MOL    -0.5492
     15 O         -32.9536  -41.7756  -21.9742 O.co2     1 MOL    -0.5492
     16 H         -24.6311  -38.6456  -18.5721 H         1 MOL     0.0232
     17 H         -25.3214  -39.0439  -16.9518 H         1 MOL     0.0232
     18 H         -26.2600  -38.0259  -18.1103 H         1 MOL     0.0232
     19 H         -26.4464  -39.9412  -19.6813 H         1 MOL     0.0299
     20 H         -24.9892  -41.6177  -17.5279 H         1 MOL     0.0232
     21 H         -24.3102  -41.1223  -19.1232 H         1 MOL     0.0232
     22 H         -25.7102  -42.2564  -19.0538 H         1 MOL     0.0232
     23 H         -28.0931  -39.5263  -17.6696 H         1 MOL     0.0316
     24 H         -27.4122  -41.0604  -16.9832 H         1 MOL     0.0316
     25 H         -28.1319  -39.9756  -20.5189 H         1 MOL     0.0620
     26 H         -29.7108  -41.1741  -21.9854 H         1 MOL     0.0621
     27 H         -30.5963  -43.9050  -18.7895 H         1 MOL     0.0621
     28 H         -29.0055  -42.7001  -17.3300 H         1 MOL     0.0620
     29 H         -30.9341  -43.0119  -22.4775 H         1 MOL     0.0406
     30 H         -31.5130  -45.1003  -20.2594 H         1 MOL     0.0239
     31 H         -30.1806  -45.1753  -21.4707 H         1 MOL     0.0239
     32 H         -31.8957  -45.2680  -22.0157 H         1 MOL     0.0239
@<TRIPOS>BOND
     1    1    2 1 
     2    1   16 1 
     3    1   17 1 
     4    1   18 1 
     5    2    3 1 
     6    2    4 1 
     7    2   19 1 
     8    3   20 1 
     9    3   21 1 
    10    3   22 1 
    11    4    5 1 
    12    4   23 1 
    13    4   24 1 
    14    5    6 ar
    15    5   10 ar
    16    6    7 ar
    17    6   25 1 
    18    7    8 ar
    19    7   26 1 
    20    8    9 ar
    21    8   11 1 
    22    9   10 ar
    23    9   27 1 
    24   10   28 1 
    25   11   12 1 
    26   11   13 1 
    27   11   29 1 
    28   12   30 1 
    29   12   31 1 
    30   12   32 1 
    31   13   14 ar
    32   13   15 ar
@<TRIPOS>SUBSTRUCTURE
1 MOL         1
@<TRIPOS>MOLECULE
query molecule
   32    32     1     0     0
SMALL
NO_CHARGE

@<TRIPOS>ATOM
      1 C         -28.5917  -39.8774  -22.9139 C.3       1 MOL     0.0072
      2 C         -29.9383  -39.9572  -22.1449 C.3       1 MOL    -0.0128
      3 C         -30.9694  -38.9482  -22.7220 C.3       1 MOL     0.0072
      4 C         -30.5125  -41.3976  -22.0936 C.3       1 MOL     0.0379
      5 C         -29.8017  -42.2041  -21.0598 C.ar      1 MOL    -0.0471
      6 C         -28.6786  -42.9665  -21.3992 C.ar      1 MOL     0.0037
      7 C         -28.0221  -43.7269  -20.4264 C.ar      1 MOL     0.0044
      8 C         -28.4785  -43.7340  -19.1014 C.ar      1 MOL    -0.0391
      9 C         -29.6011  -42.9654  -18.7637 C.ar      1 MOL     0.0044
     10 C         -30.2607  -42.2114  -19.7382 C.ar      1 MOL     0.0037
     11 C         -27.8206  -44.5426  -18.0273 C.3       1 MOL     0.0614
     12 C         -28.0004  -46.0311  -18.3766 C.3       1 MOL     0.0185
     13 C         -26.3519  -44.1574  -17.8905 C.2       1 MOL     0.0489
     14 O         -25.4631  -44.9100  -18.3808 O.co2     1 MOL    -0.5492
     15 O         -26.1724  -43.0738  -17.2634 O.co2     1 MOL    -0.5492
     16 H         -28.1725  -38.8511  -22.8625 H         1 MOL     0.0232
     17 H         -28.7392  -40.1468  -23.9815 H         1 MOL     0.0232
     18 H         -27.8570  -40.5834  -22.4720 H         1 MOL     0.0232
     19 H         -29.7425  -39.6416  -21.0877 H         1 MOL     0.0299
     20 H         -31.2083  -39.1894  -23.7786 H         1 MOL     0.0232
     21 H         -30.5642  -37.9144  -22.6773 H         1 MOL     0.0232
     22 H         -31.9088  -38.9821  -22.1295 H         1 MOL     0.0232
     23 H         -30.4116  -41.8998  -23.0747 H         1 MOL     0.0316
     24 H         -31.5841  -41.3643  -21.8028 H         1 MOL     0.0316
     25 H         -28.3145  -42.9652  -22.4160 H         1 MOL     0.0620
     26 H         -27.1554  -44.3129  -20.6992 H         1 MOL     0.0621
     27 H         -29.9593  -42.9577  -17.7464 H         1 MOL     0.0621
     28 H         -31.1305  -41.6293  -19.4673 H         1 MOL     0.0620
     29 H         -28.3247  -44.3588  -17.0473 H         1 MOL     0.0406
     30 H         -27.5333  -46.2599  -19.3576 H         1 MOL     0.0239
     31 H         -29.0827  -46.2748  -18.4375 H         1 MOL     0.0239
     32 H         -27.5335  -46.6739  -17.6023 H         1 MOL     0.0239
@<TRIPOS>BOND
     1    1    2 1 
     2    1   16 1 
     3    1   17 1 
     4    1   18 1 
     5    2    3 1 
     6    2    4 1 
     7    2   19 1 
     8    3   20 1 
     9    3   21 1 
    10    3   22 1 
    11    4    5 1 
    12    4   23 1 
    13    4   24 1 
    14    5    6 ar
    15    5   10 ar
    16    6    7 ar
    17    6   25 1 
    18    7    8 ar
    19    7   26 1 
    20    8    9 ar
    21    8   11 1 
    22    9   10 ar
    23    9   27 1 
    24   10   28 1 
    25   11   12 1 
    26   11   13 1 
    27   11   29 1 
    28   12   30 1 
    29   12   31 1 
    30   12   32 1 
    31   13   14 ar
    32   13   15 ar
@<TRIPOS>SUBSTRUCTURE
1 MOL         1
@<TRIPOS>MOLECULE
query molecule
   32    32     1     0     0
SMALL
NO_CHARGE

@<TRIPOS>ATOM
      1 C         -13.6058  -65.5173  -12.0290 C.3       1 MOL     0.0072
      2 C         -14.7942  -65.2734  -12.9906 C.3       1 MOL    -0.0128
      3 C         -14.9719  -63.7643  -13.2924 C.3       1 MOL     0.0072
      4 C         -14.7023  -66.1324  -14.2785 C.3       1 MOL     0.0379
      5 C         -15.9959  -66.7795  -14.6544 C.ar      1 MOL    -0.0471
      6 C         -17.1485  -66.6511  -13.8822 C.ar      1 MOL     0.0037
      7 C         -18.3412  -67.2363  -14.2710 C.ar      1 MOL     0.0044
      8 C         -18.4346  -67.9634  -15.4599 C.ar      1 MOL    -0.0391
      9 C         -17.2718  -68.1400  -16.2277 C.ar      1 MOL     0.0044
     10 C         -16.0620  -67.5506  -15.8283 C.ar      1 MOL     0.0037
     11 C         -19.7453  -68.5372  -15.9198 C.3       1 MOL     0.0614
     12 C         -20.2885  -69.4872  -14.8331 C.3       1 MOL     0.0185
     13 C         -20.7339  -67.4039  -16.2222 C.2       1 MOL     0.0489
     14 O         -21.7098  -67.2203  -15.4368 O.co2     1 MOL    -0.5492
     15 O         -20.4534  -66.6889  -17.2341 O.co2     1 MOL    -0.5492
     16 H         -13.7721  -64.9726  -11.0753 H         1 MOL     0.0232
     17 H         -12.6578  -65.1596  -12.4811 H         1 MOL     0.0232
     18 H         -13.5088  -66.6002  -11.8055 H         1 MOL     0.0232
     19 H         -15.7138  -65.6174  -12.4483 H         1 MOL     0.0299
     20 H         -14.0830  -63.3451  -13.8030 H         1 MOL     0.0232
     21 H         -15.1419  -63.2047  -12.3477 H         1 MOL     0.0232
     22 H         -15.8601  -63.6165  -13.9456 H         1 MOL     0.0232
     23 H         -13.9667  -66.9537  -14.1276 H         1 MOL     0.0316
     24 H         -14.3700  -65.5075  -15.1347 H         1 MOL     0.0316
     25 H         -17.1144  -66.0793  -12.9646 H         1 MOL     0.0620
     26 H         -19.2197  -67.1171  -13.6514 H         1 MOL     0.0621
     27 H         -17.3073  -68.7294  -17.1325 H         1 MOL     0.0621
     28 H         -15.1728  -67.6877  -16.4281 H         1 MOL     0.0620
     29 H         -19.5920  -69.1291  -16.8532 H         1 MOL     0.0406
     30 H         -20.4963  -68.9314  -13.8951 H         1 MOL     0.0239
     31 H         -19.5450  -70.2828  -14.6116 H         1 MOL     0.0239
     32 H         -21.2247  -69.9754  -15.1759 H         1 MOL     0.0239
@<TRIPOS>BOND
     1    1    2 1 
     2    1   16 1 
     3    1   17 1 
     4    1   18 1 
     5    2    3 1 
     6    2    4 1 
     7    2   19 1 
     8    3   20 1 
     9    3   21 1 
    10    3   22 1 
    11    4    5 1 
    12    4   23 1 
    13    4   24 1 
    14    5    6 ar
    15    5   10 ar
    16    6    7 ar
    17    6   25 1 
    18    7    8 ar
    19    7   26 1 
    20    8    9 ar
    21    8   11 1 
    22    9   10 ar
    23    9   27 1 
    24   10   28 1 
    25   11   12 1 
    26   11   13 1 
    27   11   29 1 
    28   12   30 1 
    29   12   31 1 
    30   12   32 1 
    31   13   14 ar
    32   13   15 ar
@<TRIPOS>SUBSTRUCTURE
1 MOL         1
@<TRIPOS>MOLECULE
query molecule
   32    32     1     0     0
SMALL
NO_CHARGE

@<TRIPOS>ATOM
      1 C         -10.0867  -32.5701   -3.8188 C.3       1 MOL     0.0072
      2 C         -11.2738  -33.3730   -4.4133 C.3       1 MOL    -0.0128
      3 C         -12.5625  -33.1014   -3.5908 C.3       1 MOL     0.0072
      4 C         -11.4379  -33.0570   -5.9179 C.3       1 MOL     0.0379
      5 C         -12.1076  -34.1551   -6.6608 C.ar      1 MOL    -0.0471
      6 C         -13.4594  -34.4576   -6.4744 C.ar      1 MOL     0.0037
      7 C         -14.0563  -35.4828   -7.2115 C.ar      1 MOL     0.0044
      8 C         -13.3100  -36.2141   -8.1426 C.ar      1 MOL    -0.0391
      9 C         -11.9585  -35.8963   -8.3361 C.ar      1 MOL     0.0044
     10 C         -11.3596  -34.8765   -7.5960 C.ar      1 MOL     0.0037
     11 C         -13.9976  -37.3164   -8.8738 C.3       1 MOL     0.0614
     12 C         -13.8019  -37.1714  -10.3844 C.3       1 MOL     0.0185
     13 C         -13.4739  -38.6492   -8.3453 C.2       1 MOL     0.0489
     14 O         -14.2912  -39.2855   -7.6302 O.co2     1 MOL    -0.5492
     15 O         -12.2872  -38.9689   -8.6174 O.co2     1 MOL    -0.5492
     16 H          -9.9415  -32.8293   -2.7494 H         1 MOL     0.0232
     17 H         -10.2837  -31.4798   -3.8954 H         1 MOL     0.0232
     18 H          -9.1512  -32.7997   -4.3709 H         1 MOL     0.0232
     19 H         -11.0219  -34.4590   -4.3185 H         1 MOL     0.0299
     20 H         -12.8349  -32.0261   -3.6503 H         1 MOL     0.0232
     21 H         -12.4069  -33.3679   -2.5248 H         1 MOL     0.0232
     22 H         -13.4084  -33.7010   -3.9878 H         1 MOL     0.0232
     23 H         -10.4311  -32.9364   -6.3801 H         1 MOL     0.0316
     24 H         -12.0172  -32.1237   -6.0697 H         1 MOL     0.0316
     25 H         -14.0439  -33.9036   -5.7550 H         1 MOL     0.0620
     26 H         -15.1032  -35.7185   -7.0598 H         1 MOL     0.0621
     27 H         -11.3756  -36.4529   -9.0572 H         1 MOL     0.0621
     28 H         -10.3124  -34.6479   -7.7481 H         1 MOL     0.0620
     29 H         -15.0919  -37.2763   -8.6578 H         1 MOL     0.0406
     30 H         -12.7249  -37.2112  -10.6543 H         1 MOL     0.0239
     31 H         -14.2046  -36.1863  -10.7185 H         1 MOL     0.0239
     32 H         -14.3393  -37.9677  -10.9407 H         1 MOL     0.0239
@<TRIPOS>BOND
     1    1    2 1 
     2    1   16 1 
     3    1   17 1 
     4    1   18 1 
     5    2    3 1 
     6    2    4 1 
     7    2   19 1 
     8    3   20 1 
     9    3   21 1 
    10    3   22 1 
    11    4    5 1 
    12    4   23 1 
    13    4   24 1 
    14    5    6 ar
    15    5   10 ar
    16    6    7 ar
    17    6   25 1 
    18    7    8 ar
    19    7   26 1 
    20    8    9 ar
    21    8   11 1 
    22    9   10 ar
    23    9   27 1 
    24   10   28 1 
    25   11   12 1 
    26   11   13 1 
    27   11   29 1 
    28   12   30 1 
    29   12   31 1 
    30   12   32 1 
    31   13   14 ar
    32   13   15 ar
@<TRIPOS>SUBSTRUCTURE
1 MOL         1
@<TRIPOS>MOLECULE
query molecule
   32    32     1     0     0
SMALL
NO_CHARGE

@<TRIPOS>ATOM
      1 C         -15.6732  -72.9116    9.8391 C.3       1 MOL     0.0072
      2 C         -16.3681  -72.5822    8.5019 C.3       1 MOL    -0.0128
      3 C         -15.7111  -71.4115    7.7382 C.3       1 MOL     0.0072
      4 C         -16.5052  -73.8563    7.6386 C.3       1 MOL     0.0379
      5 C         -17.9424  -74.1922    7.4317 C.ar      1 MOL    -0.0471
      6 C         -18.9044  -73.9992    8.4292 C.ar      1 MOL     0.0037
      7 C         -20.2563  -74.2120    8.1598 C.ar      1 MOL     0.0044
      8 C         -20.6723  -74.6266    6.8870 C.ar      1 MOL    -0.0391
      9 C         -19.6895  -74.9268    5.9221 C.ar      1 MOL     0.0044
     10 C         -18.3368  -74.7053    6.1902 C.ar      1 MOL     0.0037
     11 C         -22.1183  -74.7187    6.4829 C.3       1 MOL     0.0614
     12 C         -23.0552  -74.8709    7.6964 C.3       1 MOL     0.0185
     13 C         -22.4643  -73.4168    5.7201 C.2       1 MOL     0.0489
     14 O         -22.8831  -72.4296    6.3871 O.co2     1 MOL    -0.5492
     15 O         -22.1679  -73.4056    4.4885 O.co2     1 MOL    -0.5492
     16 H         -15.6196  -72.0077   10.4807 H         1 MOL     0.0232
     17 H         -14.6416  -73.2748    9.6473 H         1 MOL     0.0232
     18 H         -16.2354  -73.7014   10.3794 H         1 MOL     0.0232
     19 H         -17.4121  -72.2577    8.7537 H         1 MOL     0.0299
     20 H         -14.6683  -71.6499    7.4489 H         1 MOL     0.0232
     21 H         -15.7039  -70.4988    8.3725 H         1 MOL     0.0232
     22 H         -16.2953  -71.1907    6.8191 H         1 MOL     0.0232
     23 H         -16.0028  -74.7180    8.1184 H         1 MOL     0.0316
     24 H         -16.0563  -73.6768    6.6374 H         1 MOL     0.0316
     25 H         -18.5936  -73.6680    9.4101 H         1 MOL     0.0620
     26 H         -20.9858  -74.0405    8.9383 H         1 MOL     0.0621
     27 H         -19.9846  -75.3160    4.9574 H         1 MOL     0.0621
     28 H         -17.5942  -74.9195    5.4363 H         1 MOL     0.0620
     29 H         -22.2721  -75.6003    5.8166 H         1 MOL     0.0406
     30 H         -23.0112  -73.9600    8.3312 H         1 MOL     0.0239
     31 H         -22.7566  -75.7428    8.3157 H         1 MOL     0.0239
     32 H         -24.1035  -75.0179    7.3629 H         1 MOL     0.0239
@<TRIPOS>BOND
     1    1    2 1 
     2    1   16 1 
     3    1   17 1 
     4    1   18 1 
     5    2    3 1 
     6    2    4 1 
     7    2   19 1 
     8    3   20 1 
     9    3   21 1 
    10    3   22 1 
    11    4    5 1 
    12    4   23 1 
    13    4   24 1 
    14    5    6 ar
    15    5   10 ar
    16    6    7 ar
    17    6   25 1 
    18    7    8 ar
    19    7   26 1 
    20    8    9 ar
    21    8   11 1 
    22    9   10 ar
    23    9   27 1 
    24   10   28 1 
    25   11   12 1 
    26   11   13 1 
    27   11   29 1 
    28   12   30 1 
    29   12   31 1 
    30   12   32 1 
    31   13   14 ar
    32   13   15 ar
@<TRIPOS>SUBSTRUCTURE
1 MOL         1
@<TRIPOS>MOLECULE
query molecule
   32    32     1     0     0
SMALL
NO_CHARGE

@<TRIPOS>ATOM
      1 C         -31.3229  -57.1856  -16.8959 C.3       1 MOL     0.0072
      2 C         -31.1758  -58.2755  -17.9913 C.3       1 MOL    -0.0128
      3 C         -30.5220  -57.6687  -19.2624 C.3       1 MOL     0.0072
      4 C         -30.4510  -59.5352  -17.4583 C.3       1 MOL     0.0379
      5 C         -30.3770  -60.5953  -18.5017 C.ar      1 MOL    -0.0471
      6 C         -29.2090  -60.6955  -19.2622 C.ar      1 MOL     0.0037
      7 C         -29.1074  -61.6431  -20.2723 C.ar      1 MOL     0.0044
      8 C         -30.1657  -62.5257  -20.5303 C.ar      1 MOL    -0.0391
      9 C         -31.3325  -62.4353  -19.7473 C.ar      1 MOL     0.0044
     10 C         -31.4383  -61.4727  -18.7345 C.ar      1 MOL     0.0037
     11 C         -30.0862  -63.5530  -21.6219 C.3       1 MOL     0.0614
     12 C         -30.4767  -62.8744  -22.9528 C.3       1 MOL     0.0185
     13 C         -28.6800  -64.1486  -21.7240 C.2       1 MOL     0.0489
     14 O         -28.4573  -65.1278  -20.9513 O.co2     1 MOL    -0.5492
     15 O         -27.8409  -63.6187  -22.5096 O.co2     1 MOL    -0.5492
     16 H         -31.9016  -56.3289  -17.3069 H         1 MOL     0.0232
     17 H         -30.3270  -56.8164  -16.5737 H         1 MOL     0.0232
     18 H         -31.8612  -57.5818  -16.0111 H         1 MOL     0.0232
     19 H         -32.2087  -58.6024  -18.2756 H         1 MOL     0.0299
     20 H         -29.4784  -57.3527  -19.0566 H         1 MOL     0.0232
     21 H         -31.0993  -56.7886  -19.6104 H         1 MOL     0.0232
     22 H         -30.5073  -58.4252  -20.0763 H         1 MOL     0.0232
     23 H         -30.9781  -59.9529  -16.5783 H         1 MOL     0.0316
     24 H         -29.4121  -59.2863  -17.1637 H         1 MOL     0.0316
     25 H         -28.3840  -60.0247  -19.0684 H         1 MOL     0.0620
     26 H         -28.2051  -61.6982  -20.8642 H         1 MOL     0.0621
     27 H         -32.1575  -63.1084  -19.9330 H         1 MOL     0.0621
     28 H         -32.3375  -61.4045  -18.1393 H         1 MOL     0.0620
     29 H         -30.8140  -64.3777  -21.4287 H         1 MOL     0.0406
     30 H         -29.7937  -62.0297  -23.1828 H         1 MOL     0.0239
     31 H         -31.5115  -62.4753  -22.8928 H         1 MOL     0.0239
     32 H         -30.4285  -63.6030  -23.7902 H         1 MOL     0.0239
@<TRIPOS>BOND
     1    1    2 1 
     2    1   16 1 
     3    1   17 1 
     4    1   18 1 
     5    2    3 1 
     6    2    4 1 
     7    2   19 1 
     8    3   20 1 
     9    3   21 1 
    10    3   22 1 
    11    4    5 1 
    12    4   23 1 
    13    4   24 1 
    14    5    6 ar
    15    5   10 ar
    16    6    7 ar
    17    6   25 1 
    18    7    8 ar
    19    7   26 1 
    20    8    9 ar
    21    8   11 1 
    22    9   10 ar
    23    9   27 1 
    24   10   28 1 
    25   11   12 1 
    26   11   13 1 
    27   11   29 1 
    28   12   30 1 
    29   12   31 1 
    30   12   32 1 
    31   13   14 ar
    32   13   15 ar
@<TRIPOS>SUBSTRUCTURE
1 MOL         1
@<TRIPOS>MOLECULE
query molecule
   32    32     1     0     0
SMALL
NO_CHARGE

@<TRIPOS>ATOM
      1 C         -31.0587  -76.5420   -6.5747 C.3       1 MOL     0.0072
      2 C         -31.9586  -75.5250   -5.8297 C.3       1 MOL    -0.0128
      3 C         -31.2703  -74.9627   -4.5630 C.3       1 MOL     0.0072
      4 C         -32.4868  -74.4050   -6.7591 C.3       1 MOL     0.0379
      5 C         -33.8683  -74.6817   -7.2572 C.ar      1 MOL    -0.0471
      6 C         -34.7287  -75.6123   -6.6629 C.ar      1 MOL     0.0037
      7 C         -36.0029  -75.8487   -7.1824 C.ar      1 MOL     0.0044
      8 C         -36.4539  -75.1404   -8.3084 C.ar      1 MOL    -0.0391
      9 C         -35.5854  -74.2090   -8.9123 C.ar      1 MOL     0.0044
     10 C         -34.3125  -73.9736   -8.3850 C.ar      1 MOL     0.0037
     11 C         -37.8223  -75.3107   -8.9032 C.3       1 MOL     0.0614
     12 C         -38.4422  -76.6775   -8.5523 C.3       1 MOL     0.0185
     13 C         -38.7585  -74.2078   -8.3843 C.2       1 MOL     0.0489
     14 O         -39.2545  -73.4202   -9.2437 O.co2     1 MOL    -0.5492
     15 O         -38.9564  -74.1715   -7.1329 O.co2     1 MOL    -0.5492
     16 H         -30.7810  -77.3729   -5.8908 H         1 MOL     0.0232
     17 H         -30.1284  -76.0583   -6.9371 H         1 MOL     0.0232
     18 H         -31.5990  -76.9705   -7.4451 H         1 MOL     0.0232
     19 H         -32.8596  -76.0965   -5.4831 H         1 MOL     0.0299
     20 H         -30.3509  -74.4026   -4.8297 H         1 MOL     0.0232
     21 H         -30.9955  -75.7923   -3.8776 H         1 MOL     0.0232
     22 H         -31.9628  -74.2785   -4.0282 H         1 MOL     0.0232
     23 H         -31.8292  -74.3257   -7.6539 H         1 MOL     0.0316
     24 H         -32.4955  -73.4287   -6.2329 H         1 MOL     0.0316
     25 H         -34.3992  -76.1602   -5.7906 H         1 MOL     0.0620
     26 H         -36.6496  -76.5692   -6.7073 H         1 MOL     0.0621
     27 H         -35.9112  -73.6648   -9.7877 H         1 MOL     0.0621
     28 H         -33.6663  -73.2413   -8.8484 H         1 MOL     0.0620
     29 H         -37.7554  -75.2402  -10.0160 H         1 MOL     0.0406
     30 H         -38.5473  -76.7783   -7.4514 H         1 MOL     0.0239
     31 H         -37.8008  -77.5048   -8.9225 H         1 MOL     0.0239
     32 H         -39.4471  -76.7763   -9.0138 H         1 MOL     0.0239
@<TRIPOS>BOND
     1    1    2 1 
     2    1   16 1 
     3    1   17 1 
     4    1   18 1 
     5    2    3 1 
     6    2    4 1 
     7    2   19 1 
     8    3   20 1 
     9    3   21 1 
    10    3   22 1 
    11    4    5 1 
    12    4   23 1 
    13    4   24 1 
    14    5    6 ar
    15    5   10 ar
    16    6    7 ar
    17    6   25 1 
    18    7    8 ar
    19    7   26 1 
    20    8    9 ar
    21    8   11 1 
    22    9   10 ar
    23    9   27 1 
    24   10   28 1 
    25   11   12 1 
    26   11   13 1 
    27   11   29 1 
    28   12   30 1 
    29   12   31 1 
    30   12   32 1 
    31   13   14 ar
    32   13   15 ar
@<TRIPOS>SUBSTRUCTURE
1 MOL         1
@<TRIPOS>MOLECULE
query molecule
   32    32     1     0     0
SMALL
NO_CHARGE

@<TRIPOS>ATOM
      1 C         -14.2736  -33.8811   10.6828 C.3       1 MOL     0.0072
      2 C         -13.5626  -34.7017    9.5720 C.3       1 MOL    -0.0128
      3 C         -12.8072  -33.7668    8.5904 C.3       1 MOL     0.0072
      4 C         -12.6207  -35.7741   10.1772 C.3       1 MOL     0.0379
      5 C         -12.9967  -37.1374    9.7143 C.ar      1 MOL    -0.0471
      6 C         -12.3278  -37.7373    8.6391 C.ar      1 MOL     0.0037
      7 C         -12.7068  -39.0139    8.2040 C.ar      1 MOL     0.0044
      8 C         -13.7553  -39.7010    8.8416 C.ar      1 MOL    -0.0391
      9 C         -14.3999  -39.1022    9.9315 C.ar      1 MOL     0.0044
     10 C         -14.0264  -37.8288   10.3637 C.ar      1 MOL     0.0037
     11 C         -14.1518  -41.0572    8.3433 C.3       1 MOL     0.0614
     12 C         -13.9067  -42.0725    9.4809 C.3       1 MOL     0.0185
     13 C         -15.6104  -41.0876    7.8648 C.2       1 MOL     0.0489
     14 O         -16.3008  -42.0905    8.2195 O.co2     1 MOL    -0.5492
     15 O         -15.9955  -40.1336    7.1248 O.co2     1 MOL    -0.5492
     16 H         -14.9639  -33.1343   10.2381 H         1 MOL     0.0232
     17 H         -13.5211  -33.3405   11.2966 H         1 MOL     0.0232
     18 H         -14.8565  -34.5493   11.3500 H         1 MOL     0.0232
     19 H         -14.3588  -35.2326    8.9918 H         1 MOL     0.0299
     20 H         -12.0014  -33.2229    9.1288 H         1 MOL     0.0232
     21 H         -13.5034  -33.0197    8.1542 H         1 MOL     0.0232
     22 H         -12.3504  -34.3516    7.7661 H         1 MOL     0.0232
     23 H         -12.7054  -35.7697   11.2845 H         1 MOL     0.0316
     24 H         -11.5687  -35.5867    9.8866 H         1 MOL     0.0316
     25 H         -11.5272  -37.2092    8.1390 H         1 MOL     0.0620
     26 H         -12.1965  -39.4688    7.3665 H         1 MOL     0.0621
     27 H         -15.1937  -39.6299   10.4418 H         1 MOL     0.0621
     28 H         -14.5361  -37.3755   11.2022 H         1 MOL     0.0620
     29 H         -13.5050  -41.3426    7.4791 H         1 MOL     0.0406
     30 H         -14.5555  -41.8448   10.3543 H         1 MOL     0.0239
     31 H         -12.8480  -42.0366    9.8192 H         1 MOL     0.0239
     32 H         -14.1264  -43.1079    9.1446 H         1 MOL     0.0239
@<TRIPOS>BOND
     1    1    2 1 
     2    1   16 1 
     3    1   17 1 
     4    1   18 1 
     5    2    3 1 
     6    2    4 1 
     7    2   19 1 
     8    3   20 1 
     9    3   21 1 
    10    3   22 1 
    11    4    5 1 
    12    4   23 1 
    13    4   24 1 
    14    5    6 ar
    15    5   10 ar
    16    6    7 ar
    17    6   25 1 
    18    7    8 ar
    19    7   26 1 
    20    8    9 ar
    21    8   11 1 
    22    9   10 ar
    23    9   27 1 
    24   10   28 1 
    25   11   12 1 
    26   11   13 1 
    27   11   29 1 
    28   12   30 1 
    29   12   31 1 
    30   12   32 1 
    31   13   14 ar
    32   13   15 ar
@<TRIPOS>SUBSTRUCTURE
1 MOL         1
@<TRIPOS>MOLECULE
query molecule
   32    32     1     0     0
SMALL
NO_CHARGE

@<TRIPOS>ATOM
      1 C         -56.7340  -35.1642   -0.0175 C.3       1 MOL     0.0072
      2 C         -57.3940  -33.7682   -0.1063 C.3       1 MOL    -0.0128
      3 C         -56.3339  -32.6708   -0.3790 C.3       1 MOL     0.0072
      4 C         -58.5571  -33.7219   -1.1291 C.3       1 MOL     0.0379
      5 C         -59.8045  -34.3765   -0.6306 C.ar      1 MOL    -0.0471
      6 C         -60.0976  -34.4703    0.7338 C.ar      1 MOL     0.0037
      7 C         -61.2761  -35.0698    1.1636 C.ar      1 MOL     0.0044
      8 C         -62.1943  -35.5941    0.2525 C.ar      1 MOL    -0.0391
      9 C         -61.9111  -35.4913   -1.1209 C.ar      1 MOL     0.0044
     10 C         -60.7229  -34.8934   -1.5590 C.ar      1 MOL     0.0037
     11 C         -63.4488  -36.2818    0.6792 C.3       1 MOL     0.0614
     12 C         -63.0703  -37.7090    1.1102 C.3       1 MOL     0.0185
     13 C         -64.1828  -35.6022    1.8325 C.2       1 MOL     0.0489
     14 O         -63.6360  -35.5754    2.9728 O.co2     1 MOL    -0.5492
     15 O         -65.3227  -35.1433    1.5238 O.co2     1 MOL    -0.5492
     16 H         -55.9756  -35.1745    0.7967 H         1 MOL     0.0232
     17 H         -56.2331  -35.4229   -0.9707 H         1 MOL     0.0232
     18 H         -57.4988  -35.9378    0.2069 H         1 MOL     0.0232
     19 H         -57.8392  -33.5410    0.8971 H         1 MOL     0.0299
     20 H         -55.8417  -32.8350   -1.3592 H         1 MOL     0.0232
     21 H         -55.5576  -32.6853    0.4157 H         1 MOL     0.0232
     22 H         -56.8125  -31.6686   -0.3837 H         1 MOL     0.0232
     23 H         -58.2613  -34.2125   -2.0792 H         1 MOL     0.0316
     24 H         -58.8202  -32.6602   -1.3388 H         1 MOL     0.0316
     25 H         -59.4007  -34.0744    1.4586 H         1 MOL     0.0620
     26 H         -61.4833  -35.1328    2.2238 H         1 MOL     0.0621
     27 H         -62.6141  -35.8794   -1.8442 H         1 MOL     0.0621
     28 H         -60.5136  -34.8256   -2.6172 H         1 MOL     0.0620
     29 H         -64.1481  -36.3517   -0.1900 H         1 MOL     0.0406
     30 H         -62.3534  -37.6779    1.9565 H         1 MOL     0.0239
     31 H         -62.6033  -38.2544    0.2642 H         1 MOL     0.0239
     32 H         -63.9772  -38.2600    1.4370 H         1 MOL     0.0239
@<TRIPOS>BOND
     1    1    2 1 
     2    1   16 1 
     3    1   17 1 
     4    1   18 1 
     5    2    3 1 
     6    2    4 1 
     7    2   19 1 
     8    3   20 1 
     9    3   21 1 
    10    3   22 1 
    11    4    5 1 
    12    4   23 1 
    13    4   24 1 
    14    5    6 ar
    15    5   10 ar
    16    6    7 ar
    17    6   25 1 
    18    7    8 ar
    19    7   26 1 
    20    8    9 ar
    21    8   11 1 
    22    9   10 ar
    23    9   27 1 
    24   10   28 1 
    25   11   12 1 
    26   11   13 1 
    27   11   29 1 
    28   12   30 1 
    29   12   31 1 
    30   12   32 1 
    31   13   14 ar
    32   13   15 ar
@<TRIPOS>SUBSTRUCTURE
1 MOL         1
@<TRIPOS>MOLECULE
query molecule
   32    32     1     0     0
SMALL
NO_CHARGE

@<TRIPOS>ATOM
      1 C          -6.7331  -65.9980   12.7519 C.3       1 MOL     0.0072
      2 C          -7.4079  -67.3951   12.8294 C.3       1 MOL    -0.0128
      3 C          -7.0100  -68.2515   11.6028 C.3       1 MOL     0.0072
      4 C          -7.1066  -68.0902   14.1783 C.3       1 MOL     0.0379
      5 C          -8.1683  -69.0753   14.5316 C.ar      1 MOL    -0.0471
      6 C          -9.2060  -68.6935   15.3915 C.ar      1 MOL     0.0037
      7 C         -10.1886  -69.6188   15.7588 C.ar      1 MOL     0.0044
      8 C         -10.1561  -70.9275   15.2661 C.ar      1 MOL    -0.0391
      9 C          -9.1191  -71.2999   14.3943 C.ar      1 MOL     0.0044
     10 C          -8.1280  -70.3816   14.0363 C.ar      1 MOL     0.0037
     11 C         -11.1611  -71.9719   15.6300 C.3       1 MOL     0.0614
     12 C         -11.0112  -72.3175   17.1258 C.3       1 MOL     0.0185
     13 C         -12.5971  -71.5302   15.3827 C.2       1 MOL     0.0489
     14 O         -13.0777  -70.6222   16.1081 O.co2     1 MOL    -0.5492
     15 O         -13.1968  -72.1833   14.4735 O.co2     1 MOL    -0.5492
     16 H          -7.0228  -65.4869   11.8093 H         1 MOL     0.0232
     17 H          -5.6284  -66.0932   12.7796 H         1 MOL     0.0232
     18 H          -7.0574  -65.3680   13.6070 H         1 MOL     0.0232
     19 H          -8.5146  -67.2269   12.7882 H         1 MOL     0.0299
     20 H          -5.9119  -68.4131   11.5832 H         1 MOL     0.0232
     21 H          -7.3130  -67.7427   10.6637 H         1 MOL     0.0232
     22 H          -7.5124  -69.2408   11.6483 H         1 MOL     0.0232
     23 H          -7.0892  -67.3331   14.9936 H         1 MOL     0.0316
     24 H          -6.1299  -68.6121   14.1452 H         1 MOL     0.0316
     25 H          -9.2384  -67.6848   15.7771 H         1 MOL     0.0620
     26 H         -10.9774  -69.3171   16.4329 H         1 MOL     0.0621
     27 H          -9.0814  -72.3060   14.0026 H         1 MOL     0.0621
     28 H          -7.3274  -70.6841   13.3771 H         1 MOL     0.0620
     29 H         -10.9613  -72.8997   15.0344 H         1 MOL     0.0406
     30 H         -11.1850  -71.4178   17.7527 H         1 MOL     0.0239
     31 H          -9.9894  -72.7003   17.3241 H         1 MOL     0.0239
     32 H         -11.7524  -73.0941   17.4107 H         1 MOL     0.0239
@<TRIPOS>BOND
     1    1    2 1 
     2    1   16 1 
     3    1   17 1 
     4    1   18 1 
     5    2    3 1 
     6    2    4 1 
     7    2   19 1 
     8    3   20 1 
     9    3   21 1 
    10    3   22 1 
    11    4    5 1 
    12    4   23 1 
    13    4   24 1 
    14    5    6 ar
    15    5   10 ar
    16    6    7 ar
    17    6   25 1 
    18    7    8 ar
    19    7   26 1 
    20    8    9 ar
    21    8   11 1 
    22    9   10 ar
    23    9   27 1 
    24   10   28 1 
    25   11   12 1 
    26   11   13 1 
    27   11   29 1 
    28   12   30 1 
    29   12   31 1 
    30   12   32 1 
    31   13   14 ar
    32   13   15 ar
@<TRIPOS>SUBSTRUCTURE
1 MOL         1
@<TRIPOS>MOLECULE
query molecule
   32    32     1     0     0
SMALL
NO_CHARGE

@<TRIPOS>ATOM
      1 C         -22.9341  -25.1221  -11.6981 C.3       1 MOL     0.0072
      2 C         -24.3050  -24.7274  -11.0848 C.3       1 MOL    -0.0128
      3 C         -24.2022  -23.4146  -10.2644 C.3       1 MOL     0.0072
      4 C         -25.4006  -24.6597  -12.1770 C.3       1 MOL     0.0379
      5 C         -26.7102  -25.1215  -11.6435 C.ar      1 MOL    -0.0471
      6 C         -27.0946  -26.4494  -11.8725 C.ar      1 MOL     0.0037
      7 C         -28.3299  -26.9091  -11.4166 C.ar      1 MOL     0.0044
      8 C         -29.1961  -26.0530  -10.7243 C.ar      1 MOL    -0.0391
      9 C         -28.7998  -24.7251  -10.4906 C.ar      1 MOL     0.0044
     10 C         -27.5614  -24.2617  -10.9440 C.ar      1 MOL     0.0037
     11 C         -30.5288  -26.4906  -10.2059 C.3       1 MOL     0.0614
     12 C         -31.1645  -27.5565  -11.1152 C.3       1 MOL     0.0185
     13 C         -30.3461  -27.0507   -8.7967 C.2       1 MOL     0.0489
     14 O         -29.5676  -28.0307   -8.6409 O.co2     1 MOL    -0.5492
     15 O         -31.0082  -26.4597   -7.8980 O.co2     1 MOL    -0.5492
     16 H         -22.1691  -25.2200  -10.8996 H         1 MOL     0.0232
     17 H         -22.5931  -24.3561  -12.4256 H         1 MOL     0.0232
     18 H         -23.0198  -26.0961  -12.2258 H         1 MOL     0.0232
     19 H         -24.5899  -25.5496  -10.3790 H         1 MOL     0.0299
     20 H         -23.8981  -22.5711  -10.9202 H         1 MOL     0.0232
     21 H         -23.4473  -23.5243   -9.4577 H         1 MOL     0.0232
     22 H         -25.1821  -23.1702   -9.8044 H         1 MOL     0.0232
     23 H         -25.1391  -25.3574  -13.0044 H         1 MOL     0.0316
     24 H         -25.5157  -23.6376  -12.5826 H         1 MOL     0.0316
     25 H         -26.4330  -27.1151  -12.4075 H         1 MOL     0.0620
     26 H         -28.6203  -27.9332  -11.6037 H         1 MOL     0.0621
     27 H         -29.4555  -24.0617   -9.9444 H         1 MOL     0.0621
     28 H         -27.2638  -23.2418  -10.7496 H         1 MOL     0.0620
     29 H         -31.2201  -25.6149  -10.1552 H         1 MOL     0.0406
     30 H         -30.5020  -28.4466  -11.1835 H         1 MOL     0.0239
     31 H         -31.3056  -27.1520  -12.1406 H         1 MOL     0.0239
     32 H         -32.1487  -27.8783  -10.7188 H         1 MOL     0.0239
@<TRIPOS>BOND
     1    1    2 1 
     2    1   16 1 
     3    1   17 1 
     4    1   18 1 
     5    2    3 1 
     6    2    4 1 
     7    2   19 1 
     8    3   20 1 
     9    3   21 1 
    10    3   22 1 
    11    4    5 1 
    12    4   23 1 
    13    4   24 1 
    14    5    6 ar
    15    5   10 ar
    16    6    7 ar
    17    6   25 1 
    18    7    8 ar
    19    7   26 1 
    20    8    9 ar
    21    8   11 1 
    22    9   10 ar
    23    9   27 1 
    24   10   28 1 
    25   11   12 1 
    26   11   13 1 
    27   11   29 1 
    28   12   30 1 
    29   12   31 1 
    30   12   32 1 
    31   13   14 ar
    32   13   15 ar
@<TRIPOS>SUBSTRUCTURE
1 MOL         1
@<TRIPOS>MOLECULE
query molecule
   32    32     1     0     0
SMALL
NO_CHARGE

@<TRIPOS>ATOM
      1 C         -63.3363  -45.6474   -4.1365 C.3       1 MOL     0.0072
      2 C         -64.6616  -44.8618   -4.1791 C.3       1 MOL    -0.0128
      3 C         -65.5384  -45.3637   -5.3560 C.3       1 MOL     0.0072
      4 C         -65.3855  -44.8957   -2.8067 C.3       1 MOL     0.0379
      5 C         -66.3790  -43.7875   -2.7465 C.ar      1 MOL    -0.0471
      6 C         -65.9489  -42.4661   -2.5793 C.ar      1 MOL     0.0037
      7 C         -66.8794  -41.4260   -2.5393 C.ar      1 MOL     0.0044
      8 C         -68.2508  -41.6981   -2.6647 C.ar      1 MOL    -0.0391
      9 C         -68.6730  -43.0249   -2.8336 C.ar      1 MOL     0.0044
     10 C         -67.7434  -44.0670   -2.8673 C.ar      1 MOL     0.0037
     11 C         -69.2082  -40.5470   -2.6000 C.3       1 MOL     0.0614
     12 C         -69.8801  -40.3523   -3.9691 C.3       1 MOL     0.0185
     13 C         -70.2469  -40.8212   -1.5208 C.2       1 MOL     0.0489
     14 O         -69.9481  -40.3835   -0.3724 O.co2     1 MOL    -0.5492
     15 O         -71.2508  -41.5241   -1.8206 O.co2     1 MOL    -0.5492
     16 H         -62.7978  -45.5611   -5.1040 H         1 MOL     0.0232
     17 H         -63.5299  -46.7193   -3.9289 H         1 MOL     0.0232
     18 H         -62.6800  -45.2453   -3.3327 H         1 MOL     0.0232
     19 H         -64.4004  -43.7909   -4.3861 H         1 MOL     0.0299
     20 H         -65.8135  -46.4282   -5.2035 H         1 MOL     0.0232
     21 H         -64.9752  -45.2788   -6.3101 H         1 MOL     0.0232
     22 H         -66.4666  -44.7622   -5.4382 H         1 MOL     0.0232
     23 H         -64.6593  -44.7279   -1.9840 H         1 MOL     0.0316
     24 H         -65.9113  -45.8555   -2.6497 H         1 MOL     0.0316
     25 H         -64.8958  -42.2477   -2.4835 H         1 MOL     0.0620
     26 H         -66.5466  -40.4063   -2.4096 H         1 MOL     0.0621
     27 H         -69.7274  -43.2429   -2.9326 H         1 MOL     0.0621
     28 H         -68.0801  -45.0850   -2.9912 H         1 MOL     0.0620
     29 H         -68.6634  -39.6088   -2.3395 H         1 MOL     0.0406
     30 H         -70.4431  -41.2642   -4.2585 H         1 MOL     0.0239
     31 H         -69.1116  -40.1494   -4.7451 H         1 MOL     0.0239
     32 H         -70.5865  -39.4961   -3.9392 H         1 MOL     0.0239
@<TRIPOS>BOND
     1    1    2 1 
     2    1   16 1 
     3    1   17 1 
     4    1   18 1 
     5    2    3 1 
     6    2    4 1 
     7    2   19 1 
     8    3   20 1 
     9    3   21 1 
    10    3   22 1 
    11    4    5 1 
    12    4   23 1 
    13    4   24 1 
    14    5    6 ar
    15    5   10 ar
    16    6    7 ar
    17    6   25 1 
    18    7    8 ar
    19    7   26 1 
    20    8    9 ar
    21    8   11 1 
    22    9   10 ar
    23    9   27 1 
    24   10   28 1 
    25   11   12 1 
    26   11   13 1 
    27   11   29 1 
    28   12   30 1 
    29   12   31 1 
    30   12   32 1 
    31   13   14 ar
    32   13   15 ar
@<TRIPOS>SUBSTRUCTURE
1 MOL         1
@<TRIPOS>MOLECULE
query molecule
   32    32     1     0     0
SMALL
NO_CHARGE

@<TRIPOS>ATOM
      1 C         -53.5245  -35.0114    8.3432 C.3       1 MOL     0.0072
      2 C         -54.2520  -34.0925    9.3551 C.3       1 MOL    -0.0128
      3 C         -53.3449  -32.9153    9.7957 C.3       1 MOL     0.0072
      4 C         -55.6125  -33.6028    8.8056 C.3       1 MOL     0.0379
      5 C         -56.7329  -34.1035    9.6457 C.ar      1 MOL    -0.0471
      6 C         -56.9690  -33.6107   10.9318 C.ar      1 MOL     0.0037
      7 C         -58.0449  -34.0952   11.6845 C.ar      1 MOL     0.0044
      8 C         -58.9026  -35.0777   11.1552 C.ar      1 MOL    -0.0391
      9 C         -58.6582  -35.5446    9.8636 C.ar      1 MOL     0.0044
     10 C         -57.5796  -35.0807    9.1166 C.ar      1 MOL     0.0037
     11 C         -60.0456  -35.5789   11.9806 C.3       1 MOL     0.0614
     12 C         -61.3366  -35.6274   11.1388 C.3       1 MOL     0.0185
     13 C         -59.7787  -36.9498   12.6071 C.2       1 MOL     0.0489
     14 O         -59.9569  -36.9660   13.8495 O.co2     1 MOL    -0.5492
     15 O         -59.4550  -37.9160   11.8624 O.co2     1 MOL    -0.5492
     16 H         -52.5739  -35.3913    8.7695 H         1 MOL     0.0232
     17 H         -53.2970  -34.4492    7.4124 H         1 MOL     0.0232
     18 H         -54.1688  -35.8776    8.0827 H         1 MOL     0.0232
     19 H         -54.4638  -34.7162   10.2621 H         1 MOL     0.0299
     20 H         -53.1016  -32.2689    8.9257 H         1 MOL     0.0232
     21 H         -52.3960  -33.3018   10.2236 H         1 MOL     0.0232
     22 H         -53.8573  -32.2982   10.5631 H         1 MOL     0.0232
     23 H         -55.7718  -34.0020    7.7802 H         1 MOL     0.0316
     24 H         -55.6614  -32.4968    8.7793 H         1 MOL     0.0316
     25 H         -56.3204  -32.8499   11.3405 H         1 MOL     0.0620
     26 H         -58.2237  -33.7094   12.6726 H         1 MOL     0.0621
     27 H         -59.3135  -36.2968    9.4431 H         1 MOL     0.0621
     28 H         -57.4022  -35.4825    8.1316 H         1 MOL     0.0620
     29 H         -60.2164  -34.8595   12.8228 H         1 MOL     0.0406
     30 H         -61.2339  -36.3483   10.3030 H         1 MOL     0.0239
     31 H         -61.5558  -34.6238   10.7158 H         1 MOL     0.0239
     32 H         -62.1951  -35.9340   11.7706 H         1 MOL     0.0239
@<TRIPOS>BOND
     1    1    2 1 
     2    1   16 1 
     3    1   17 1 
     4    1   18 1 
     5    2    3 1 
     6    2    4 1 
     7    2   19 1 
     8    3   20 1 
     9    3   21 1 
    10    3   22 1 
    11    4    5 1 
    12    4   23 1 
    13    4   24 1 
    14    5    6 ar
    15    5   10 ar
    16    6    7 ar
    17    6   25 1 
    18    7    8 ar
    19    7   26 1 
    20    8    9 ar
    21    8   11 1 
    22    9   10 ar
    23    9   27 1 
    24   10   28 1 
    25   11   12 1 
    26   11   13 1 
    27   11   29 1 
    28   12   30 1 
    29   12   31 1 
    30   12   32 1 
    31   13   14 ar
    32   13   15 ar
@<TRIPOS>SUBSTRUCTURE
1 MOL         1
@<TRIPOS>MOLECULE
query molecule
   32    32     1     0     0
SMALL
NO_CHARGE

@<TRIPOS>ATOM
      1 C          -7.8191  -46.4128  -15.6685 C.3       1 MOL     0.0072
      2 C          -7.5824  -47.8706  -15.1881 C.3       1 MOL    -0.0128
      3 C          -7.8714  -48.8738  -16.3372 C.3       1 MOL     0.0072
      4 C          -6.1578  -48.0474  -14.5965 C.3       1 MOL     0.0379
      5 C          -6.2005  -47.9854  -13.1132 C.ar      1 MOL    -0.0471
      6 C          -5.9086  -46.7985  -12.4335 C.ar      1 MOL     0.0037
      7 C          -5.9639  -46.7419  -11.0373 C.ar      1 MOL     0.0044
      8 C          -6.3112  -47.8775  -10.2946 C.ar      1 MOL    -0.0391
      9 C          -6.5947  -49.0739  -10.9722 C.ar      1 MOL     0.0044
     10 C          -6.5455  -49.1306  -12.3678 C.ar      1 MOL     0.0037
     11 C          -6.3857  -47.8754   -8.7998 C.3       1 MOL     0.0614
     12 C          -4.9720  -47.6524   -8.2362 C.3       1 MOL     0.0185
     13 C          -7.3572  -46.8058   -8.2912 C.2       1 MOL     0.0489
     14 O          -8.5737  -47.1581   -8.2641 O.co2     1 MOL    -0.5492
     15 O          -6.8814  -45.6845   -7.9516 O.co2     1 MOL    -0.5492
     16 H          -8.8522  -46.2857  -16.0510 H         1 MOL     0.0232
     17 H          -7.1064  -46.1695  -16.4868 H         1 MOL     0.0232
     18 H          -7.6503  -45.7007  -14.8340 H         1 MOL     0.0232
     19 H          -8.3171  -48.0943  -14.3738 H         1 MOL     0.0299
     20 H          -7.1683  -48.7106  -17.1810 H         1 MOL     0.0232
     21 H          -8.9082  -48.7354  -16.7127 H         1 MOL     0.0232
     22 H          -7.7637  -49.9201  -15.9836 H         1 MOL     0.0232
     23 H          -5.4777  -47.2547  -14.9670 H         1 MOL     0.0316
     24 H          -5.7445  -49.0409  -14.8676 H         1 MOL     0.0316
     25 H          -5.6358  -45.9191  -12.9992 H         1 MOL     0.0620
     26 H          -5.7345  -45.8154  -10.5317 H         1 MOL     0.0621
     27 H          -6.8552  -49.9572  -10.4056 H         1 MOL     0.0621
     28 H          -6.7690  -50.0572  -12.8746 H         1 MOL     0.0620
     29 H          -6.7403  -48.8734   -8.4433 H         1 MOL     0.0406
     30 H          -4.5700  -46.6730   -8.5695 H         1 MOL     0.0239
     31 H          -4.2832  -48.4538   -8.5754 H         1 MOL     0.0239
     32 H          -5.0021  -47.6608   -7.1254 H         1 MOL     0.0239
@<TRIPOS>BOND
     1    1    2 1 
     2    1   16 1 
     3    1   17 1 
     4    1   18 1 
     5    2    3 1 
     6    2    4 1 
     7    2   19 1 
     8    3   20 1 
     9    3   21 1 
    10    3   22 1 
    11    4    5 1 
    12    4   23 1 
    13    4   24 1 
    14    5    6 ar
    15    5   10 ar
    16    6    7 ar
    17    6   25 1 
    18    7    8 ar
    19    7   26 1 
    20    8    9 ar
    21    8   11 1 
    22    9   10 ar
    23    9   27 1 
    24   10   28 1 
    25   11   12 1 
    26   11   13 1 
    27   11   29 1 
    28   12   30 1 
    29   12   31 1 
    30   12   32 1 
    31   13   14 ar
    32   13   15 ar
@<TRIPOS>SUBSTRUCTURE
1 MOL         1
@<TRIPOS>MOLECULE
query molecule
   32    32     1     0     0
SMALL
NO_CHARGE

@<TRIPOS>ATOM
      1 C         -19.4688  -61.4637  -17.3265 C.3       1 MOL     0.0072
      2 C         -19.5454  -61.7567  -18.8487 C.3       1 MOL    -0.0128
      3 C         -19.3362  -60.4520  -19.6654 C.3       1 MOL     0.0072
      4 C         -18.5637  -62.8599  -19.3172 C.3       1 MOL     0.0379
      5 C         -19.0259  -64.2127  -18.9109 C.ar      1 MOL    -0.0471
      6 C         -19.8437  -64.9648  -19.7591 C.ar      1 MOL     0.0037
      7 C         -20.2631  -66.2445  -19.3777 C.ar      1 MOL     0.0044
      8 C         -19.8776  -66.7801  -18.1369 C.ar      1 MOL    -0.0391
      9 C         -19.0586  -66.0186  -17.2932 C.ar      1 MOL     0.0044
     10 C         -18.6324  -64.7470  -17.6757 C.ar      1 MOL     0.0037
     11 C         -20.3696  -68.1442  -17.7637 C.3       1 MOL     0.0614
     12 C         -19.2219  -69.0031  -17.1966 C.3       1 MOL     0.0185
     13 C         -21.5318  -68.0339  -16.7662 C.2       1 MOL     0.0489
     14 O         -22.5257  -68.7552  -17.0766 O.co2     1 MOL    -0.5492
     15 O         -21.4406  -67.2494  -15.7757 O.co2     1 MOL    -0.5492
     16 H         -20.2084  -60.6847  -17.0467 H         1 MOL     0.0232
     17 H         -18.4540  -61.1005  -17.0579 H         1 MOL     0.0232
     18 H         -19.6817  -62.3835  -16.7435 H         1 MOL     0.0232
     19 H         -20.5815  -62.1174  -19.0744 H         1 MOL     0.0299
     20 H         -18.3168  -60.0474  -19.4902 H         1 MOL     0.0232
     21 H         -20.0783  -59.6833  -19.3646 H         1 MOL     0.0232
     22 H         -19.4535  -60.6526  -20.7512 H         1 MOL     0.0232
     23 H         -17.5506  -62.6960  -18.9005 H         1 MOL     0.0316
     24 H         -18.5050  -62.8631  -20.4284 H         1 MOL     0.0316
     25 H         -20.1561  -64.5582  -20.7109 H         1 MOL     0.0620
     26 H         -20.8965  -66.8214  -20.0372 H         1 MOL     0.0621
     27 H         -18.7561  -66.4216  -16.3369 H         1 MOL     0.0621
     28 H         -17.9974  -64.1715  -17.0188 H         1 MOL     0.0620
     29 H         -20.7579  -68.6607  -18.6788 H         1 MOL     0.0406
     30 H         -18.7935  -68.5300  -16.2873 H         1 MOL     0.0239
     31 H         -18.4093  -69.0899  -17.9540 H         1 MOL     0.0239
     32 H         -19.5715  -70.0244  -16.9395 H         1 MOL     0.0239
@<TRIPOS>BOND
     1    1    2 1 
     2    1   16 1 
     3    1   17 1 
     4    1   18 1 
     5    2    3 1 
     6    2    4 1 
     7    2   19 1 
     8    3   20 1 
     9    3   21 1 
    10    3   22 1 
    11    4    5 1 
    12    4   23 1 
    13    4   24 1 
    14    5    6 ar
    15    5   10 ar
    16    6    7 ar
    17    6   25 1 
    18    7    8 ar
    19    7   26 1 
    20    8    9 ar
    21    8   11 1 
    22    9   10 ar
    23    9   27 1 
    24   10   28 1 
    25   11   12 1 
    26   11   13 1 
    27   11   29 1 
    28   12   30 1 
    29   12   31 1 
    30   12   32 1 
    31   13   14 ar
    32   13   15 ar
@<TRIPOS>SUBSTRUCTURE
1 MOL         1
@<TRIPOS>MOLECULE
query molecule
   32    32     1     0     0
SMALL
NO_CHARGE

@<TRIPOS>ATOM
      1 C         -13.3445  -73.8568   -1.1189 C.3       1 MOL     0.0072
      2 C         -13.6400  -72.3632   -1.4249 C.3       1 MOL    -0.0128
      3 C         -14.9843  -71.9554   -0.7670 C.3       1 MOL     0.0072
      4 C         -12.4560  -71.4464   -1.0267 C.3       1 MOL     0.0379
      5 C         -12.3551  -70.2329   -1.8903 C.ar      1 MOL    -0.0471
      6 C         -11.1696  -69.9944   -2.6065 C.ar      1 MOL     0.0037
      7 C         -11.0328  -68.8440   -3.3953 C.ar      1 MOL     0.0044
      8 C         -12.0740  -67.9137   -3.4817 C.ar      1 MOL    -0.0391
      9 C         -13.2688  -68.1696   -2.7827 C.ar      1 MOL     0.0044
     10 C         -13.4033  -69.3123   -1.9912 C.ar      1 MOL     0.0037
     11 C         -11.9936  -66.6397   -4.2611 C.3       1 MOL     0.0614
     12 C         -11.1310  -65.6491   -3.4607 C.3       1 MOL     0.0185
     13 C         -11.4056  -66.7881   -5.6599 C.2       1 MOL     0.0489
     14 O         -11.9724  -67.6650   -6.3688 O.co2     1 MOL    -0.5492
     15 O         -10.4570  -66.0308   -6.0052 O.co2     1 MOL    -0.5492
     16 H         -14.1769  -74.4928   -1.4925 H         1 MOL     0.0232
     17 H         -13.2462  -74.0196   -0.0255 H         1 MOL     0.0232
     18 H         -12.4061  -74.1789   -1.6156 H         1 MOL     0.0232
     19 H         -13.7629  -72.2789   -2.5350 H         1 MOL     0.0299
     20 H         -14.9317  -72.1007    0.3334 H         1 MOL     0.0232
     21 H         -15.8107  -72.5849   -1.1620 H         1 MOL     0.0232
     22 H         -15.2193  -70.8917   -0.9738 H         1 MOL     0.0232
     23 H         -11.5013  -72.0057   -1.1509 H         1 MOL     0.0316
     24 H         -12.5494  -71.1220    0.0294 H         1 MOL     0.0316
     25 H         -10.3530  -70.7004   -2.5457 H         1 MOL     0.0620
     26 H         -10.1147  -68.6748   -3.9412 H         1 MOL     0.0621
     27 H         -14.0894  -67.4702   -2.8578 H         1 MOL     0.0621
     28 H         -14.3220  -69.4859   -1.4507 H         1 MOL     0.0620
     29 H         -13.0217  -66.2025   -4.3481 H         1 MOL     0.0406
     30 H         -10.1081  -66.0599   -3.3227 H         1 MOL     0.0239
     31 H         -11.5738  -65.4673   -2.4610 H         1 MOL     0.0239
     32 H         -11.0485  -64.6815   -3.9976 H         1 MOL     0.0239
@<TRIPOS>BOND
     1    1    2 1 
     2    1   16 1 
     3    1   17 1 
     4    1   18 1 
     5    2    3 1 
     6    2    4 1 
     7    2   19 1 
     8    3   20 1 
     9    3   21 1 
    10    3   22 1 
    11    4    5 1 
    12    4   23 1 
    13    4   24 1 
    14    5    6 ar
    15    5   10 ar
    16    6    7 ar
    17    6   25 1 
    18    7    8 ar
    19    7   26 1 
    20    8    9 ar
    21    8   11 1 
    22    9   10 ar
    23    9   27 1 
    24   10   28 1 
    25   11   12 1 
    26   11   13 1 
    27   11   29 1 
    28   12   30 1 
    29   12   31 1 
    30   12   32 1 
    31   13   14 ar
    32   13   15 ar
@<TRIPOS>SUBSTRUCTURE
1 MOL         1
@<TRIPOS>MOLECULE
query molecule
   32    32     1     0     0
SMALL
NO_CHARGE

@<TRIPOS>ATOM
      1 C         -38.9419  -59.6259   32.4378 C.3       1 MOL     0.0072
      2 C         -40.0512  -59.8107   31.3644 C.3       1 MOL    -0.0128
      3 C         -41.0136  -58.5932   31.3506 C.3       1 MOL     0.0072
      4 C         -39.4517  -60.1098   29.9611 C.3       1 MOL     0.0379
      5 C         -40.2780  -61.0966   29.2089 C.ar      1 MOL    -0.0471
      6 C         -41.5544  -60.7766   28.7391 C.ar      1 MOL     0.0037
      7 C         -42.3096  -61.7327   28.0539 C.ar      1 MOL     0.0044
      8 C         -41.8142  -63.0297   27.8168 C.ar      1 MOL    -0.0391
      9 C         -40.5175  -63.3260   28.2802 C.ar      1 MOL     0.0044
     10 C         -39.7570  -62.3743   28.9643 C.ar      1 MOL     0.0037
     11 C         -42.6468  -64.0838   27.1334 C.3       1 MOL     0.0614
     12 C         -43.7099  -63.4742   26.2066 C.3       1 MOL     0.0185
     13 C         -41.8109  -65.0221   26.2624 C.2       1 MOL     0.0489
     14 O         -41.7598  -66.2329   26.6299 O.co2     1 MOL    -0.5492
     15 O         -41.2078  -64.5184   25.2725 O.co2     1 MOL    -0.5492
     16 H         -39.4055  -59.4434   33.4319 H         1 MOL     0.0232
     17 H         -38.2860  -58.7645   32.1954 H         1 MOL     0.0232
     18 H         -38.3145  -60.5395   32.5103 H         1 MOL     0.0232
     19 H         -40.6421  -60.7071   31.6712 H         1 MOL     0.0299
     20 H         -40.4763  -57.6677   31.0556 H         1 MOL     0.0232
     21 H         -41.4395  -58.4409   32.3656 H         1 MOL     0.0232
     22 H         -41.8476  -58.7639   30.6390 H         1 MOL     0.0232
     23 H         -38.4433  -60.5656   30.0766 H         1 MOL     0.0316
     24 H         -39.3658  -59.1852   29.3570 H         1 MOL     0.0316
     25 H         -41.9607  -59.7905   28.9136 H         1 MOL     0.0620
     26 H         -43.3005  -61.4729   27.7048 H         1 MOL     0.0621
     27 H         -40.1046  -64.3107   28.1056 H         1 MOL     0.0621
     28 H         -38.7647  -62.6274   29.3092 H         1 MOL     0.0620
     29 H         -43.1685  -64.6969   27.9113 H         1 MOL     0.0406
     30 H         -43.2174  -62.9215   25.3756 H         1 MOL     0.0239
     31 H         -44.3630  -62.7733   26.7623 H         1 MOL     0.0239
     32 H         -44.3374  -64.2778   25.7641 H         1 MOL     0.0239
@<TRIPOS>BOND
     1    1    2 1 
     2    1   16 1 
     3    1   17 1 
     4    1   18 1 
     5    2    3 1 
     6    2    4 1 
     7    2   19 1 
     8    3   20 1 
     9    3   21 1 
    10    3   22 1 
    11    4    5 1 
    12    4   23 1 
    13    4   24 1 
    14    5    6 ar
    15    5   10 ar
    16    6    7 ar
    17    6   25 1 
    18    7    8 ar
    19    7   26 1 
    20    8    9 ar
    21    8   11 1 
    22    9   10 ar
    23    9   27 1 
    24   10   28 1 
    25   11   12 1 
    26   11   13 1 
    27   11   29 1 
    28   12   30 1 
    29   12   31 1 
    30   12   32 1 
    31   13   14 ar
    32   13   15 ar
@<TRIPOS>SUBSTRUCTURE
1 MOL         1
@<TRIPOS>MOLECULE
query molecule
   32    32     1     0     0
SMALL
NO_CHARGE

@<TRIPOS>ATOM
      1 C         -46.0421  -50.1251  -20.4455 C.3       1 MOL     0.0072
      2 C         -45.2073  -49.0138  -21.1306 C.3       1 MOL    -0.0128
      3 C         -43.6876  -49.3215  -21.1074 C.3       1 MOL     0.0072
      4 C         -45.7062  -48.7252  -22.5582 C.3       1 MOL     0.0379
      5 C         -46.5162  -47.4801  -22.6308 C.ar      1 MOL    -0.0471
      6 C         -46.0462  -46.2922  -22.0641 C.ar      1 MOL     0.0037
      7 C         -46.6972  -45.0868  -22.3219 C.ar      1 MOL     0.0044
      8 C         -47.8192  -45.0481  -23.1763 C.ar      1 MOL    -0.0391
      9 C         -48.3645  -46.2608  -23.6100 C.ar      1 MOL     0.0044
     10 C         -47.7280  -47.4748  -23.3302 C.ar      1 MOL     0.0037
     11 C         -48.3099  -43.7100  -23.6085 C.3       1 MOL     0.0614
     12 C         -48.0017  -43.5629  -25.1215 C.3       1 MOL     0.0185
     13 C         -49.7790  -43.4083  -23.4077 C.2       1 MOL     0.0489
     14 O         -50.5399  -44.2704  -22.8887 O.co2     1 MOL    -0.5492
     15 O         -50.1087  -42.2502  -23.8062 O.co2     1 MOL    -0.5492
     16 H         -45.7185  -50.2490  -19.3908 H         1 MOL     0.0232
     17 H         -45.9158  -51.0948  -20.9714 H         1 MOL     0.0232
     18 H         -47.1188  -49.8549  -20.4559 H         1 MOL     0.0232
     19 H         -45.3531  -48.0714  -20.5409 H         1 MOL     0.0299
     20 H         -43.4619  -50.2547  -21.6632 H         1 MOL     0.0232
     21 H         -43.3371  -49.4369  -20.0600 H         1 MOL     0.0232
     22 H         -43.1255  -48.4860  -21.5768 H         1 MOL     0.0232
     23 H         -46.3173  -49.5630  -22.9460 H         1 MOL     0.0316
     24 H         -44.8327  -48.5732  -23.2328 H         1 MOL     0.0316
     25 H         -45.1563  -46.2978  -21.4513 H         1 MOL     0.0620
     26 H         -46.3203  -44.1671  -21.8948 H         1 MOL     0.0621
     27 H         -49.2817  -46.2625  -24.1805 H         1 MOL     0.0621
     28 H         -48.1595  -48.4042  -23.6703 H         1 MOL     0.0620
     29 H         -47.7243  -42.9138  -23.0750 H         1 MOL     0.0406
     30 H         -48.5720  -44.3054  -25.7174 H         1 MOL     0.0239
     31 H         -46.9177  -43.7286  -25.2983 H         1 MOL     0.0239
     32 H         -48.2606  -42.5440  -25.4795 H         1 MOL     0.0239
@<TRIPOS>BOND
     1    1    2 1 
     2    1   16 1 
     3    1   17 1 
     4    1   18 1 
     5    2    3 1 
     6    2    4 1 
     7    2   19 1 
     8    3   20 1 
     9    3   21 1 
    10    3   22 1 
    11    4    5 1 
    12    4   23 1 
    13    4   24 1 
    14    5    6 ar
    15    5   10 ar
    16    6    7 ar
    17    6   25 1 
    18    7    8 ar
    19    7   26 1 
    20    8    9 ar
    21    8   11 1 
    22    9   10 ar
    23    9   27 1 
    24   10   28 1 
    25   11   12 1 
    26   11   13 1 
    27   11   29 1 
    28   12   30 1 
    29   12   31 1 
    30   12   32 1 
    31   13   14 ar
    32   13   15 ar
@<TRIPOS>SUBSTRUCTURE
1 MOL         1
@<TRIPOS>MOLECULE
query molecule
   32    32     1     0     0
SMALL
NO_CHARGE

@<TRIPOS>ATOM
      1 C         -24.8257  -22.4153   -4.9658 C.3       1 MOL     0.0072
      2 C         -25.2643  -23.3801   -3.8374 C.3       1 MOL    -0.0128
      3 C         -26.6240  -24.0327   -4.1980 C.3       1 MOL     0.0072
      4 C         -24.1524  -24.4154   -3.5194 C.3       1 MOL     0.0379
      5 C         -24.4309  -25.0932   -2.2236 C.ar      1 MOL    -0.0471
      6 C         -24.0322  -24.4803   -1.0299 C.ar      1 MOL     0.0037
      7 C         -24.3669  -25.0530    0.1990 C.ar      1 MOL     0.0044
      8 C         -25.1030  -26.2425    0.2539 C.ar      1 MOL    -0.0391
      9 C         -25.4297  -26.8932   -0.9511 C.ar      1 MOL     0.0044
     10 C         -25.0953  -26.3221   -2.1828 C.ar      1 MOL     0.0037
     11 C         -25.5736  -26.8522    1.5329 C.3       1 MOL     0.0614
     12 C         -24.3907  -27.1174    2.4712 C.3       1 MOL     0.0185
     13 C         -26.6423  -26.0104    2.2357 C.2       1 MOL     0.0489
     14 O         -27.4522  -26.7176    2.9054 O.co2     1 MOL    -0.5492
     15 O         -26.6593  -24.7555    2.0958 O.co2     1 MOL    -0.5492
     16 H         -25.5972  -21.6364   -5.1383 H         1 MOL     0.0232
     17 H         -24.6667  -22.9768   -5.9094 H         1 MOL     0.0232
     18 H         -23.8744  -21.9146   -4.6879 H         1 MOL     0.0232
     19 H         -25.4125  -22.7591   -2.9172 H         1 MOL     0.0299
     20 H         -26.5218  -24.6526   -5.1141 H         1 MOL     0.0232
     21 H         -27.3842  -23.2461   -4.3908 H         1 MOL     0.0232
     22 H         -26.9834  -24.6782   -3.3705 H         1 MOL     0.0232
     23 H         -23.1735  -23.9011   -3.4104 H         1 MOL     0.0316
     24 H         -24.0798  -25.1786   -4.3172 H         1 MOL     0.0316
     25 H         -23.4776  -23.5545   -1.0637 H         1 MOL     0.0620
     26 H         -24.0662  -24.5673    1.1162 H         1 MOL     0.0621
     27 H         -25.9507  -27.8407   -0.9284 H         1 MOL     0.0621
     28 H         -25.3600  -26.8247   -3.1019 H         1 MOL     0.0620
     29 H         -26.0391  -27.8462    1.3030 H         1 MOL     0.0406
     30 H         -23.8775  -26.1716    2.7379 H         1 MOL     0.0239
     31 H         -23.6560  -27.7897    1.9767 H         1 MOL     0.0239
     32 H         -24.7424  -27.6076    3.4033 H         1 MOL     0.0239
@<TRIPOS>BOND
     1    1    2 1 
     2    1   16 1 
     3    1   17 1 
     4    1   18 1 
     5    2    3 1 
     6    2    4 1 
     7    2   19 1 
     8    3   20 1 
     9    3   21 1 
    10    3   22 1 
    11    4    5 1 
    12    4   23 1 
    13    4   24 1 
    14    5    6 ar
    15    5   10 ar
    16    6    7 ar
    17    6   25 1 
    18    7    8 ar
    19    7   26 1 
    20    8    9 ar
    21    8   11 1 
    22    9   10 ar
    23    9   27 1 
    24   10   28 1 
    25   11   12 1 
    26   11   13 1 
    27   11   29 1 
    28   12   30 1 
    29   12   31 1 
    30   12   32 1 
    31   13   14 ar
    32   13   15 ar
@<TRIPOS>SUBSTRUCTURE
1 MOL         1
@<TRIPOS>MOLECULE
query molecule
   32    32     1     0     0
SMALL
NO_CHARGE

@<TRIPOS>ATOM
      1 C         -64.7754  -57.8648  -23.8473 C.3       1 MOL     0.0072
      2 C         -64.0006  -59.0754  -23.2671 C.3       1 MOL    -0.0128
      3 C         -63.3006  -59.8933  -24.3828 C.3       1 MOL     0.0072
      4 C         -63.0098  -58.6334  -22.1625 C.3       1 MOL     0.0379
      5 C         -63.5889  -58.9450  -20.8268 C.ar      1 MOL    -0.0471
      6 C         -63.1861  -60.1018  -20.1538 C.ar      1 MOL     0.0037
      7 C         -63.7150  -60.3969  -18.8947 C.ar      1 MOL     0.0044
      8 C         -64.6525  -59.5441  -18.2951 C.ar      1 MOL    -0.0391
      9 C         -65.0573  -58.3851  -18.9829 C.ar      1 MOL     0.0044
     10 C         -64.5219  -58.0830  -20.2398 C.ar      1 MOL     0.0037
     11 C         -65.2423  -59.8359  -16.9474 C.3       1 MOL     0.0614
     12 C         -66.2174  -61.0252  -17.1255 C.3       1 MOL     0.0185
     13 C         -64.1886  -60.1838  -15.8858 C.2       1 MOL     0.0489
     14 O         -63.8503  -61.4010  -15.7784 O.co2     1 MOL    -0.5492
     15 O         -63.7071  -59.2366  -15.1925 O.co2     1 MOL    -0.5492
     16 H         -65.5131  -58.2093  -24.6022 H         1 MOL     0.0232
     17 H         -64.0737  -57.1561  -24.3344 H         1 MOL     0.0232
     18 H         -65.3174  -57.3315  -23.0391 H         1 MOL     0.0232
     19 H         -64.7567  -59.7478  -22.7856 H         1 MOL     0.0299
     20 H         -62.5215  -59.2785  -24.8803 H         1 MOL     0.0232
     21 H         -64.0406  -60.2108  -25.1483 H         1 MOL     0.0232
     22 H         -62.8200  -60.8002  -23.9597 H         1 MOL     0.0232
     23 H         -62.8345  -57.5402  -22.2083 H         1 MOL     0.0316
     24 H         -62.0456  -59.1719  -22.2567 H         1 MOL     0.0316
     25 H         -62.4643  -60.7664  -20.6026 H         1 MOL     0.0620
     26 H         -63.4006  -61.2917  -18.3769 H         1 MOL     0.0621
     27 H         -65.7816  -57.7176  -18.5374 H         1 MOL     0.0621
     28 H         -64.8266  -57.1853  -20.7584 H         1 MOL     0.0620
     29 H         -65.8294  -58.9536  -16.5971 H         1 MOL     0.0406
     30 H         -65.6621  -61.9186  -17.4842 H         1 MOL     0.0239
     31 H         -67.0149  -60.7865  -17.8589 H         1 MOL     0.0239
     32 H         -66.6917  -61.2761  -16.1534 H         1 MOL     0.0239
@<TRIPOS>BOND
     1    1    2 1 
     2    1   16 1 
     3    1   17 1 
     4    1   18 1 
     5    2    3 1 
     6    2    4 1 
     7    2   19 1 
     8    3   20 1 
     9    3   21 1 
    10    3   22 1 
    11    4    5 1 
    12    4   23 1 
    13    4   24 1 
    14    5    6 ar
    15    5   10 ar
    16    6    7 ar
    17    6   25 1 
    18    7    8 ar
    19    7   26 1 
    20    8    9 ar
    21    8   11 1 
    22    9   10 ar
    23    9   27 1 
    24   10   28 1 
    25   11   12 1 
    26   11   13 1 
    27   11   29 1 
    28   12   30 1 
    29   12   31 1 
    30   12   32 1 
    31   13   14 ar
    32   13   15 ar
@<TRIPOS>SUBSTRUCTURE
1 MOL         1
@<TRIPOS>MOLECULE
query molecule
   32    32     1     0     0
SMALL
NO_CHARGE

@<TRIPOS>ATOM
      1 C         -16.0625  -32.4414   13.2214 C.3       1 MOL     0.0072
      2 C         -15.7776  -33.8425   12.6192 C.3       1 MOL    -0.0128
      3 C         -16.1675  -34.9513   13.6336 C.3       1 MOL     0.0072
      4 C         -16.4500  -34.0421   11.2386 C.3       1 MOL     0.0379
      5 C         -15.6874  -33.3387   10.1673 C.ar      1 MOL    -0.0471
      6 C         -16.1039  -32.0874    9.7042 C.ar      1 MOL     0.0037
      7 C         -15.3853  -31.4325    8.7016 C.ar      1 MOL     0.0044
      8 C         -14.2382  -32.0186    8.1468 C.ar      1 MOL    -0.0391
      9 C         -13.8302  -33.2806    8.6069 C.ar      1 MOL     0.0044
     10 C         -14.5510  -33.9380    9.6083 C.ar      1 MOL     0.0037
     11 C         -13.4178  -31.3740    7.0759 C.3       1 MOL     0.0614
     12 C         -14.3197  -31.0237    5.8796 C.3       1 MOL     0.0185
     13 C         -12.7240  -30.0965    7.5514 C.2       1 MOL     0.0489
     14 O         -13.3917  -29.2461    8.1953 O.co2     1 MOL    -0.5492
     15 O         -11.4991  -30.0144    7.2209 O.co2     1 MOL    -0.5492
     16 H         -15.5508  -32.3332   14.2005 H         1 MOL     0.0232
     17 H         -17.1535  -32.3032   13.3749 H         1 MOL     0.0232
     18 H         -15.6954  -31.6478   12.5378 H         1 MOL     0.0232
     19 H         -14.6713  -33.9305   12.4663 H         1 MOL     0.0299
     20 H         -17.2521  -34.9151   13.8637 H         1 MOL     0.0232
     21 H         -15.6029  -34.8070   14.5811 H         1 MOL     0.0232
     22 H         -15.9200  -35.9558   13.2308 H         1 MOL     0.0232
     23 H         -17.4893  -33.6593   11.2457 H         1 MOL     0.0316
     24 H         -16.4597  -35.1230   10.9780 H         1 MOL     0.0316
     25 H         -16.9879  -31.6285   10.1251 H         1 MOL     0.0620
     26 H         -15.7170  -30.4628    8.3558 H         1 MOL     0.0621
     27 H         -12.9523  -33.7406    8.1786 H         1 MOL     0.0621
     28 H         -14.2278  -34.9118    9.9399 H         1 MOL     0.0620
     29 H         -12.6269  -32.0840    6.7285 H         1 MOL     0.0406
     30 H         -15.1285  -30.3341    6.1963 H         1 MOL     0.0239
     31 H         -14.7776  -31.9485    5.4701 H         1 MOL     0.0239
     32 H         -13.7270  -30.5359    5.0777 H         1 MOL     0.0239
@<TRIPOS>BOND
     1    1    2 1 
     2    1   16 1 
     3    1   17 1 
     4    1   18 1 
     5    2    3 1 
     6    2    4 1 
     7    2   19 1 
     8    3   20 1 
     9    3   21 1 
    10    3   22 1 
    11    4    5 1 
    12    4   23 1 
    13    4   24 1 
    14    5    6 ar
    15    5   10 ar
    16    6    7 ar
    17    6   25 1 
    18    7    8 ar
    19    7   26 1 
    20    8    9 ar
    21    8   11 1 
    22    9   10 ar
    23    9   27 1 
    24   10   28 1 
    25   11   12 1 
    26   11   13 1 
    27   11   29 1 
    28   12   30 1 
    29   12   31 1 
    30   12   32 1 
    31   13   14 ar
    32   13   15 ar
@<TRIPOS>SUBSTRUCTURE
1 MOL         1
@<TRIPOS>MOLECULE
query molecule
   32    32     1     0     0
SMALL
NO_CHARGE

@<TRIPOS>ATOM
      1 C           0.8813  -48.4869    5.3903 C.3       1 MOL     0.0072
      2 C          -0.1096  -47.7259    4.4776 C.3       1 MOL    -0.0128
      3 C           0.2927  -47.8377    2.9877 C.3       1 MOL     0.0072
      4 C          -1.5705  -48.1629    4.7232 C.3       1 MOL     0.0379
      5 C          -2.5369  -47.0272    4.7046 C.ar      1 MOL    -0.0471
      6 C          -2.2222  -45.7508    4.2255 C.ar      1 MOL     0.0037
      7 C          -3.1634  -44.7213    4.2727 C.ar      1 MOL     0.0044
      8 C          -4.4377  -44.9444    4.8045 C.ar      1 MOL    -0.0391
      9 C          -4.7719  -46.2383    5.2434 C.ar      1 MOL     0.0044
     10 C          -3.8294  -47.2681    5.2026 C.ar      1 MOL     0.0037
     11 C          -5.4576  -43.8654    4.9648 C.3       1 MOL     0.0614
     12 C          -4.8126  -42.4959    5.2347 C.3       1 MOL     0.0185
     13 C          -6.3771  -43.7850    3.7588 C.2       1 MOL     0.0489
     14 O          -6.2901  -42.7962    2.9750 O.co2     1 MOL    -0.5492
     15 O          -7.2333  -44.7143    3.7215 O.co2     1 MOL    -0.5492
     16 H           1.9104  -48.0973    5.2435 H         1 MOL     0.0232
     17 H           0.8746  -49.5710    5.1586 H         1 MOL     0.0232
     18 H           0.6014  -48.3475    6.4552 H         1 MOL     0.0232
     19 H          -0.0448  -46.6438    4.7627 H         1 MOL     0.0299
     20 H           0.2790  -48.9011    2.6640 H         1 MOL     0.0232
     21 H           1.3171  -47.4341    2.8360 H         1 MOL     0.0232
     22 H          -0.4147  -47.2618    2.3525 H         1 MOL     0.0232
     23 H          -1.6457  -48.6169    5.7380 H         1 MOL     0.0316
     24 H          -1.8913  -48.9139    3.9729 H         1 MOL     0.0316
     25 H          -1.2383  -45.5606    3.8202 H         1 MOL     0.0620
     26 H          -2.9002  -43.7389    3.9066 H         1 MOL     0.0621
     27 H          -5.7628  -46.4365    5.6271 H         1 MOL     0.0621
     28 H          -4.0942  -48.2545    5.5562 H         1 MOL     0.0620
     29 H          -6.1018  -44.1081    5.8500 H         1 MOL     0.0406
     30 H          -4.1398  -42.2173    4.3976 H         1 MOL     0.0239
     31 H          -4.2248  -42.5267    6.1745 H         1 MOL     0.0239
     32 H          -5.6013  -41.7202    5.3306 H         1 MOL     0.0239
@<TRIPOS>BOND
     1    1    2 1 
     2    1   16 1 
     3    1   17 1 
     4    1   18 1 
     5    2    3 1 
     6    2    4 1 
     7    2   19 1 
     8    3   20 1 
     9    3   21 1 
    10    3   22 1 
    11    4    5 1 
    12    4   23 1 
    13    4   24 1 
    14    5    6 ar
    15    5   10 ar
    16    6    7 ar
    17    6   25 1 
    18    7    8 ar
    19    7   26 1 
    20    8    9 ar
    21    8   11 1 
    22    9   10 ar
    23    9   27 1 
    24   10   28 1 
    25   11   12 1 
    26   11   13 1 
    27   11   29 1 
    28   12   30 1 
    29   12   31 1 
    30   12   32 1 
    31   13   14 ar
    32   13   15 ar
@<TRIPOS>SUBSTRUCTURE
1 MOL         1
@<TRIPOS>MOLECULE
query molecule
   32    32     1     0     0
SMALL
NO_CHARGE

@<TRIPOS>ATOM
      1 C         -45.2900  -67.9892    5.4431 C.3       1 MOL     0.0072
      2 C         -46.6530  -67.7444    4.7431 C.3       1 MOL    -0.0128
      3 C         -46.5323  -66.6587    3.6409 C.3       1 MOL     0.0072
      4 C         -47.2350  -69.0719    4.1971 C.3       1 MOL     0.0379
      5 C         -48.6692  -69.2102    4.5627 C.ar      1 MOL    -0.0471
      6 C         -49.6224  -68.2991    4.1047 C.ar      1 MOL     0.0037
      7 C         -50.9635  -68.4723    4.4426 C.ar      1 MOL     0.0044
      8 C         -51.3801  -69.5475    5.2380 C.ar      1 MOL    -0.0391
      9 C         -50.4155  -70.4513    5.7022 C.ar      1 MOL     0.0044
     10 C         -49.0685  -70.2835    5.3696 C.ar      1 MOL     0.0037
     11 C         -52.8358  -69.6749    5.5302 C.3       1 MOL     0.0614
     12 C         -53.2440  -71.1570    5.5460 C.3       1 MOL     0.0185
     13 C         -53.2385  -69.0247    6.8470 C.2       1 MOL     0.0489
     14 O         -54.2586  -68.2843    6.7436 O.co2     1 MOL    -0.5492
     15 O         -52.5709  -69.2727    7.8866 O.co2     1 MOL    -0.5492
     16 H         -44.8993  -67.0446    5.8748 H         1 MOL     0.0232
     17 H         -44.5503  -68.3811    4.7137 H         1 MOL     0.0232
     18 H         -45.4073  -68.7316    6.2607 H         1 MOL     0.0232
     19 H         -47.3594  -67.3640    5.5239 H         1 MOL     0.0299
     20 H         -45.8272  -66.9969    2.8518 H         1 MOL     0.0232
     21 H         -46.1494  -65.7118    4.0767 H         1 MOL     0.0232
     22 H         -47.5183  -66.4620    3.1725 H         1 MOL     0.0232
     23 H         -46.7043  -69.9337    4.6583 H         1 MOL     0.0316
     24 H         -47.1397  -69.1286    3.0961 H         1 MOL     0.0316
     25 H         -49.3214  -67.4661    3.4859 H         1 MOL     0.0620
     26 H         -51.6986  -67.7634    4.0755 H         1 MOL     0.0621
     27 H         -50.7155  -71.2868    6.3191 H         1 MOL     0.0621
     28 H         -48.3279  -70.9841    5.7326 H         1 MOL     0.0620
     29 H         -53.4190  -69.1650    4.7199 H         1 MOL     0.0406
     30 H         -52.6980  -71.7104    6.3375 H         1 MOL     0.0239
     31 H         -53.0119  -71.6188    4.5628 H         1 MOL     0.0239
     32 H         -54.3337  -71.2512    5.7348 H         1 MOL     0.0239
@<TRIPOS>BOND
     1    1    2 1 
     2    1   16 1 
     3    1   17 1 
     4    1   18 1 
     5    2    3 1 
     6    2    4 1 
     7    2   19 1 
     8    3   20 1 
     9    3   21 1 
    10    3   22 1 
    11    4    5 1 
    12    4   23 1 
    13    4   24 1 
    14    5    6 ar
    15    5   10 ar
    16    6    7 ar
    17    6   25 1 
    18    7    8 ar
    19    7   26 1 
    20    8    9 ar
    21    8   11 1 
    22    9   10 ar
    23    9   27 1 
    24   10   28 1 
    25   11   12 1 
    26   11   13 1 
    27   11   29 1 
    28   12   30 1 
    29   12   31 1 
    30   12   32 1 
    31   13   14 ar
    32   13   15 ar
@<TRIPOS>SUBSTRUCTURE
1 MOL         1
@<TRIPOS>MOLECULE
query molecule
   32    32     1     0     0
SMALL
NO_CHARGE

@<TRIPOS>ATOM
      1 C         -26.9370  -26.3393    2.2080 C.3       1 MOL     0.0072
      2 C         -25.4073  -26.1096    2.2808 C.3       1 MOL    -0.0128
      3 C         -24.8626  -26.5092    3.6763 C.3       1 MOL     0.0072
      4 C         -24.6530  -26.8377    1.1378 C.3       1 MOL     0.0379
      5 C         -24.6324  -26.0207   -0.1086 C.ar      1 MOL    -0.0471
      6 C         -24.1200  -24.7170   -0.1145 C.ar      1 MOL     0.0037
      7 C         -24.1446  -23.9595   -1.2884 C.ar      1 MOL     0.0044
      8 C         -24.6829  -24.4970   -2.4687 C.ar      1 MOL    -0.0391
      9 C         -25.1488  -25.8168   -2.4694 C.ar      1 MOL     0.0044
     10 C         -25.1262  -26.5744   -1.2964 C.ar      1 MOL     0.0037
     11 C         -24.7454  -23.6089   -3.6681 C.3       1 MOL     0.0614
     12 C         -24.0194  -24.2362   -4.8626 C.3       1 MOL     0.0185
     13 C         -26.2055  -23.3372   -4.0191 C.2       1 MOL     0.0489
     14 O         -26.5755  -22.1456   -3.7663 O.co2     1 MOL    -0.5492
     15 O         -26.9054  -24.2704   -4.4878 O.co2     1 MOL    -0.5492
     16 H         -27.4641  -25.7857    3.0113 H         1 MOL     0.0232
     17 H         -27.1556  -27.4227    2.3233 H         1 MOL     0.0232
     18 H         -27.3316  -26.0055    1.2259 H         1 MOL     0.0232
     19 H         -25.2153  -25.0128    2.1616 H         1 MOL     0.0299
     20 H         -24.9927  -27.5973    3.8496 H         1 MOL     0.0232
     21 H         -25.4159  -25.9530    4.4622 H         1 MOL     0.0232
     22 H         -23.7841  -26.2584    3.7591 H         1 MOL     0.0232
     23 H         -25.1355  -27.8110    0.9131 H         1 MOL     0.0316
     24 H         -23.5946  -27.0126    1.4249 H         1 MOL     0.0316
     25 H         -23.7054  -24.2922    0.7879 H         1 MOL     0.0620
     26 H         -23.7528  -22.9523   -1.2885 H         1 MOL     0.0621
     27 H         -25.5359  -26.2480   -3.3799 H         1 MOL     0.0621
     28 H         -25.4944  -27.5892   -1.3029 H         1 MOL     0.0620
     29 H         -24.2540  -22.6327   -3.4310 H         1 MOL     0.0406
     30 H         -24.4985  -25.1985   -5.1410 H         1 MOL     0.0239
     31 H         -22.9548  -24.4276   -4.6151 H         1 MOL     0.0239
     32 H         -24.0627  -23.5563   -5.7399 H         1 MOL     0.0239
@<TRIPOS>BOND
     1    1    2 1 
     2    1   16 1 
     3    1   17 1 
     4    1   18 1 
     5    2    3 1 
     6    2    4 1 
     7    2   19 1 
     8    3   20 1 
     9    3   21 1 
    10    3   22 1 
    11    4    5 1 
    12    4   23 1 
    13    4   24 1 
    14    5    6 ar
    15    5   10 ar
    16    6    7 ar
    17    6   25 1 
    18    7    8 ar
    19    7   26 1 
    20    8    9 ar
    21    8   11 1 
    22    9   10 ar
    23    9   27 1 
    24   10   28 1 
    25   11   12 1 
    26   11   13 1 
    27   11   29 1 
    28   12   30 1 
    29   12   31 1 
    30   12   32 1 
    31   13   14 ar
    32   13   15 ar
@<TRIPOS>SUBSTRUCTURE
1 MOL         1
@<TRIPOS>MOLECULE
query molecule
   32    32     1     0     0
SMALL
NO_CHARGE

@<TRIPOS>ATOM
      1 C         -11.9754  -71.8872   23.4859 C.3       1 MOL     0.0072
      2 C         -12.3682  -71.8508   21.9830 C.3       1 MOL    -0.0128
      3 C         -13.9116  -71.8423   21.8289 C.3       1 MOL     0.0072
      4 C         -11.6775  -70.6705   21.2552 C.3       1 MOL     0.0379
      5 C         -11.6508  -70.8789   19.7807 C.ar      1 MOL    -0.0471
      6 C         -12.0016  -69.8337   18.9215 C.ar      1 MOL     0.0037
      7 C         -11.9383  -70.0188   17.5394 C.ar      1 MOL     0.0044
      8 C         -11.5294  -71.2447   16.9940 C.ar      1 MOL    -0.0391
      9 C         -11.1913  -72.2894   17.8607 C.ar      1 MOL     0.0044
     10 C         -11.2483  -72.1080   19.2451 C.ar      1 MOL     0.0037
     11 C         -11.4669  -71.3471   15.5053 C.3       1 MOL     0.0614
     12 C         -10.0583  -71.7633   15.0652 C.3       1 MOL     0.0185
     13 C         -12.4899  -72.3424   14.9896 C.2       1 MOL     0.0489
     14 O         -13.4776  -71.8235   14.3924 O.co2     1 MOL    -0.5492
     15 O         -12.2835  -73.5632   15.2197 O.co2     1 MOL    -0.5492
     16 H         -12.4283  -72.7709   23.9821 H         1 MOL     0.0232
     17 H         -12.3363  -70.9726   24.0033 H         1 MOL     0.0232
     18 H         -10.8728  -71.9409   23.5997 H         1 MOL     0.0232
     19 H         -11.9821  -72.7948   21.5211 H         1 MOL     0.0299
     20 H         -14.3462  -70.9372   22.3066 H         1 MOL     0.0232
     21 H         -14.3441  -72.7361   22.3255 H         1 MOL     0.0232
     22 H         -14.2026  -71.8532   20.7583 H         1 MOL     0.0232
     23 H         -10.6187  -70.5915   21.5876 H         1 MOL     0.0316
     24 H         -12.1924  -69.7120   21.4675 H         1 MOL     0.0316
     25 H         -12.3170  -68.8812   19.3222 H         1 MOL     0.0620
     26 H         -12.2080  -69.2042   16.8818 H         1 MOL     0.0621
     27 H         -10.8733  -73.2377   17.4536 H         1 MOL     0.0621
     28 H         -10.9703  -72.9142   19.9068 H         1 MOL     0.0620
     29 H         -11.6940  -70.3537   15.0498 H         1 MOL     0.0406
     30 H          -9.8053  -72.7496   15.5129 H         1 MOL     0.0239
     31 H          -9.3049  -71.0238   15.4034 H         1 MOL     0.0239
     32 H         -10.0042  -71.8665   13.9620 H         1 MOL     0.0239
@<TRIPOS>BOND
     1    1    2 1 
     2    1   16 1 
     3    1   17 1 
     4    1   18 1 
     5    2    3 1 
     6    2    4 1 
     7    2   19 1 
     8    3   20 1 
     9    3   21 1 
    10    3   22 1 
    11    4    5 1 
    12    4   23 1 
    13    4   24 1 
    14    5    6 ar
    15    5   10 ar
    16    6    7 ar
    17    6   25 1 
    18    7    8 ar
    19    7   26 1 
    20    8    9 ar
    21    8   11 1 
    22    9   10 ar
    23    9   27 1 
    24   10   28 1 
    25   11   12 1 
    26   11   13 1 
    27   11   29 1 
    28   12   30 1 
    29   12   31 1 
    30   12   32 1 
    31   13   14 ar
    32   13   15 ar
@<TRIPOS>SUBSTRUCTURE
1 MOL         1
@<TRIPOS>MOLECULE
query molecule
   32    32     1     0     0
SMALL
NO_CHARGE

@<TRIPOS>ATOM
      1 C         -15.0757  -66.7906   25.4133 C.3       1 MOL     0.0072
      2 C         -14.6437  -65.8173   24.2837 C.3       1 MOL    -0.0128
      3 C         -14.9119  -64.3492   24.7054 C.3       1 MOL     0.0072
      4 C         -13.1737  -66.0146   23.8434 C.3       1 MOL     0.0379
      5 C         -13.0369  -67.1642   22.9050 C.ar      1 MOL    -0.0471
      6 C         -13.2237  -66.9791   21.5294 C.ar      1 MOL     0.0037
      7 C         -13.0802  -68.0583   20.6509 C.ar      1 MOL     0.0044
      8 C         -12.7428  -69.3255   21.1457 C.ar      1 MOL    -0.0391
      9 C         -12.5500  -69.5031   22.5190 C.ar      1 MOL     0.0044
     10 C         -12.7092  -68.4328   23.3958 C.ar      1 MOL     0.0037
     11 C         -12.6279  -70.4644   20.1741 C.3       1 MOL     0.0614
     12 C         -11.1668  -70.9486   20.1587 C.3       1 MOL     0.0185
     13 C         -13.6091  -71.5653   20.5868 C.2       1 MOL     0.0489
     14 O         -14.7934  -71.3731   20.2079 O.co2     1 MOL    -0.5492
     15 O         -13.1688  -72.5468   21.2623 O.co2     1 MOL    -0.5492
     16 H         -16.1514  -66.6450   25.6497 H         1 MOL     0.0232
     17 H         -14.4834  -66.6063   26.3334 H         1 MOL     0.0232
     18 H         -14.9246  -67.8443   25.0985 H         1 MOL     0.0232
     19 H         -15.2856  -66.0210   23.3885 H         1 MOL     0.0299
     20 H         -14.3152  -64.0934   25.6060 H         1 MOL     0.0232
     21 H         -15.9881  -64.2118   24.9430 H         1 MOL     0.0232
     22 H         -14.6371  -63.6537   23.8857 H         1 MOL     0.0232
     23 H         -12.5185  -66.1924   24.7195 H         1 MOL     0.0316
     24 H         -12.8196  -65.1137   23.2967 H         1 MOL     0.0316
     25 H         -13.4832  -66.0022   21.1483 H         1 MOL     0.0620
     26 H         -13.2363  -67.9138   19.5928 H         1 MOL     0.0621
     27 H         -12.2850  -70.4784   22.9053 H         1 MOL     0.0621
     28 H         -12.5727  -68.5809   24.4583 H         1 MOL     0.0620
     29 H         -12.8860  -70.1192   19.1513 H         1 MOL     0.0406
     30 H         -10.8545  -71.3038   21.1570 H         1 MOL     0.0239
     31 H         -10.4965  -70.1158   19.8503 H         1 MOL     0.0239
     32 H         -11.0536  -71.7807   19.4312 H         1 MOL     0.0239
@<TRIPOS>BOND
     1    1    2 1 
     2    1   16 1 
     3    1   17 1 
     4    1   18 1 
     5    2    3 1 
     6    2    4 1 
     7    2   19 1 
     8    3   20 1 
     9    3   21 1 
    10    3   22 1 
    11    4    5 1 
    12    4   23 1 
    13    4   24 1 
    14    5    6 ar
    15    5   10 ar
    16    6    7 ar
    17    6   25 1 
    18    7    8 ar
    19    7   26 1 
    20    8    9 ar
    21    8   11 1 
    22    9   10 ar
    23    9   27 1 
    24   10   28 1 
    25   11   12 1 
    26   11   13 1 
    27   11   29 1 
    28   12   30 1 
    29   12   31 1 
    30   12   32 1 
    31   13   14 ar
    32   13   15 ar
@<TRIPOS>SUBSTRUCTURE
1 MOL         1
@<TRIPOS>MOLECULE
query molecule
   32    32     1     0     0
SMALL
NO_CHARGE

@<TRIPOS>ATOM
      1 C         -70.6921  -52.9042   20.3410 C.3       1 MOL     0.0072
      2 C         -70.2543  -51.7564   19.3910 C.3       1 MOL    -0.0128
      3 C         -71.4741  -50.8941   18.9686 C.3       1 MOL     0.0072
      4 C         -69.1056  -50.9162   20.0101 C.3       1 MOL     0.0379
      5 C         -68.2604  -50.3098   18.9404 C.ar      1 MOL    -0.0471
      6 C         -67.3076  -51.0914   18.2754 C.ar      1 MOL     0.0037
      7 C         -66.5148  -50.5283   17.2706 C.ar      1 MOL     0.0044
      8 C         -66.6389  -49.1670   16.9313 C.ar      1 MOL    -0.0391
      9 C         -67.5979  -48.3972   17.6041 C.ar      1 MOL     0.0044
     10 C         -68.4034  -48.9607   18.6001 C.ar      1 MOL     0.0037
     11 C         -65.7289  -48.6085   15.8739 C.3       1 MOL     0.0614
     12 C         -66.4313  -47.5143   15.0505 C.3       1 MOL     0.0185
     13 C         -64.4307  -48.0822   16.5017 C.2       1 MOL     0.0489
     14 O         -64.1610  -46.8447   16.4829 O.co2     1 MOL    -0.5492
     15 O         -63.7160  -48.9736   17.0488 O.co2     1 MOL    -0.5492
     16 H         -71.4740  -53.5270   19.8569 H         1 MOL     0.0232
     17 H         -71.1038  -52.4914   21.2854 H         1 MOL     0.0232
     18 H         -69.8254  -53.5537   20.5855 H         1 MOL     0.0232
     19 H         -69.8468  -52.2419   18.4671 H         1 MOL     0.0299
     20 H         -71.9264  -50.4061   19.8581 H         1 MOL     0.0232
     21 H         -72.2469  -51.5311   18.4879 H         1 MOL     0.0232
     22 H         -71.1672  -50.1066   18.2499 H         1 MOL     0.0232
     23 H         -68.4412  -51.5755   20.6108 H         1 MOL     0.0316
     24 H         -69.5022  -50.1101   20.6567 H         1 MOL     0.0316
     25 H         -67.1870  -52.1311   18.5453 H         1 MOL     0.0620
     26 H         -65.7891  -51.1463   16.7613 H         1 MOL     0.0621
     27 H         -67.7200  -47.3534   17.3497 H         1 MOL     0.0621
     28 H         -69.1384  -48.3533   19.1091 H         1 MOL     0.0620
     29 H         -65.4581  -49.4332   15.1655 H         1 MOL     0.0406
     30 H         -66.7167  -46.6706   15.7146 H         1 MOL     0.0239
     31 H         -67.3508  -47.8956   14.5580 H         1 MOL     0.0239
     32 H         -65.7435  -47.1360   14.2648 H         1 MOL     0.0239
@<TRIPOS>BOND
     1    1    2 1 
     2    1   16 1 
     3    1   17 1 
     4    1   18 1 
     5    2    3 1 
     6    2    4 1 
     7    2   19 1 
     8    3   20 1 
     9    3   21 1 
    10    3   22 1 
    11    4    5 1 
    12    4   23 1 
    13    4   24 1 
    14    5    6 ar
    15    5   10 ar
    16    6    7 ar
    17    6   25 1 
    18    7    8 ar
    19    7   26 1 
    20    8    9 ar
    21    8   11 1 
    22    9   10 ar
    23    9   27 1 
    24   10   28 1 
    25   11   12 1 
    26   11   13 1 
    27   11   29 1 
    28   12   30 1 
    29   12   31 1 
    30   12   32 1 
    31   13   14 ar
    32   13   15 ar
@<TRIPOS>SUBSTRUCTURE
1 MOL         1
@<TRIPOS>MOLECULE
query molecule
   32    32     1     0     0
SMALL
NO_CHARGE

@<TRIPOS>ATOM
      1 C         -42.3504  -64.9155  -15.1254 C.3       1 MOL     0.0072
      2 C         -41.0907  -65.7412  -14.7479 C.3       1 MOL    -0.0128
      3 C         -41.4006  -66.6867  -13.5540 C.3       1 MOL     0.0072
      4 C         -40.4897  -66.4763  -15.9804 C.3       1 MOL     0.0379
      5 C         -39.0113  -66.6529  -15.8462 C.ar      1 MOL    -0.0471
      6 C         -38.4924  -67.6554  -15.0172 C.ar      1 MOL     0.0037
      7 C         -37.1135  -67.8001  -14.8580 C.ar      1 MOL     0.0044
      8 C         -36.2275  -66.9566  -15.5480 C.ar      1 MOL    -0.0391
      9 C         -36.7463  -65.9724  -16.3991 C.ar      1 MOL     0.0044
     10 C         -38.1297  -65.8202  -16.5495 C.ar      1 MOL     0.0037
     11 C         -34.7607  -67.1634  -15.3380 C.3       1 MOL     0.0614
     12 C         -34.0934  -67.5354  -16.6736 C.3       1 MOL     0.0185
     13 C         -34.0992  -65.9042  -14.7728 C.2       1 MOL     0.0489
     14 O         -33.7150  -64.9872  -15.5560 O.co2     1 MOL    -0.5492
     15 O         -33.9910  -65.9089  -13.5138 O.co2     1 MOL    -0.5492
     16 H         -42.7125  -64.3465  -14.2428 H         1 MOL     0.0232
     17 H         -43.1619  -65.5900  -15.4707 H         1 MOL     0.0232
     18 H         -42.1157  -64.1972  -15.9382 H         1 MOL     0.0232
     19 H         -40.3155  -65.0105  -14.3999 H         1 MOL     0.0299
     20 H         -42.1657  -67.4381  -13.8420 H         1 MOL     0.0232
     21 H         -41.7710  -66.1181  -12.6754 H         1 MOL     0.0232
     22 H         -40.4724  -67.2224  -13.2620 H         1 MOL     0.0232
     23 H         -40.6683  -65.8790  -16.9019 H         1 MOL     0.0316
     24 H         -40.9480  -67.4779  -16.1039 H         1 MOL     0.0316
     25 H         -39.1665  -68.3146  -14.4899 H         1 MOL     0.0620
     26 H         -36.7297  -68.5646  -14.1984 H         1 MOL     0.0621
     27 H         -36.0731  -65.3275  -16.9456 H         1 MOL     0.0621
     28 H         -38.5196  -65.0595  -17.2105 H         1 MOL     0.0620
     29 H         -34.6133  -68.0096  -14.6189 H         1 MOL     0.0406
     30 H         -34.1835  -66.6821  -17.3783 H         1 MOL     0.0239
     31 H         -34.5711  -68.4251  -17.1324 H         1 MOL     0.0239
     32 H         -33.0156  -67.7469  -16.5156 H         1 MOL     0.0239
@<TRIPOS>BOND
     1    1    2 1 
     2    1   16 1 
     3    1   17 1 
     4    1   18 1 
     5    2    3 1 
     6    2    4 1 
     7    2   19 1 
     8    3   20 1 
     9    3   21 1 
    10    3   22 1 
    11    4    5 1 
    12    4   23 1 
    13    4   24 1 
    14    5    6 ar
    15    5   10 ar
    16    6    7 ar
    17    6   25 1 
    18    7    8 ar
    19    7   26 1 
    20    8    9 ar
    21    8   11 1 
    22    9   10 ar
    23    9   27 1 
    24   10   28 1 
    25   11   12 1 
    26   11   13 1 
    27   11   29 1 
    28   12   30 1 
    29   12   31 1 
    30   12   32 1 
    31   13   14 ar
    32   13   15 ar
@<TRIPOS>SUBSTRUCTURE
1 MOL         1
@<TRIPOS>MOLECULE
query molecule
   32    32     1     0     0
SMALL
NO_CHARGE

@<TRIPOS>ATOM
      1 C         -44.8238  -71.1941   12.6557 C.3       1 MOL     0.0072
      2 C         -43.8710  -72.3009   12.1365 C.3       1 MOL    -0.0128
      3 C         -44.6175  -73.3265   11.2454 C.3       1 MOL     0.0072
      4 C         -42.6317  -71.7212   11.3967 C.3       1 MOL     0.0379
      5 C         -41.4965  -71.4702   12.3333 C.ar      1 MOL    -0.0471
      6 C         -40.6918  -70.3342   12.1685 C.ar      1 MOL     0.0037
      7 C         -39.6768  -70.0496   13.0905 C.ar      1 MOL     0.0044
      8 C         -39.4568  -70.8967   14.1904 C.ar      1 MOL    -0.0391
      9 C         -40.2129  -72.0701   14.3032 C.ar      1 MOL     0.0044
     10 C         -41.2168  -72.3541   13.3819 C.ar      1 MOL     0.0037
     11 C         -38.4608  -70.4791   15.2165 C.3       1 MOL     0.0614
     12 C         -39.2475  -70.2363   16.5260 C.3       1 MOL     0.0185
     13 C         -37.3452  -71.4714   15.4952 C.2       1 MOL     0.0489
     14 O         -37.4512  -72.6722   15.1096 O.co2     1 MOL    -0.5492
     15 O         -36.3520  -70.9655   16.0885 O.co2     1 MOL    -0.5492
     16 H         -45.6779  -71.6438   13.2051 H         1 MOL     0.0232
     17 H         -45.2232  -70.6147   11.7967 H         1 MOL     0.0232
     18 H         -44.2899  -70.5009   13.3376 H         1 MOL     0.0232
     19 H         -43.4958  -72.8630   13.0303 H         1 MOL     0.0299
     20 H         -45.0005  -72.8211   10.3348 H         1 MOL     0.0232
     21 H         -45.4709  -73.7779   11.7923 H         1 MOL     0.0232
     22 H         -43.9251  -74.1386   10.9370 H         1 MOL     0.0232
     23 H         -42.8962  -70.7660   10.8995 H         1 MOL     0.0316
     24 H         -42.2778  -72.4490   10.6348 H         1 MOL     0.0316
     25 H         -40.8587  -69.6721   11.3311 H         1 MOL     0.0620
     26 H         -39.0660  -69.1677   12.9608 H         1 MOL     0.0621
     27 H         -40.0256  -72.7594   15.1148 H         1 MOL     0.0621
     28 H         -41.7963  -73.2607   13.4794 H         1 MOL     0.0620
     29 H         -37.9968  -69.5132   14.8997 H         1 MOL     0.0406
     30 H         -39.6816  -71.1907   16.8942 H         1 MOL     0.0239
     31 H         -40.0839  -69.5283   16.3342 H         1 MOL     0.0239
     32 H         -38.5947  -69.8102   17.3124 H         1 MOL     0.0239
@<TRIPOS>BOND
     1    1    2 1 
     2    1   16 1 
     3    1   17 1 
     4    1   18 1 
     5    2    3 1 
     6    2    4 1 
     7    2   19 1 
     8    3   20 1 
     9    3   21 1 
    10    3   22 1 
    11    4    5 1 
    12    4   23 1 
    13    4   24 1 
    14    5    6 ar
    15    5   10 ar
    16    6    7 ar
    17    6   25 1 
    18    7    8 ar
    19    7   26 1 
    20    8    9 ar
    21    8   11 1 
    22    9   10 ar
    23    9   27 1 
    24   10   28 1 
    25   11   12 1 
    26   11   13 1 
    27   11   29 1 
    28   12   30 1 
    29   12   31 1 
    30   12   32 1 
    31   13   14 ar
    32   13   15 ar
@<TRIPOS>SUBSTRUCTURE
1 MOL         1
@<TRIPOS>MOLECULE
query molecule
   32    32     1     0     0
SMALL
NO_CHARGE

@<TRIPOS>ATOM
      1 C         -59.1851  -61.0061  -23.8127 C.3       1 MOL     0.0072
      2 C         -57.9981  -60.1853  -24.3848 C.3       1 MOL    -0.0128
      3 C         -56.6369  -60.7849  -23.9416 C.3       1 MOL     0.0072
      4 C         -58.1056  -60.0262  -25.9244 C.3       1 MOL     0.0379
      5 C         -57.8139  -58.6160  -26.3124 C.ar      1 MOL    -0.0471
      6 C         -58.8374  -57.6598  -26.2749 C.ar      1 MOL     0.0037
      7 C         -58.5774  -56.3338  -26.6317 C.ar      1 MOL     0.0044
      8 C         -57.2911  -55.9414  -27.0230 C.ar      1 MOL    -0.0391
      9 C         -56.2711  -56.9087  -27.0744 C.ar      1 MOL     0.0044
     10 C         -56.5313  -58.2369  -26.7212 C.ar      1 MOL     0.0037
     11 C         -56.9556  -54.5325  -27.3997 C.3       1 MOL     0.0614
     12 C         -57.5711  -54.1984  -28.7710 C.3       1 MOL     0.0185
     13 C         -57.4451  -53.5343  -26.3557 C.2       1 MOL     0.0489
     14 O         -56.5793  -53.1693  -25.5145 O.co2     1 MOL    -0.5492
     15 O         -58.6521  -53.1537  -26.3998 O.co2     1 MOL    -0.5492
     16 H         -59.1231  -61.0525  -22.7051 H         1 MOL     0.0232
     17 H         -59.1702  -62.0417  -24.2123 H         1 MOL     0.0232
     18 H         -60.1497  -60.5325  -24.0934 H         1 MOL     0.0232
     19 H         -58.0750  -59.1585  -23.9435 H         1 MOL     0.0299
     20 H         -56.5222  -61.8146  -24.3422 H         1 MOL     0.0232
     21 H         -56.5829  -60.8326  -22.8330 H         1 MOL     0.0232
     22 H         -55.7952  -60.1649  -24.3128 H         1 MOL     0.0232
     23 H         -59.1439  -60.2455  -26.2562 H         1 MOL     0.0316
     24 H         -57.4021  -60.6986  -26.4507 H         1 MOL     0.0316
     25 H         -59.8327  -57.9507  -25.9727 H         1 MOL     0.0620
     26 H         -59.3752  -55.6059  -26.6048 H         1 MOL     0.0621
     27 H         -55.2777  -56.6272  -27.3933 H         1 MOL     0.0621
     28 H         -55.7425  -58.9733  -26.7663 H         1 MOL     0.0620
     29 H         -55.8453  -54.4281  -27.4917 H         1 MOL     0.0406
     30 H         -58.6733  -54.3267  -28.7438 H         1 MOL     0.0239
     31 H         -57.1594  -54.8613  -29.5599 H         1 MOL     0.0239
     32 H         -57.3459  -53.1467  -29.0483 H         1 MOL     0.0239
@<TRIPOS>BOND
     1    1    2 1 
     2    1   16 1 
     3    1   17 1 
     4    1   18 1 
     5    2    3 1 
     6    2    4 1 
     7    2   19 1 
     8    3   20 1 
     9    3   21 1 
    10    3   22 1 
    11    4    5 1 
    12    4   23 1 
    13    4   24 1 
    14    5    6 ar
    15    5   10 ar
    16    6    7 ar
    17    6   25 1 
    18    7    8 ar
    19    7   26 1 
    20    8    9 ar
    21    8   11 1 
    22    9   10 ar
    23    9   27 1 
    24   10   28 1 
    25   11   12 1 
    26   11   13 1 
    27   11   29 1 
    28   12   30 1 
    29   12   31 1 
    30   12   32 1 
    31   13   14 ar
    32   13   15 ar
@<TRIPOS>SUBSTRUCTURE
1 MOL         1
@<TRIPOS>MOLECULE
query molecule
   32    32     1     0     0
SMALL
NO_CHARGE

@<TRIPOS>ATOM
      1 C         -15.7666  -79.1126    0.5614 C.3       1 MOL     0.0072
      2 C         -15.5899  -77.6103    0.9103 C.3       1 MOL    -0.0128
      3 C         -15.0472  -77.4400    2.3530 C.3       1 MOL     0.0072
      4 C         -14.7187  -76.8967   -0.1526 C.3       1 MOL     0.0379
      5 C         -15.2000  -75.5017   -0.3731 C.ar      1 MOL    -0.0471
      6 C         -14.4961  -74.4071    0.1394 C.ar      1 MOL     0.0037
      7 C         -14.9545  -73.1038   -0.0918 C.ar      1 MOL     0.0044
      8 C         -16.1236  -72.8866   -0.8382 C.ar      1 MOL    -0.0391
      9 C         -16.8218  -73.9931   -1.3444 C.ar      1 MOL     0.0044
     10 C         -16.3639  -75.2887   -1.1204 C.ar      1 MOL     0.0037
     11 C         -16.6060  -71.4874   -1.0887 C.3       1 MOL     0.0614
     12 C         -16.7250  -71.2681   -2.6094 C.3       1 MOL     0.0185
     13 C         -17.9743  -71.2906   -0.4223 C.2       1 MOL     0.0489
     14 O         -19.0176  -71.6476   -1.0405 O.co2     1 MOL    -0.5492
     15 O         -17.9122  -70.7919    0.7369 O.co2     1 MOL    -0.5492
     16 H         -16.4424  -79.6027    1.2936 H         1 MOL     0.0232
     17 H         -14.7859  -79.6329    0.5817 H         1 MOL     0.0232
     18 H         -16.2043  -79.2238   -0.4529 H         1 MOL     0.0232
     19 H         -16.6093  -77.1476    0.8692 H         1 MOL     0.0299
     20 H         -14.0406  -77.9018    2.4408 H         1 MOL     0.0232
     21 H         -15.7257  -77.9392    3.0769 H         1 MOL     0.0232
     22 H         -14.9695  -76.3667    2.6202 H         1 MOL     0.0232
     23 H         -14.7919  -77.4200   -1.1219 H         1 MOL     0.0316
     24 H         -13.6517  -76.8564    0.1653 H         1 MOL     0.0316
     25 H         -13.5962  -74.5728    0.7143 H         1 MOL     0.0620
     26 H         -14.4032  -72.2663    0.3105 H         1 MOL     0.0621
     27 H         -17.7234  -73.8325   -1.9193 H         1 MOL     0.0621
     28 H         -16.9091  -76.1275   -1.5281 H         1 MOL     0.0620
     29 H         -15.8838  -70.7498   -0.6657 H         1 MOL     0.0406
     30 H         -17.4354  -72.0160   -3.0265 H         1 MOL     0.0239
     31 H         -15.7398  -71.4098   -3.1013 H         1 MOL     0.0239
     32 H         -17.1029  -70.2525   -2.8413 H         1 MOL     0.0239
@<TRIPOS>BOND
     1    1    2 1 
     2    1   16 1 
     3    1   17 1 
     4    1   18 1 
     5    2    3 1 
     6    2    4 1 
     7    2   19 1 
     8    3   20 1 
     9    3   21 1 
    10    3   22 1 
    11    4    5 1 
    12    4   23 1 
    13    4   24 1 
    14    5    6 ar
    15    5   10 ar
    16    6    7 ar
    17    6   25 1 
    18    7    8 ar
    19    7   26 1 
    20    8    9 ar
    21    8   11 1 
    22    9   10 ar
    23    9   27 1 
    24   10   28 1 
    25   11   12 1 
    26   11   13 1 
    27   11   29 1 
    28   12   30 1 
    29   12   31 1 
    30   12   32 1 
    31   13   14 ar
    32   13   15 ar
@<TRIPOS>SUBSTRUCTURE
1 MOL         1
@<TRIPOS>MOLECULE
query molecule
   32    32     1     0     0
SMALL
NO_CHARGE

@<TRIPOS>ATOM
      1 C         -46.2939  -29.2846  -11.0766 C.3       1 MOL     0.0072
      2 C         -47.5159  -29.3056  -10.1188 C.3       1 MOL    -0.0128
      3 C         -47.2804  -28.3464   -8.9195 C.3       1 MOL     0.0072
      4 C         -48.8216  -29.0038  -10.8966 C.3       1 MOL     0.0379
      5 C         -50.0291  -29.4699  -10.1610 C.ar      1 MOL    -0.0471
      6 C         -50.5721  -28.7179   -9.1090 C.ar      1 MOL     0.0037
      7 C         -51.7074  -29.1798   -8.4388 C.ar      1 MOL     0.0044
      8 C         -52.3209  -30.3839   -8.8214 C.ar      1 MOL    -0.0391
      9 C         -51.7773  -31.1274   -9.8770 C.ar      1 MOL     0.0044
     10 C         -50.6370  -30.6736  -10.5438 C.ar      1 MOL     0.0037
     11 C         -53.5476  -30.8155   -8.0769 C.3       1 MOL     0.0614
     12 C         -54.7293  -30.8759   -9.0654 C.3       1 MOL     0.0185
     13 C         -53.3152  -32.1742   -7.4146 C.2       1 MOL     0.0489
     14 O         -52.5303  -32.1539   -6.4183 O.co2     1 MOL    -0.5492
     15 O         -53.9061  -33.1921   -7.8890 O.co2     1 MOL    -0.5492
     16 H         -45.3664  -29.5466  -10.5257 H         1 MOL     0.0232
     17 H         -46.1700  -28.2703  -11.5127 H         1 MOL     0.0232
     18 H         -46.4360  -30.0108  -11.9031 H         1 MOL     0.0232
     19 H         -47.5985  -30.3454   -9.7121 H         1 MOL     0.0299
     20 H         -47.1831  -27.2992   -9.2771 H         1 MOL     0.0232
     21 H         -46.3536  -28.6212   -8.3743 H         1 MOL     0.0232
     22 H         -48.1351  -28.3969   -8.2118 H         1 MOL     0.0232
     23 H         -48.8084  -29.5490  -11.8667 H         1 MOL     0.0316
     24 H         -48.9249  -27.9182  -11.0923 H         1 MOL     0.0316
     25 H         -50.1098  -27.7889   -8.8143 H         1 MOL     0.0620
     26 H         -52.1176  -28.6034   -7.6215 H         1 MOL     0.0621
     27 H         -52.2463  -32.0529  -10.1786 H         1 MOL     0.0621
     28 H         -50.2263  -31.2494  -11.3606 H         1 MOL     0.0620
     29 H         -53.7875  -30.0642   -7.2854 H         1 MOL     0.0406
     30 H         -54.5277  -31.6387   -9.8471 H         1 MOL     0.0239
     31 H         -54.8813  -29.8937   -9.5586 H         1 MOL     0.0239
     32 H         -55.6627  -31.1548   -8.5328 H         1 MOL     0.0239
@<TRIPOS>BOND
     1    1    2 1 
     2    1   16 1 
     3    1   17 1 
     4    1   18 1 
     5    2    3 1 
     6    2    4 1 
     7    2   19 1 
     8    3   20 1 
     9    3   21 1 
    10    3   22 1 
    11    4    5 1 
    12    4   23 1 
    13    4   24 1 
    14    5    6 ar
    15    5   10 ar
    16    6    7 ar
    17    6   25 1 
    18    7    8 ar
    19    7   26 1 
    20    8    9 ar
    21    8   11 1 
    22    9   10 ar
    23    9   27 1 
    24   10   28 1 
    25   11   12 1 
    26   11   13 1 
    27   11   29 1 
    28   12   30 1 
    29   12   31 1 
    30   12   32 1 
    31   13   14 ar
    32   13   15 ar
@<TRIPOS>SUBSTRUCTURE
1 MOL         1
@<TRIPOS>MOLECULE
query molecule
   32    32     1     0     0
SMALL
NO_CHARGE

@<TRIPOS>ATOM
      1 C         -28.9539  -33.2631   21.9288 C.3       1 MOL     0.0072
      2 C         -28.4867  -34.7037   22.2755 C.3       1 MOL    -0.0128
      3 C         -26.9476  -34.8352   22.1116 C.3       1 MOL     0.0072
      4 C         -28.9730  -35.1184   23.6890 C.3       1 MOL     0.0379
      5 C         -29.1086  -36.5954   23.8225 C.ar      1 MOL    -0.0471
      6 C         -27.9947  -37.4410   23.8345 C.ar      1 MOL     0.0037
      7 C         -28.1563  -38.8210   23.9801 C.ar      1 MOL     0.0044
      8 C         -29.4414  -39.3722   24.1193 C.ar      1 MOL    -0.0391
      9 C         -30.5555  -38.5212   24.0981 C.ar      1 MOL     0.0044
     10 C         -30.3929  -37.1421   23.9511 C.ar      1 MOL     0.0037
     11 C         -29.5550  -40.8485   24.3002 C.3       1 MOL     0.0614
     12 C         -30.3612  -41.1543   25.5755 C.3       1 MOL     0.0185
     13 C         -30.2241  -41.5367   23.1135 C.2       1 MOL     0.0489
     14 O         -31.3411  -41.1134   22.6824 O.co2     1 MOL    -0.5492
     15 O         -29.5640  -42.5196   22.6836 O.co2     1 MOL    -0.5492
     16 H         -28.6615  -33.0005   20.8908 H         1 MOL     0.0232
     17 H         -28.4894  -32.5305   22.6228 H         1 MOL     0.0232
     18 H         -30.0575  -33.1840   22.0202 H         1 MOL     0.0232
     19 H         -28.9723  -35.3907   21.5370 H         1 MOL     0.0299
     20 H         -26.4288  -34.1532   22.8193 H         1 MOL     0.0232
     21 H         -26.6372  -34.5827   21.0779 H         1 MOL     0.0232
     22 H         -26.6307  -35.8754   22.3394 H         1 MOL     0.0232
     23 H         -29.9860  -34.6920   23.8695 H         1 MOL     0.0316
     24 H         -28.2787  -34.7554   24.4722 H         1 MOL     0.0316
     25 H         -27.0037  -37.0241   23.7248 H         1 MOL     0.0620
     26 H         -27.2885  -39.4656   23.9843 H         1 MOL     0.0621
     27 H         -31.5493  -38.9340   24.1959 H         1 MOL     0.0621
     28 H         -31.2571  -36.4938   23.9297 H         1 MOL     0.0620
     29 H         -28.5318  -41.2869   24.4222 H         1 MOL     0.0406
     30 H         -31.3910  -40.7510   25.4809 H         1 MOL     0.0239
     31 H         -29.8817  -40.6876   26.4626 H         1 MOL     0.0239
     32 H         -30.4217  -42.2499   25.7453 H         1 MOL     0.0239
@<TRIPOS>BOND
     1    1    2 1 
     2    1   16 1 
     3    1   17 1 
     4    1   18 1 
     5    2    3 1 
     6    2    4 1 
     7    2   19 1 
     8    3   20 1 
     9    3   21 1 
    10    3   22 1 
    11    4    5 1 
    12    4   23 1 
    13    4   24 1 
    14    5    6 ar
    15    5   10 ar
    16    6    7 ar
    17    6   25 1 
    18    7    8 ar
    19    7   26 1 
    20    8    9 ar
    21    8   11 1 
    22    9   10 ar
    23    9   27 1 
    24   10   28 1 
    25   11   12 1 
    26   11   13 1 
    27   11   29 1 
    28   12   30 1 
    29   12   31 1 
    30   12   32 1 
    31   13   14 ar
    32   13   15 ar
@<TRIPOS>SUBSTRUCTURE
1 MOL         1
@<TRIPOS>MOLECULE
query molecule
   32    32     1     0     0
SMALL
NO_CHARGE

@<TRIPOS>ATOM
      1 C           0.6726  -57.1205    5.3932 C.3       1 MOL     0.0072
      2 C           0.6651  -57.9490    4.0753 C.3       1 MOL    -0.0128
      3 C          -0.0863  -59.2895    4.2986 C.3       1 MOL     0.0072
      4 C           0.1159  -57.0880    2.9183 C.3       1 MOL     0.0379
      5 C           0.1235  -57.7425    1.5839 C.ar      1 MOL    -0.0471
      6 C          -0.9846  -57.5188    0.7652 C.ar      1 MOL     0.0037
      7 C          -1.0941  -58.1254   -0.4793 C.ar      1 MOL     0.0044
      8 C          -0.0830  -58.9485   -0.9583 C.ar      1 MOL    -0.0391
      9 C           1.0658  -59.1386   -0.1561 C.ar      1 MOL     0.0044
     10 C           1.1680  -58.5425    1.1104 C.ar      1 MOL     0.0037
     11 C          -0.1778  -59.6635   -2.2633 C.3       1 MOL     0.0614
     12 C          -0.6075  -61.0898   -1.8894 C.3       1 MOL     0.0185
     13 C          -1.1768  -59.0845   -3.2886 C.2       1 MOL     0.0489
     14 O          -2.4215  -59.1341   -3.0396 O.co2     1 MOL    -0.5492
     15 O          -0.6089  -58.5858   -4.3034 O.co2     1 MOL    -0.5492
     16 H           1.1567  -57.6920    6.2126 H         1 MOL     0.0232
     17 H          -0.3678  -56.8782    5.7020 H         1 MOL     0.0232
     18 H           1.2258  -56.1678    5.2514 H         1 MOL     0.0232
     19 H           1.7312  -58.1971    3.8326 H         1 MOL     0.0299
     20 H          -1.1463  -59.1045    4.5696 H         1 MOL     0.0232
     21 H           0.3922  -59.8572    5.1266 H         1 MOL     0.0232
     22 H          -0.0539  -59.9111    3.3807 H         1 MOL     0.0232
     23 H           0.7105  -56.1502    2.8368 H         1 MOL     0.0316
     24 H          -0.9426  -56.8275    3.1336 H         1 MOL     0.0316
     25 H          -1.7770  -56.8794    1.1265 H         1 MOL     0.0620
     26 H          -1.9846  -57.9658   -1.0616 H         1 MOL     0.0621
     27 H           1.8761  -59.7528   -0.5256 H         1 MOL     0.0621
     28 H           2.0572  -58.6932    1.7087 H         1 MOL     0.0620
     29 H           0.8389  -59.7085   -2.7277 H         1 MOL     0.0406
     30 H          -1.6438  -61.0827   -1.4773 H         1 MOL     0.0239
     31 H           0.0600  -61.5092   -1.1045 H         1 MOL     0.0239
     32 H          -0.5871  -61.7712   -2.7656 H         1 MOL     0.0239
@<TRIPOS>BOND
     1    1    2 1 
     2    1   16 1 
     3    1   17 1 
     4    1   18 1 
     5    2    3 1 
     6    2    4 1 
     7    2   19 1 
     8    3   20 1 
     9    3   21 1 
    10    3   22 1 
    11    4    5 1 
    12    4   23 1 
    13    4   24 1 
    14    5    6 ar
    15    5   10 ar
    16    6    7 ar
    17    6   25 1 
    18    7    8 ar
    19    7   26 1 
    20    8    9 ar
    21    8   11 1 
    22    9   10 ar
    23    9   27 1 
    24   10   28 1 
    25   11   12 1 
    26   11   13 1 
    27   11   29 1 
    28   12   30 1 
    29   12   31 1 
    30   12   32 1 
    31   13   14 ar
    32   13   15 ar
@<TRIPOS>SUBSTRUCTURE
1 MOL         1
@<TRIPOS>MOLECULE
query molecule
   32    32     1     0     0
SMALL
NO_CHARGE

@<TRIPOS>ATOM
      1 C         -62.8286  -49.9367   26.2296 C.3       1 MOL     0.0072
      2 C         -62.2630  -51.1157   25.3933 C.3       1 MOL    -0.0128
      3 C         -60.7918  -50.8240   24.9856 C.3       1 MOL     0.0072
      4 C         -62.4382  -52.4731   26.1286 C.3       1 MOL     0.0379
      5 C         -62.3720  -53.6096   25.1641 C.ar      1 MOL    -0.0471
      6 C         -61.1258  -54.1170   24.7752 C.ar      1 MOL     0.0037
      7 C         -61.0486  -55.1531   23.8491 C.ar      1 MOL     0.0044
      8 C         -62.2108  -55.7100   23.3016 C.ar      1 MOL    -0.0391
      9 C         -63.4626  -55.2092   23.7081 C.ar      1 MOL     0.0044
     10 C         -63.5488  -54.1674   24.6431 C.ar      1 MOL     0.0037
     11 C         -62.1495  -56.8156   22.2903 C.3       1 MOL     0.0614
     12 C         -61.6062  -56.2356   20.9679 C.3       1 MOL     0.0185
     13 C         -61.2769  -57.9795   22.7682 C.2       1 MOL     0.0489
     14 O         -61.8994  -58.9384   23.3133 O.co2     1 MOL    -0.5492
     15 O         -60.0316  -57.9241   22.5575 O.co2     1 MOL    -0.5492
     16 H         -62.7355  -48.9871   25.6608 H         1 MOL     0.0232
     17 H         -62.2670  -49.8341   27.1819 H         1 MOL     0.0232
     18 H         -63.9000  -50.1036   26.4659 H         1 MOL     0.0232
     19 H         -62.8746  -51.1678   24.4563 H         1 MOL     0.0299
     20 H         -60.1441  -50.7865   25.8870 H         1 MOL     0.0232
     21 H         -60.7213  -49.8511   24.4565 H         1 MOL     0.0232
     22 H         -60.4148  -51.6234   24.3135 H         1 MOL     0.0232
     23 H         -63.4369  -52.5192   26.6141 H         1 MOL     0.0316
     24 H         -61.6505  -52.6141   26.8949 H         1 MOL     0.0316
     25 H         -60.2200  -53.6991   25.1904 H         1 MOL     0.0620
     26 H         -60.0816  -55.5298   23.5455 H         1 MOL     0.0621
     27 H         -64.3691  -55.6250   23.2902 H         1 MOL     0.0621
     28 H         -64.5132  -53.7855   24.9514 H         1 MOL     0.0620
     29 H         -63.1792  -57.2039   22.0951 H         1 MOL     0.0406
     30 H         -60.5928  -55.8058   21.1150 H         1 MOL     0.0239
     31 H         -62.2765  -55.4266   20.6053 H         1 MOL     0.0239
     32 H         -61.5479  -57.0222   20.1876 H         1 MOL     0.0239
@<TRIPOS>BOND
     1    1    2 1 
     2    1   16 1 
     3    1   17 1 
     4    1   18 1 
     5    2    3 1 
     6    2    4 1 
     7    2   19 1 
     8    3   20 1 
     9    3   21 1 
    10    3   22 1 
    11    4    5 1 
    12    4   23 1 
    13    4   24 1 
    14    5    6 ar
    15    5   10 ar
    16    6    7 ar
    17    6   25 1 
    18    7    8 ar
    19    7   26 1 
    20    8    9 ar
    21    8   11 1 
    22    9   10 ar
    23    9   27 1 
    24   10   28 1 
    25   11   12 1 
    26   11   13 1 
    27   11   29 1 
    28   12   30 1 
    29   12   31 1 
    30   12   32 1 
    31   13   14 ar
    32   13   15 ar
@<TRIPOS>SUBSTRUCTURE
1 MOL         1
@<TRIPOS>MOLECULE
query molecule
   32    32     1     0     0
SMALL
NO_CHARGE

@<TRIPOS>ATOM
      1 C         -46.7059  -29.1142  -16.2707 C.3       1 MOL     0.0072
      2 C         -45.5895  -29.9554  -15.6083 C.3       1 MOL    -0.0128
      3 C         -45.8348  -31.4820  -15.7505 C.3       1 MOL     0.0072
      4 C         -44.1835  -29.5387  -16.1264 C.3       1 MOL     0.0379
      5 C         -43.1603  -30.3010  -15.3595 C.ar      1 MOL    -0.0471
      6 C         -42.9183  -29.9740  -14.0226 C.ar      1 MOL     0.0037
      7 C         -42.0253  -30.7388  -13.2813 C.ar      1 MOL     0.0044
      8 C         -41.3498  -31.8173  -13.8700 C.ar      1 MOL    -0.0391
      9 C         -41.5818  -32.1234  -15.2221 C.ar      1 MOL     0.0044
     10 C         -42.4798  -31.3616  -15.9670 C.ar      1 MOL     0.0037
     11 C         -40.3595  -32.6591  -13.1158 C.3       1 MOL     0.0614
     12 C         -39.6794  -31.7737  -12.0654 C.3       1 MOL     0.0185
     13 C         -41.0411  -33.8785  -12.4908 C.2       1 MOL     0.0489
     14 O         -40.6196  -34.2847  -11.3658 O.co2     1 MOL    -0.5492
     15 O         -41.9542  -34.4175  -13.1866 O.co2     1 MOL    -0.5492
     16 H         -47.6972  -29.3813  -15.8510 H         1 MOL     0.0232
     17 H         -46.7222  -29.2913  -17.3659 H         1 MOL     0.0232
     18 H         -46.5268  -28.0305  -16.0931 H         1 MOL     0.0232
     19 H         -45.6156  -29.7184  -14.5121 H         1 MOL     0.0299
     20 H         -45.7907  -31.7900  -16.8071 H         1 MOL     0.0232
     21 H         -46.8315  -31.7514  -15.3343 H         1 MOL     0.0232
     22 H         -45.0603  -32.0452  -15.1789 H         1 MOL     0.0232
     23 H         -44.0043  -28.4585  -15.9557 H         1 MOL     0.0316
     24 H         -44.0606  -29.7758  -17.1996 H         1 MOL     0.0316
     25 H         -43.4307  -29.1423  -13.5630 H         1 MOL     0.0620
     26 H         -41.8468  -30.4986  -12.2428 H         1 MOL     0.0621
     27 H         -41.0636  -32.9529  -15.6809 H         1 MOL     0.0621
     28 H         -42.6590  -31.5969  -17.0047 H         1 MOL     0.0620
     29 H         -39.5807  -33.0055  -13.8300 H         1 MOL     0.0406
     30 H         -40.4085  -31.3521  -11.3481 H         1 MOL     0.0239
     31 H         -39.1567  -30.9317  -12.5746 H         1 MOL     0.0239
     32 H         -38.9197  -32.3620  -11.5098 H         1 MOL     0.0239
@<TRIPOS>BOND
     1    1    2 1 
     2    1   16 1 
     3    1   17 1 
     4    1   18 1 
     5    2    3 1 
     6    2    4 1 
     7    2   19 1 
     8    3   20 1 
     9    3   21 1 
    10    3   22 1 
    11    4    5 1 
    12    4   23 1 
    13    4   24 1 
    14    5    6 ar
    15    5   10 ar
    16    6    7 ar
    17    6   25 1 
    18    7    8 ar
    19    7   26 1 
    20    8    9 ar
    21    8   11 1 
    22    9   10 ar
    23    9   27 1 
    24   10   28 1 
    25   11   12 1 
    26   11   13 1 
    27   11   29 1 
    28   12   30 1 
    29   12   31 1 
    30   12   32 1 
    31   13   14 ar
    32   13   15 ar
@<TRIPOS>SUBSTRUCTURE
1 MOL         1
@<TRIPOS>MOLECULE
query molecule
   32    32     1     0     0
SMALL
NO_CHARGE

@<TRIPOS>ATOM
      1 C         -32.0210  -74.4274   29.6667 C.3       1 MOL     0.0072
      2 C         -31.3860  -74.6756   28.2725 C.3       1 MOL    -0.0128
      3 C         -30.4261  -75.8926   28.3051 C.3       1 MOL     0.0072
      4 C         -32.4469  -74.8132   27.1482 C.3       1 MOL     0.0379
      5 C         -32.9180  -73.4578   26.7460 C.ar      1 MOL    -0.0471
      6 C         -32.1325  -72.6817   25.8854 C.ar      1 MOL     0.0037
      7 C         -32.5544  -71.4038   25.5225 C.ar      1 MOL     0.0044
      8 C         -33.7691  -70.8885   25.9951 C.ar      1 MOL    -0.0391
      9 C         -34.5560  -71.6772   26.8508 C.ar      1 MOL     0.0044
     10 C         -34.1340  -72.9573   27.2225 C.ar      1 MOL     0.0037
     11 C         -34.2658  -69.5248   25.6339 C.3       1 MOL     0.0614
     12 C         -33.2783  -68.4749   26.1798 C.3       1 MOL     0.0185
     13 C         -34.4297  -69.3499   24.1221 C.2       1 MOL     0.0489
     14 O         -35.5790  -68.9654   23.7451 O.co2     1 MOL    -0.5492
     15 O         -33.4287  -69.5906   23.3926 O.co2     1 MOL    -0.5492
     16 H         -31.2286  -74.2807   30.4300 H         1 MOL     0.0232
     17 H         -32.6420  -75.2987   29.9640 H         1 MOL     0.0232
     18 H         -32.6654  -73.5237   29.6449 H         1 MOL     0.0232
     19 H         -30.7610  -73.7797   28.0216 H         1 MOL     0.0299
     20 H         -30.9868  -76.8195   28.5446 H         1 MOL     0.0232
     21 H         -29.6445  -75.7403   29.0791 H         1 MOL     0.0232
     22 H         -29.9311  -76.0199   27.3195 H         1 MOL     0.0232
     23 H         -33.3155  -75.4128   27.4782 H         1 MOL     0.0316
     24 H         -31.9929  -75.2783   26.2470 H         1 MOL     0.0316
     25 H         -31.1999  -73.0716   25.5045 H         1 MOL     0.0620
     26 H         -31.9388  -70.8049   24.8673 H         1 MOL     0.0621
     27 H         -35.4928  -71.2908   27.2270 H         1 MOL     0.0621
     28 H         -34.7453  -73.5584   27.8794 H         1 MOL     0.0620
     29 H         -35.2581  -69.3458   26.1178 H         1 MOL     0.0406
     30 H         -32.2629  -68.6330   25.7624 H         1 MOL     0.0239
     31 H         -33.2162  -68.5531   27.2870 H         1 MOL     0.0239
     32 H         -33.6157  -67.4491   25.9234 H         1 MOL     0.0239
@<TRIPOS>BOND
     1    1    2 1 
     2    1   16 1 
     3    1   17 1 
     4    1   18 1 
     5    2    3 1 
     6    2    4 1 
     7    2   19 1 
     8    3   20 1 
     9    3   21 1 
    10    3   22 1 
    11    4    5 1 
    12    4   23 1 
    13    4   24 1 
    14    5    6 ar
    15    5   10 ar
    16    6    7 ar
    17    6   25 1 
    18    7    8 ar
    19    7   26 1 
    20    8    9 ar
    21    8   11 1 
    22    9   10 ar
    23    9   27 1 
    24   10   28 1 
    25   11   12 1 
    26   11   13 1 
    27   11   29 1 
    28   12   30 1 
    29   12   31 1 
    30   12   32 1 
    31   13   14 ar
    32   13   15 ar
@<TRIPOS>SUBSTRUCTURE
1 MOL         1
@<TRIPOS>MOLECULE
query molecule
   32    32     1     0     0
SMALL
NO_CHARGE

@<TRIPOS>ATOM
      1 C          -4.6308  -42.5613    6.5272 C.3       1 MOL     0.0072
      2 C          -5.0693  -41.7298    5.2935 C.3       1 MOL    -0.0128
      3 C          -5.4844  -42.6493    4.1139 C.3       1 MOL     0.0072
      4 C          -6.1951  -40.7268    5.6329 C.3       1 MOL     0.0379
      5 C          -5.6543  -39.4243    6.1063 C.ar      1 MOL    -0.0471
      6 C          -5.2627  -38.4574    5.1737 C.ar      1 MOL     0.0037
      7 C          -4.7417  -37.2347    5.6041 C.ar      1 MOL     0.0044
      8 C          -4.6186  -36.9524    6.9693 C.ar      1 MOL    -0.0391
      9 C          -5.0406  -37.9160    7.9021 C.ar      1 MOL     0.0044
     10 C          -5.5474  -39.1445    7.4708 C.ar      1 MOL     0.0037
     11 C          -4.0342  -35.6785    7.4898 C.3       1 MOL     0.0614
     12 C          -2.5063  -35.7238    7.2537 C.3       1 MOL     0.0185
     13 C          -4.6169  -34.4285    6.8303 C.2       1 MOL     0.0489
     14 O          -4.2137  -34.1283    5.6700 O.co2     1 MOL    -0.5492
     15 O          -5.4500  -33.7929    7.5369 O.co2     1 MOL    -0.5492
     16 H          -3.7950  -43.2413    6.2584 H         1 MOL     0.0232
     17 H          -5.4791  -43.1767    6.8966 H         1 MOL     0.0232
     18 H          -4.2947  -41.8948    7.3487 H         1 MOL     0.0232
     19 H          -4.1858  -41.1362    4.9485 H         1 MOL     0.0299
     20 H          -6.3734  -43.2548    4.3870 H         1 MOL     0.0232
     21 H          -4.6525  -43.3377    3.8545 H         1 MOL     0.0232
     22 H          -5.7310  -42.0401    3.2193 H         1 MOL     0.0232
     23 H          -6.8745  -41.1355    6.4054 H         1 MOL     0.0316
     24 H          -6.7838  -40.5080    4.7149 H         1 MOL     0.0316
     25 H          -5.3580  -38.6613    4.1170 H         1 MOL     0.0620
     26 H          -4.4303  -36.4991    4.8747 H         1 MOL     0.0621
     27 H          -4.9637  -37.7108    8.9606 H         1 MOL     0.0621
     28 H          -5.8552  -39.8834    8.1968 H         1 MOL     0.0620
     29 H          -4.2034  -35.6175    8.5932 H         1 MOL     0.0406
     30 H          -2.2926  -35.8288    6.1681 H         1 MOL     0.0239
     31 H          -2.0459  -36.5833    7.7864 H         1 MOL     0.0239
     32 H          -2.0323  -34.7877    7.6174 H         1 MOL     0.0239
@<TRIPOS>BOND
     1    1    2 1 
     2    1   16 1 
     3    1   17 1 
     4    1   18 1 
     5    2    3 1 
     6    2    4 1 
     7    2   19 1 
     8    3   20 1 
     9    3   21 1 
    10    3   22 1 
    11    4    5 1 
    12    4   23 1 
    13    4   24 1 
    14    5    6 ar
    15    5   10 ar
    16    6    7 ar
    17    6   25 1 
    18    7    8 ar
    19    7   26 1 
    20    8    9 ar
    21    8   11 1 
    22    9   10 ar
    23    9   27 1 
    24   10   28 1 
    25   11   12 1 
    26   11   13 1 
    27   11   29 1 
    28   12   30 1 
    29   12   31 1 
    30   12   32 1 
    31   13   14 ar
    32   13   15 ar
@<TRIPOS>SUBSTRUCTURE
1 MOL         1
@<TRIPOS>MOLECULE
query molecule
   32    32     1     0     0
SMALL
NO_CHARGE

@<TRIPOS>ATOM
      1 C         -64.0506  -34.3340  -27.5558 C.3       1 MOL     0.0072
      2 C         -63.7380  -35.5035  -26.5804 C.3       1 MOL    -0.0128
      3 C         -62.2161  -35.6061  -26.2960 C.3       1 MOL     0.0072
      4 C         -64.5826  -35.3924  -25.2840 C.3       1 MOL     0.0379
      5 C         -64.8774  -36.7326  -24.7011 C.ar      1 MOL    -0.0471
      6 C         -65.5205  -37.7131  -25.4648 C.ar      1 MOL     0.0037
      7 C         -65.7954  -38.9651  -24.9166 C.ar      1 MOL     0.0044
      8 C         -65.4236  -39.2726  -23.6007 C.ar      1 MOL    -0.0391
      9 C         -64.8086  -38.2729  -22.8261 C.ar      1 MOL     0.0044
     10 C         -64.5368  -37.0115  -23.3726 C.ar      1 MOL     0.0037
     11 C         -65.6654  -40.6158  -22.9878 C.3       1 MOL     0.0614
     12 C         -67.1765  -40.7697  -22.7328 C.3       1 MOL     0.0185
     13 C         -65.2088  -41.7815  -23.8638 C.2       1 MOL     0.0489
     14 O         -64.3989  -42.5720  -23.2911 O.co2     1 MOL    -0.5492
     15 O         -65.6637  -41.8883  -25.0367 O.co2     1 MOL    -0.5492
     16 H         -63.5134  -34.4748  -28.5176 H         1 MOL     0.0232
     17 H         -63.7378  -33.3651  -27.1135 H         1 MOL     0.0232
     18 H         -65.1408  -34.2907  -27.7662 H         1 MOL     0.0232
     19 H         -64.0504  -36.4431  -27.1019 H         1 MOL     0.0299
     20 H         -61.8587  -34.6837  -25.7900 H         1 MOL     0.0232
     21 H         -61.6539  -35.7263  -27.2469 H         1 MOL     0.0232
     22 H         -62.0013  -36.4764  -25.6440 H         1 MOL     0.0232
     23 H         -65.5644  -34.9246  -25.5218 H         1 MOL     0.0316
     24 H         -64.0627  -34.7780  -24.5241 H         1 MOL     0.0316
     25 H         -65.8000  -37.5005  -26.4858 H         1 MOL     0.0620
     26 H         -66.2927  -39.7125  -25.5209 H         1 MOL     0.0621
     27 H         -64.5435  -38.4738  -21.7976 H         1 MOL     0.0621
     28 H         -64.0601  -36.2506  -22.7711 H         1 MOL     0.0620
     29 H         -65.1410  -40.6872  -22.0053 H         1 MOL     0.0406
     30 H         -67.7379  -40.6455  -23.6822 H         1 MOL     0.0239
     31 H         -67.5229  -40.0005  -22.0113 H         1 MOL     0.0239
     32 H         -67.3980  -41.7739  -22.3150 H         1 MOL     0.0239
@<TRIPOS>BOND
     1    1    2 1 
     2    1   16 1 
     3    1   17 1 
     4    1   18 1 
     5    2    3 1 
     6    2    4 1 
     7    2   19 1 
     8    3   20 1 
     9    3   21 1 
    10    3   22 1 
    11    4    5 1 
    12    4   23 1 
    13    4   24 1 
    14    5    6 ar
    15    5   10 ar
    16    6    7 ar
    17    6   25 1 
    18    7    8 ar
    19    7   26 1 
    20    8    9 ar
    21    8   11 1 
    22    9   10 ar
    23    9   27 1 
    24   10   28 1 
    25   11   12 1 
    26   11   13 1 
    27   11   29 1 
    28   12   30 1 
    29   12   31 1 
    30   12   32 1 
    31   13   14 ar
    32   13   15 ar
@<TRIPOS>SUBSTRUCTURE
1 MOL         1
@<TRIPOS>MOLECULE
query molecule
   32    32     1     0     0
SMALL
NO_CHARGE

@<TRIPOS>ATOM
      1 C         -51.6422  -25.3143   17.4407 C.3       1 MOL     0.0072
      2 C         -51.3276  -26.5432   16.5447 C.3       1 MOL    -0.0128
      3 C         -52.1895  -26.5202   15.2539 C.3       1 MOL     0.0072
      4 C         -49.8097  -26.6560   16.2478 C.3       1 MOL     0.0379
      5 C         -49.4269  -28.0728   15.9873 C.ar      1 MOL    -0.0471
      6 C         -49.0641  -28.8911   17.0635 C.ar      1 MOL     0.0037
      7 C         -48.6888  -30.2144   16.8389 C.ar      1 MOL     0.0044
      8 C         -48.6643  -30.7387   15.5362 C.ar      1 MOL    -0.0391
      9 C         -49.0352  -29.9203   14.4648 C.ar      1 MOL     0.0044
     10 C         -49.4120  -28.5916   14.6879 C.ar      1 MOL     0.0037
     11 C         -48.2179  -32.1506   15.3681 C.3       1 MOL     0.0614
     12 C         -49.0684  -32.9235   14.3558 C.3       1 MOL     0.0185
     13 C         -46.7476  -32.1485   14.9858 C.2       1 MOL     0.0489
     14 O         -45.9563  -32.5309   15.8990 O.co2     1 MOL    -0.5492
     15 O         -46.4423  -31.8134   13.8106 O.co2     1 MOL    -0.5492
     16 H         -52.7257  -25.2839   17.6835 H         1 MOL     0.0232
     17 H         -51.3708  -24.3726   16.9196 H         1 MOL     0.0232
     18 H         -51.0701  -25.3716   18.3906 H         1 MOL     0.0232
     19 H         -51.6176  -27.4519   17.1321 H         1 MOL     0.0299
     20 H         -51.9476  -25.6215   14.6476 H         1 MOL     0.0232
     21 H         -53.2692  -26.4916   15.5114 H         1 MOL     0.0232
     22 H         -51.9935  -27.4242   14.6411 H         1 MOL     0.0232
     23 H         -49.2303  -26.3287   17.1394 H         1 MOL     0.0316
     24 H         -49.5205  -26.0375   15.3773 H         1 MOL     0.0316
     25 H         -49.0714  -28.4953   18.0680 H         1 MOL     0.0620
     26 H         -48.4074  -30.8410   17.6736 H         1 MOL     0.0621
     27 H         -49.0295  -30.3166   13.4590 H         1 MOL     0.0621
     28 H         -49.6924  -27.9649   13.8535 H         1 MOL     0.0620
     29 H         -48.2879  -32.6699   16.3580 H         1 MOL     0.0406
     30 H         -49.0112  -32.4474   13.3566 H         1 MOL     0.0239
     31 H         -50.1296  -32.9279   14.6876 H         1 MOL     0.0239
     32 H         -48.7209  -33.9745   14.2772 H         1 MOL     0.0239
@<TRIPOS>BOND
     1    1    2 1 
     2    1   16 1 
     3    1   17 1 
     4    1   18 1 
     5    2    3 1 
     6    2    4 1 
     7    2   19 1 
     8    3   20 1 
     9    3   21 1 
    10    3   22 1 
    11    4    5 1 
    12    4   23 1 
    13    4   24 1 
    14    5    6 ar
    15    5   10 ar
    16    6    7 ar
    17    6   25 1 
    18    7    8 ar
    19    7   26 1 
    20    8    9 ar
    21    8   11 1 
    22    9   10 ar
    23    9   27 1 
    24   10   28 1 
    25   11   12 1 
    26   11   13 1 
    27   11   29 1 
    28   12   30 1 
    29   12   31 1 
    30   12   32 1 
    31   13   14 ar
    32   13   15 ar
@<TRIPOS>SUBSTRUCTURE
1 MOL         1
@<TRIPOS>MOLECULE
query molecule
   32    32     1     0     0
SMALL
NO_CHARGE

@<TRIPOS>ATOM
      1 C          -4.4207  -79.5021   -8.1969 C.3       1 MOL     0.0072
      2 C          -4.2914  -77.9552   -8.1536 C.3       1 MOL    -0.0128
      3 C          -2.9930  -77.4844   -8.8619 C.3       1 MOL     0.0072
      4 C          -5.5589  -77.2667   -8.7241 C.3       1 MOL     0.0379
      5 C          -5.8766  -76.0317   -7.9534 C.ar      1 MOL    -0.0471
      6 C          -5.0262  -74.9229   -8.0510 C.ar      1 MOL     0.0037
      7 C          -5.3120  -73.7597   -7.3361 C.ar      1 MOL     0.0044
      8 C          -6.4479  -73.6839   -6.5146 C.ar      1 MOL    -0.0391
      9 C          -7.2877  -74.7997   -6.4130 C.ar      1 MOL     0.0044
     10 C          -7.0047  -75.9673   -7.1284 C.ar      1 MOL     0.0037
     11 C          -6.7087  -72.4035   -5.7927 C.3       1 MOL     0.0614
     12 C          -8.0647  -71.8164   -6.2224 C.3       1 MOL     0.0185
     13 C          -6.6863  -72.6236   -4.2899 C.2       1 MOL     0.0489
     14 O          -5.5802  -72.3316   -3.7604 O.co2     1 MOL    -0.5492
     15 O          -7.7360  -73.0215   -3.7118 O.co2     1 MOL    -0.5492
     16 H          -3.5271  -79.9774   -7.7398 H         1 MOL     0.0232
     17 H          -4.5120  -79.8560   -9.2450 H         1 MOL     0.0232
     18 H          -5.3201  -79.8288   -7.6332 H         1 MOL     0.0232
     19 H          -4.2134  -77.6697   -7.0733 H         1 MOL     0.0299
     20 H          -3.0210  -77.7630   -9.9370 H         1 MOL     0.0232
     21 H          -2.1045  -77.9632   -8.3987 H         1 MOL     0.0232
     22 H          -2.8834  -76.3830   -8.7848 H         1 MOL     0.0232
     23 H          -6.4341  -77.9442   -8.6179 H         1 MOL     0.0316
     24 H          -5.4260  -77.0002   -9.7896 H         1 MOL     0.0316
     25 H          -4.1490  -74.9673   -8.6804 H         1 MOL     0.0620
     26 H          -4.6513  -72.9074   -7.4148 H         1 MOL     0.0621
     27 H          -8.1615  -74.7576   -5.7782 H         1 MOL     0.0621
     28 H          -7.6596  -76.8223   -7.0457 H         1 MOL     0.0620
     29 H          -5.9113  -71.6609   -6.0509 H         1 MOL     0.0406
     30 H          -8.8812  -72.5369   -5.9970 H         1 MOL     0.0239
     31 H          -8.0721  -71.6042   -7.3128 H         1 MOL     0.0239
     32 H          -8.2719  -70.8714   -5.6757 H         1 MOL     0.0239
@<TRIPOS>BOND
     1    1    2 1 
     2    1   16 1 
     3    1   17 1 
     4    1   18 1 
     5    2    3 1 
     6    2    4 1 
     7    2   19 1 
     8    3   20 1 
     9    3   21 1 
    10    3   22 1 
    11    4    5 1 
    12    4   23 1 
    13    4   24 1 
    14    5    6 ar
    15    5   10 ar
    16    6    7 ar
    17    6   25 1 
    18    7    8 ar
    19    7   26 1 
    20    8    9 ar
    21    8   11 1 
    22    9   10 ar
    23    9   27 1 
    24   10   28 1 
    25   11   12 1 
    26   11   13 1 
    27   11   29 1 
    28   12   30 1 
    29   12   31 1 
    30   12   32 1 
    31   13   14 ar
    32   13   15 ar
@<TRIPOS>SUBSTRUCTURE
1 MOL         1
@<TRIPOS>MOLECULE
query molecule
   32    32     1     0     0
SMALL
NO_CHARGE

@<TRIPOS>ATOM
      1 C         -64.8203  -43.3018  -29.5203 C.3       1 MOL     0.0072
      2 C         -65.0231  -41.8973  -28.8953 C.3       1 MOL    -0.0128
      3 C         -64.6144  -40.7640  -29.8714 C.3       1 MOL     0.0072
      4 C         -66.4731  -41.7068  -28.3801 C.3       1 MOL     0.0379
      5 C         -66.4515  -41.2892  -26.9506 C.ar      1 MOL    -0.0471
      6 C         -66.5786  -42.2603  -25.9515 C.ar      1 MOL     0.0037
      7 C         -66.5390  -41.8932  -24.6055 C.ar      1 MOL     0.0044
      8 C         -66.3952  -40.5486  -24.2350 C.ar      1 MOL    -0.0391
      9 C         -66.2859  -39.5743  -25.2451 C.ar      1 MOL     0.0044
     10 C         -66.3125  -39.9434  -26.5953 C.ar      1 MOL     0.0037
     11 C         -66.3503  -40.1158  -22.7961 C.3       1 MOL     0.0614
     12 C         -67.3539  -40.9237  -21.9499 C.3       1 MOL     0.0185
     13 C         -64.9177  -40.2693  -22.2784 C.2       1 MOL     0.0489
     14 O         -64.0834  -39.5094  -22.8397 O.co2     1 MOL    -0.5492
     15 O         -64.6897  -41.0985  -21.3448 O.co2     1 MOL    -0.5492
     16 H         -63.7713  -43.4265  -29.8615 H         1 MOL     0.0232
     17 H         -65.4943  -43.4356  -30.3927 H         1 MOL     0.0232
     18 H         -65.0466  -44.0927  -28.7746 H         1 MOL     0.0232
     19 H         -64.3422  -41.8331  -28.0083 H         1 MOL     0.0299
     20 H         -65.2729  -40.7708  -30.7656 H         1 MOL     0.0232
     21 H         -63.5639  -40.8977  -30.2039 H         1 MOL     0.0232
     22 H         -64.7057  -39.7761  -29.3729 H         1 MOL     0.0232
     23 H         -67.0327  -42.6635  -28.4411 H         1 MOL     0.0316
     24 H         -67.0031  -40.9299  -28.9647 H         1 MOL     0.0316
     25 H         -66.7070  -43.2975  -26.2234 H         1 MOL     0.0620
     26 H         -66.6256  -42.6502  -23.8395 H         1 MOL     0.0621
     27 H         -66.1788  -38.5311  -24.9818 H         1 MOL     0.0621
     28 H         -66.2229  -39.1908  -27.3649 H         1 MOL     0.0620
     29 H         -66.6198  -39.0337  -22.7165 H         1 MOL     0.0406
     30 H         -67.0929  -42.0037  -21.9831 H         1 MOL     0.0239
     31 H         -68.3866  -40.8032  -22.3384 H         1 MOL     0.0239
     32 H         -67.3378  -40.5820  -20.8929 H         1 MOL     0.0239
@<TRIPOS>BOND
     1    1    2 1 
     2    1   16 1 
     3    1   17 1 
     4    1   18 1 
     5    2    3 1 
     6    2    4 1 
     7    2   19 1 
     8    3   20 1 
     9    3   21 1 
    10    3   22 1 
    11    4    5 1 
    12    4   23 1 
    13    4   24 1 
    14    5    6 ar
    15    5   10 ar
    16    6    7 ar
    17    6   25 1 
    18    7    8 ar
    19    7   26 1 
    20    8    9 ar
    21    8   11 1 
    22    9   10 ar
    23    9   27 1 
    24   10   28 1 
    25   11   12 1 
    26   11   13 1 
    27   11   29 1 
    28   12   30 1 
    29   12   31 1 
    30   12   32 1 
    31   13   14 ar
    32   13   15 ar
@<TRIPOS>SUBSTRUCTURE
1 MOL         1
@<TRIPOS>MOLECULE
query molecule
   32    32     1     0     0
SMALL
NO_CHARGE

@<TRIPOS>ATOM
      1 C         -16.8730  -42.0002  -19.8209 C.3       1 MOL     0.0072
      2 C         -16.2933  -43.4378  -19.7037 C.3       1 MOL    -0.0128
      3 C         -17.4191  -44.4904  -19.8873 C.3       1 MOL     0.0072
      4 C         -15.1085  -43.6412  -20.6815 C.3       1 MOL     0.0379
      5 C         -14.1656  -44.6891  -20.1998 C.ar      1 MOL    -0.0471
      6 C         -13.2801  -44.4114  -19.1520 C.ar      1 MOL     0.0037
      7 C         -12.3617  -45.3753  -18.7376 C.ar      1 MOL     0.0044
      8 C         -12.3209  -46.6370  -19.3487 C.ar      1 MOL    -0.0391
      9 C         -13.2235  -46.9162  -20.3910 C.ar      1 MOL     0.0044
     10 C         -14.1402  -45.9471  -20.8139 C.ar      1 MOL     0.0037
     11 C         -11.3383  -47.6946  -18.9465 C.3       1 MOL     0.0614
     12 C          -9.9208  -47.1944  -19.3070 C.3       1 MOL     0.0185
     13 C         -11.4258  -48.1114  -17.4725 C.2       1 MOL     0.0489
     14 O         -11.5577  -47.2233  -16.5803 O.co2     1 MOL    -0.5492
     15 O         -11.3792  -49.3651  -17.2658 O.co2     1 MOL    -0.5492
     16 H         -17.6723  -41.8455  -19.0657 H         1 MOL     0.0232
     17 H         -17.3058  -41.8392  -20.8308 H         1 MOL     0.0232
     18 H         -16.0765  -41.2454  -19.6530 H         1 MOL     0.0232
     19 H         -15.8899  -43.5438  -18.6644 H         1 MOL     0.0299
     20 H         -17.8856  -44.3788  -20.8896 H         1 MOL     0.0232
     21 H         -18.2068  -44.3456  -19.1178 H         1 MOL     0.0232
     22 H         -17.0155  -45.5191  -19.7959 H         1 MOL     0.0232
     23 H         -14.5206  -42.6982  -20.7504 H         1 MOL     0.0316
     24 H         -15.4648  -43.9238  -21.6916 H         1 MOL     0.0316
     25 H         -13.2981  -43.4481  -18.6649 H         1 MOL     0.0620
     26 H         -11.6704  -45.1538  -17.9356 H         1 MOL     0.0621
     27 H         -13.2037  -47.8846  -20.8712 H         1 MOL     0.0621
     28 H         -14.8251  -46.1701  -21.6187 H         1 MOL     0.0620
     29 H         -11.5276  -48.6102  -19.5617 H         1 MOL     0.0406
     30 H          -9.6757  -46.2767  -18.7324 H         1 MOL     0.0239
     31 H          -9.8616  -46.9612  -20.3932 H         1 MOL     0.0239
     32 H          -9.1605  -47.9701  -19.0755 H         1 MOL     0.0239
@<TRIPOS>BOND
     1    1    2 1 
     2    1   16 1 
     3    1   17 1 
     4    1   18 1 
     5    2    3 1 
     6    2    4 1 
     7    2   19 1 
     8    3   20 1 
     9    3   21 1 
    10    3   22 1 
    11    4    5 1 
    12    4   23 1 
    13    4   24 1 
    14    5    6 ar
    15    5   10 ar
    16    6    7 ar
    17    6   25 1 
    18    7    8 ar
    19    7   26 1 
    20    8    9 ar
    21    8   11 1 
    22    9   10 ar
    23    9   27 1 
    24   10   28 1 
    25   11   12 1 
    26   11   13 1 
    27   11   29 1 
    28   12   30 1 
    29   12   31 1 
    30   12   32 1 
    31   13   14 ar
    32   13   15 ar
@<TRIPOS>SUBSTRUCTURE
1 MOL         1
@<TRIPOS>MOLECULE
query molecule
   32    32     1     0     0
SMALL
NO_CHARGE

@<TRIPOS>ATOM
      1 C         -62.5800  -57.5480   20.2095 C.3       1 MOL     0.0072
      2 C         -62.8984  -56.3337   21.1092 C.3       1 MOL    -0.0128
      3 C         -64.3048  -55.7564   20.7964 C.3       1 MOL     0.0072
      4 C         -62.7176  -56.6917   22.6033 C.3       1 MOL     0.0379
      5 C         -62.3540  -55.4891   23.3976 C.ar      1 MOL    -0.0471
      6 C         -61.0012  -55.2147   23.6144 C.ar      1 MOL     0.0037
      7 C         -60.6204  -54.1161   24.3802 C.ar      1 MOL     0.0044
      8 C         -61.5861  -53.2691   24.9392 C.ar      1 MOL    -0.0391
      9 C         -62.9459  -53.5435   24.7145 C.ar      1 MOL     0.0044
     10 C         -63.3265  -54.6489   23.9451 C.ar      1 MOL     0.0037
     11 C         -61.2312  -52.0754   25.7692 C.3       1 MOL     0.0614
     12 C         -60.0807  -52.4029   26.7382 C.3       1 MOL     0.0185
     13 C         -60.8055  -50.9097   24.8728 C.2       1 MOL     0.0489
     14 O         -61.3710  -49.8084   25.1235 O.co2     1 MOL    -0.5492
     15 O         -59.9408  -51.1409   23.9857 O.co2     1 MOL    -0.5492
     16 H         -62.6527  -57.2649   19.1373 H         1 MOL     0.0232
     17 H         -63.2764  -58.3884   20.4032 H         1 MOL     0.0232
     18 H         -61.5417  -57.9018   20.3999 H         1 MOL     0.0232
     19 H         -62.1446  -55.5437   20.8677 H         1 MOL     0.0299
     20 H         -65.0894  -56.5140   21.0039 H         1 MOL     0.0232
     21 H         -64.3704  -55.4586   19.7292 H         1 MOL     0.0232
     22 H         -64.5008  -54.8636   21.4278 H         1 MOL     0.0232
     23 H         -61.8718  -57.4065   22.7147 H         1 MOL     0.0316
     24 H         -63.6337  -57.1403   23.0326 H         1 MOL     0.0316
     25 H         -60.2465  -55.8550   23.1817 H         1 MOL     0.0620
     26 H         -59.5715  -53.9137   24.5450 H         1 MOL     0.0621
     27 H         -63.6999  -52.8959   25.1403 H         1 MOL     0.0621
     28 H         -64.3743  -54.8498   23.7779 H         1 MOL     0.0620
     29 H         -62.1191  -51.7466   26.3624 H         1 MOL     0.0406
     30 H         -59.1782  -52.7219   26.1762 H         1 MOL     0.0239
     31 H         -60.3733  -53.2233   27.4279 H         1 MOL     0.0239
     32 H         -59.8265  -51.5072   27.3420 H         1 MOL     0.0239
@<TRIPOS>BOND
     1    1    2 1 
     2    1   16 1 
     3    1   17 1 
     4    1   18 1 
     5    2    3 1 
     6    2    4 1 
     7    2   19 1 
     8    3   20 1 
     9    3   21 1 
    10    3   22 1 
    11    4    5 1 
    12    4   23 1 
    13    4   24 1 
    14    5    6 ar
    15    5   10 ar
    16    6    7 ar
    17    6   25 1 
    18    7    8 ar
    19    7   26 1 
    20    8    9 ar
    21    8   11 1 
    22    9   10 ar
    23    9   27 1 
    24   10   28 1 
    25   11   12 1 
    26   11   13 1 
    27   11   29 1 
    28   12   30 1 
    29   12   31 1 
    30   12   32 1 
    31   13   14 ar
    32   13   15 ar
@<TRIPOS>SUBSTRUCTURE
1 MOL         1
@<TRIPOS>MOLECULE
query molecule
   32    32     1     0     0
SMALL
NO_CHARGE

@<TRIPOS>ATOM
      1 C         -17.1274  -37.5989  -16.2607 C.3       1 MOL     0.0072
      2 C         -17.2783  -37.8655  -14.7411 C.3       1 MOL    -0.0128
      3 C         -18.7622  -38.0930  -14.3461 C.3       1 MOL     0.0072
      4 C         -16.3624  -39.0287  -14.2806 C.3       1 MOL     0.0379
      5 C         -15.5258  -38.5835  -13.1308 C.ar      1 MOL    -0.0471
      6 C         -16.0884  -38.4875  -11.8543 C.ar      1 MOL     0.0037
      7 C         -15.3074  -38.0786  -10.7750 C.ar      1 MOL     0.0044
      8 C         -13.9498  -37.7743  -10.9452 C.ar      1 MOL    -0.0391
      9 C         -13.3915  -37.8643  -12.2330 C.ar      1 MOL     0.0044
     10 C         -14.1749  -38.2676  -13.3214 C.ar      1 MOL     0.0037
     11 C         -13.0842  -37.3527   -9.7978 C.3       1 MOL     0.0614
     12 C         -13.4931  -35.9356   -9.3505 C.3       1 MOL     0.0185
     13 C         -13.1813  -38.3256   -8.6192 C.2       1 MOL     0.0489
     14 O         -14.2618  -38.3506   -7.9586 O.co2     1 MOL    -0.5492
     15 O         -12.1383  -39.0048   -8.3812 O.co2     1 MOL    -0.5492
     16 H         -17.7432  -36.7257  -16.5611 H         1 MOL     0.0232
     17 H         -17.4575  -38.4855  -16.8412 H         1 MOL     0.0232
     18 H         -16.0658  -37.3874  -16.5082 H         1 MOL     0.0232
     19 H         -16.9281  -36.9420  -14.2118 H         1 MOL     0.0299
     20 H         -19.1621  -38.9949  -14.8554 H         1 MOL     0.0232
     21 H         -19.3769  -37.2174  -14.6442 H         1 MOL     0.0232
     22 H         -18.8564  -38.2340  -13.2492 H         1 MOL     0.0232
     23 H         -15.6742  -39.3314  -15.0963 H         1 MOL     0.0316
     24 H         -16.9626  -39.9014  -13.9556 H         1 MOL     0.0316
     25 H         -17.1297  -38.7301  -11.7039 H         1 MOL     0.0620
     26 H         -15.7523  -37.9967   -9.7933 H         1 MOL     0.0621
     27 H         -12.3501  -37.6195  -12.3901 H         1 MOL     0.0621
     28 H         -13.7400  -38.3369  -14.3087 H         1 MOL     0.0620
     29 H         -12.0185  -37.3124  -10.1335 H         1 MOL     0.0406
     30 H         -14.5476  -35.9305   -9.0015 H         1 MOL     0.0239
     31 H         -13.4027  -35.2250  -10.2002 H         1 MOL     0.0239
     32 H         -12.8412  -35.5825   -8.5252 H         1 MOL     0.0239
@<TRIPOS>BOND
     1    1    2 1 
     2    1   16 1 
     3    1   17 1 
     4    1   18 1 
     5    2    3 1 
     6    2    4 1 
     7    2   19 1 
     8    3   20 1 
     9    3   21 1 
    10    3   22 1 
    11    4    5 1 
    12    4   23 1 
    13    4   24 1 
    14    5    6 ar
    15    5   10 ar
    16    6    7 ar
    17    6   25 1 
    18    7    8 ar
    19    7   26 1 
    20    8    9 ar
    21    8   11 1 
    22    9   10 ar
    23    9   27 1 
    24   10   28 1 
    25   11   12 1 
    26   11   13 1 
    27   11   29 1 
    28   12   30 1 
    29   12   31 1 
    30   12   32 1 
    31   13   14 ar
    32   13   15 ar
@<TRIPOS>SUBSTRUCTURE
1 MOL         1
@<TRIPOS>MOLECULE
query molecule
   32    32     1     0     0
SMALL
NO_CHARGE

@<TRIPOS>ATOM
      1 C         -41.3817  -19.3196   -2.7365 C.3       1 MOL     0.0072
      2 C         -40.9248  -19.9127   -1.3772 C.3       1 MOL    -0.0128
      3 C         -40.6950  -18.7889   -0.3296 C.3       1 MOL     0.0072
      4 C         -41.9140  -20.9789   -0.8363 C.3       1 MOL     0.0379
      5 C         -41.4723  -22.3515   -1.2093 C.ar      1 MOL    -0.0471
      6 C         -40.4962  -22.9978   -0.4414 C.ar      1 MOL     0.0037
      7 C         -40.0805  -24.2848   -0.7768 C.ar      1 MOL     0.0044
      8 C         -40.6149  -24.9503   -1.8803 C.ar      1 MOL    -0.0391
      9 C         -41.6117  -24.3047   -2.6371 C.ar      1 MOL     0.0044
     10 C         -42.0357  -23.0112   -2.3065 C.ar      1 MOL     0.0037
     11 C         -40.1614  -26.3067   -2.3081 C.3       1 MOL     0.0614
     12 C         -38.8036  -26.1574   -3.0239 C.3       1 MOL     0.0185
     13 C         -40.0548  -27.3227   -1.1728 C.2       1 MOL     0.0489
     14 O         -39.0657  -27.2680   -0.3890 O.co2     1 MOL    -0.5492
     15 O         -40.9814  -28.1863   -1.1587 O.co2     1 MOL    -0.5492
     16 H         -40.6381  -18.5822   -3.1067 H         1 MOL     0.0232
     17 H         -42.3570  -18.8001   -2.6173 H         1 MOL     0.0232
     18 H         -41.4981  -20.1187   -3.4970 H         1 MOL     0.0232
     19 H         -39.9374  -20.4147   -1.5376 H         1 MOL     0.0299
     20 H         -41.6496  -18.2647   -0.1120 H         1 MOL     0.0232
     21 H         -39.9614  -18.0464   -0.7064 H         1 MOL     0.0232
     22 H         -40.3069  -19.2220    0.6166 H         1 MOL     0.0232
     23 H         -42.9361  -20.8123   -1.2264 H         1 MOL     0.0316
     24 H         -41.9355  -20.9409    0.2750 H         1 MOL     0.0316
     25 H         -40.0644  -22.4978    0.4128 H         1 MOL     0.0620
     26 H         -39.3173  -24.7729   -0.1822 H         1 MOL     0.0621
     27 H         -42.0542  -24.8076   -3.4858 H         1 MOL     0.0621
     28 H         -42.7968  -22.5227   -2.8965 H         1 MOL     0.0620
     29 H         -40.8920  -26.7083   -3.0554 H         1 MOL     0.0406
     30 H         -38.0578  -25.7229   -2.3283 H         1 MOL     0.0239
     31 H         -38.8880  -25.4987   -3.9140 H         1 MOL     0.0239
     32 H         -38.4408  -27.1538   -3.3586 H         1 MOL     0.0239
@<TRIPOS>BOND
     1    1    2 1 
     2    1   16 1 
     3    1   17 1 
     4    1   18 1 
     5    2    3 1 
     6    2    4 1 
     7    2   19 1 
     8    3   20 1 
     9    3   21 1 
    10    3   22 1 
    11    4    5 1 
    12    4   23 1 
    13    4   24 1 
    14    5    6 ar
    15    5   10 ar
    16    6    7 ar
    17    6   25 1 
    18    7    8 ar
    19    7   26 1 
    20    8    9 ar
    21    8   11 1 
    22    9   10 ar
    23    9   27 1 
    24   10   28 1 
    25   11   12 1 
    26   11   13 1 
    27   11   29 1 
    28   12   30 1 
    29   12   31 1 
    30   12   32 1 
    31   13   14 ar
    32   13   15 ar
@<TRIPOS>SUBSTRUCTURE
1 MOL         1
@<TRIPOS>MOLECULE
query molecule
   32    32     1     0     0
SMALL
NO_CHARGE

@<TRIPOS>ATOM
      1 C         -25.7898  -39.7685   24.1220 C.3       1 MOL     0.0072
      2 C         -27.1642  -39.0957   23.8548 C.3       1 MOL    -0.0128
      3 C         -28.3135  -40.0003   24.3762 C.3       1 MOL     0.0072
      4 C         -27.1908  -37.6567   24.4429 C.3       1 MOL     0.0379
      5 C         -28.1345  -36.7799   23.7039 C.ar      1 MOL    -0.0471
      6 C         -29.4946  -36.7557   24.0297 C.ar      1 MOL     0.0037
      7 C         -30.3711  -35.9381   23.3124 C.ar      1 MOL     0.0044
      8 C         -29.8930  -35.1459   22.2567 C.ar      1 MOL    -0.0391
      9 C         -28.5223  -35.1385   21.9674 C.ar      1 MOL     0.0044
     10 C         -27.6474  -35.9599   22.6789 C.ar      1 MOL     0.0037
     11 C         -30.8890  -34.3767   21.4515 C.3       1 MOL     0.0614
     12 C         -30.5275  -32.8889   21.3805 C.3       1 MOL     0.0185
     13 C         -30.9405  -35.0146   20.0601 C.2       1 MOL     0.0489
     14 O         -31.9224  -35.7893   19.8730 O.co2     1 MOL    -0.5492
     15 O         -29.9911  -34.7795   19.2620 O.co2     1 MOL    -0.5492
     16 H         -25.7550  -40.7780   23.6630 H         1 MOL     0.0232
     17 H         -25.6214  -39.8710   25.2152 H         1 MOL     0.0232
     18 H         -24.9691  -39.1552   23.6951 H         1 MOL     0.0232
     19 H         -27.2750  -39.0090   22.7441 H         1 MOL     0.0299
     20 H         -28.2388  -40.1111   25.4795 H         1 MOL     0.0232
     21 H         -28.2477  -41.0092   23.9173 H         1 MOL     0.0232
     22 H         -29.3022  -39.5618   24.1312 H         1 MOL     0.0232
     23 H         -26.1831  -37.1964   24.3407 H         1 MOL     0.0316
     24 H         -27.4818  -37.6665   25.5111 H         1 MOL     0.0316
     25 H         -29.8690  -37.3763   24.8299 H         1 MOL     0.0620
     26 H         -31.4228  -35.9267   23.5601 H         1 MOL     0.0621
     27 H         -28.1449  -34.5067   21.1762 H         1 MOL     0.0621
     28 H         -26.5961  -35.9671   22.4310 H         1 MOL     0.0620
     29 H         -31.8973  -34.4762   21.9214 H         1 MOL     0.0406
     30 H         -29.5333  -32.7434   20.9099 H         1 MOL     0.0239
     31 H         -30.4992  -32.4487   22.4017 H         1 MOL     0.0239
     32 H         -31.2868  -32.3353   20.7880 H         1 MOL     0.0239
@<TRIPOS>BOND
     1    1    2 1 
     2    1   16 1 
     3    1   17 1 
     4    1   18 1 
     5    2    3 1 
     6    2    4 1 
     7    2   19 1 
     8    3   20 1 
     9    3   21 1 
    10    3   22 1 
    11    4    5 1 
    12    4   23 1 
    13    4   24 1 
    14    5    6 ar
    15    5   10 ar
    16    6    7 ar
    17    6   25 1 
    18    7    8 ar
    19    7   26 1 
    20    8    9 ar
    21    8   11 1 
    22    9   10 ar
    23    9   27 1 
    24   10   28 1 
    25   11   12 1 
    26   11   13 1 
    27   11   29 1 
    28   12   30 1 
    29   12   31 1 
    30   12   32 1 
    31   13   14 ar
    32   13   15 ar
@<TRIPOS>SUBSTRUCTURE
1 MOL         1
@<TRIPOS>MOLECULE
query molecule
   32    32     1     0     0
SMALL
NO_CHARGE

@<TRIPOS>ATOM
      1 C         -53.0575  -26.8747  -20.5098 C.3       1 MOL     0.0072
      2 C         -52.7556  -28.3739  -20.7697 C.3       1 MOL    -0.0128
      3 C         -52.3581  -28.6292  -22.2481 C.3       1 MOL     0.0072
      4 C         -51.6740  -28.9442  -19.8227 C.3       1 MOL     0.0379
      5 C         -52.2427  -29.4314  -18.5378 C.ar      1 MOL    -0.0471
      6 C         -53.2919  -30.3575  -18.4994 C.ar      1 MOL     0.0037
      7 C         -53.7828  -30.8175  -17.2725 C.ar      1 MOL     0.0044
      8 C         -53.2203  -30.3690  -16.0705 C.ar      1 MOL    -0.0391
      9 C         -52.1692  -29.4353  -16.1171 C.ar      1 MOL     0.0044
     10 C         -51.6871  -28.9653  -17.3403 C.ar      1 MOL     0.0037
     11 C         -53.6853  -30.8348  -14.7202 C.3       1 MOL     0.0614
     12 C         -55.1035  -30.2824  -14.4575 C.3       1 MOL     0.0185
     13 C         -53.6241  -32.3634  -14.5970 C.2       1 MOL     0.0489
     14 O         -52.4926  -32.8761  -14.8558 O.co2     1 MOL    -0.5492
     15 O         -54.6673  -32.9789  -14.2307 O.co2     1 MOL    -0.5492
     16 H         -53.9025  -26.5332  -21.1457 H         1 MOL     0.0232
     17 H         -52.1678  -26.2535  -20.7487 H         1 MOL     0.0232
     18 H         -53.3278  -26.7107  -19.4459 H         1 MOL     0.0232
     19 H         -53.6984  -28.9486  -20.5821 H         1 MOL     0.0299
     20 H         -51.4321  -28.0748  -22.5072 H         1 MOL     0.0232
     21 H         -53.1708  -28.3057  -22.9300 H         1 MOL     0.0232
     22 H         -52.1744  -29.7137  -22.4040 H         1 MOL     0.0232
     23 H         -50.9025  -28.1808  -19.6012 H         1 MOL     0.0316
     24 H         -51.1894  -29.8220  -20.3047 H         1 MOL     0.0316
     25 H         -53.7217  -30.7177  -19.4232 H         1 MOL     0.0620
     26 H         -54.6018  -31.5218  -17.2547 H         1 MOL     0.0621
     27 H         -51.7282  -29.0738  -15.1989 H         1 MOL     0.0621
     28 H         -50.8815  -28.2455  -17.3661 H         1 MOL     0.0620
     29 H         -53.0043  -30.4020  -13.9443 H         1 MOL     0.0406
     30 H         -55.7988  -30.6581  -15.2368 H         1 MOL     0.0239
     31 H         -55.0934  -29.1687  -14.5148 H         1 MOL     0.0239
     32 H         -55.4602  -30.5946  -13.4553 H         1 MOL     0.0239
@<TRIPOS>BOND
     1    1    2 1 
     2    1   16 1 
     3    1   17 1 
     4    1   18 1 
     5    2    3 1 
     6    2    4 1 
     7    2   19 1 
     8    3   20 1 
     9    3   21 1 
    10    3   22 1 
    11    4    5 1 
    12    4   23 1 
    13    4   24 1 
    14    5    6 ar
    15    5   10 ar
    16    6    7 ar
    17    6   25 1 
    18    7    8 ar
    19    7   26 1 
    20    8    9 ar
    21    8   11 1 
    22    9   10 ar
    23    9   27 1 
    24   10   28 1 
    25   11   12 1 
    26   11   13 1 
    27   11   29 1 
    28   12   30 1 
    29   12   31 1 
    30   12   32 1 
    31   13   14 ar
    32   13   15 ar
@<TRIPOS>SUBSTRUCTURE
1 MOL         1
@<TRIPOS>MOLECULE
query molecule
   32    32     1     0     0
SMALL
NO_CHARGE

@<TRIPOS>ATOM
      1 C         -73.9028  -37.8127    7.3159 C.3       1 MOL     0.0072
      2 C         -73.0687  -38.8895    6.5690 C.3       1 MOL    -0.0128
      3 C         -73.6911  -39.2036    5.1827 C.3       1 MOL     0.0072
      4 C         -71.5733  -38.4881    6.4772 C.3       1 MOL     0.0379
      5 C         -70.7057  -39.6972    6.3816 C.ar      1 MOL    -0.0471
      6 C         -70.2273  -40.2883    7.5584 C.ar      1 MOL     0.0037
      7 C         -69.4029  -41.4132    7.4925 C.ar      1 MOL     0.0044
      8 C         -69.0395  -41.9590    6.2484 C.ar      1 MOL    -0.0391
      9 C         -69.5299  -41.3706    5.0775 C.ar      1 MOL     0.0044
     10 C         -70.3549  -40.2422    5.1414 C.ar      1 MOL     0.0037
     11 C         -68.1255  -43.1387    6.2579 C.3       1 MOL     0.0614
     12 C         -68.5377  -44.2014    5.2360 C.3       1 MOL     0.0185
     13 C         -66.7028  -42.6603    6.0042 C.2       1 MOL     0.0489
     14 O         -65.9730  -42.6789    7.0465 O.co2     1 MOL    -0.5492
     15 O         -66.3641  -42.2772    4.8561 O.co2     1 MOL    -0.5492
     16 H         -74.9579  -38.1456    7.4159 H         1 MOL     0.0232
     17 H         -73.8870  -36.8525    6.7593 H         1 MOL     0.0232
     18 H         -73.4907  -37.6401    8.3324 H         1 MOL     0.0232
     19 H         -73.1228  -39.8226    7.1867 H         1 MOL     0.0299
     20 H         -73.6743  -38.2977    4.5404 H         1 MOL     0.0232
     21 H         -74.7425  -39.5370    5.2971 H         1 MOL     0.0232
     22 H         -73.1162  -40.0074    4.6739 H         1 MOL     0.0232
     23 H         -71.2742  -37.9532    7.4060 H         1 MOL     0.0316
     24 H         -71.3825  -37.8370    5.6037 H         1 MOL     0.0316
     25 H         -70.4960  -39.8716    8.5184 H         1 MOL     0.0620
     26 H         -69.0388  -41.8633    8.4053 H         1 MOL     0.0621
     27 H         -69.2643  -41.7880    4.1171 H         1 MOL     0.0621
     28 H         -70.7212  -39.7891    4.2319 H         1 MOL     0.0620
     29 H         -68.1418  -43.5983    7.2777 H         1 MOL     0.0406
     30 H         -68.5205  -43.7841    4.2086 H         1 MOL     0.0239
     31 H         -69.5698  -44.5544    5.4537 H         1 MOL     0.0239
     32 H         -67.8522  -45.0727    5.2839 H         1 MOL     0.0239
@<TRIPOS>BOND
     1    1    2 1 
     2    1   16 1 
     3    1   17 1 
     4    1   18 1 
     5    2    3 1 
     6    2    4 1 
     7    2   19 1 
     8    3   20 1 
     9    3   21 1 
    10    3   22 1 
    11    4    5 1 
    12    4   23 1 
    13    4   24 1 
    14    5    6 ar
    15    5   10 ar
    16    6    7 ar
    17    6   25 1 
    18    7    8 ar
    19    7   26 1 
    20    8    9 ar
    21    8   11 1 
    22    9   10 ar
    23    9   27 1 
    24   10   28 1 
    25   11   12 1 
    26   11   13 1 
    27   11   29 1 
    28   12   30 1 
    29   12   31 1 
    30   12   32 1 
    31   13   14 ar
    32   13   15 ar
@<TRIPOS>SUBSTRUCTURE
1 MOL         1
@<TRIPOS>MOLECULE
query molecule
   32    32     1     0     0
SMALL
NO_CHARGE

@<TRIPOS>ATOM
      1 C         -46.3485  -77.9188    7.0187 C.3       1 MOL     0.0072
      2 C         -47.4067  -78.5740    6.0914 C.3       1 MOL    -0.0128
      3 C         -47.3840  -77.9327    4.6782 C.3       1 MOL     0.0072
      4 C         -47.2499  -80.1172    6.0505 C.3       1 MOL     0.0379
      5 C         -48.5539  -80.7555    5.7093 C.ar      1 MOL    -0.0471
      6 C         -49.5763  -80.7997    6.6656 C.ar      1 MOL     0.0037
      7 C         -50.8055  -81.3851    6.3545 C.ar      1 MOL     0.0044
      8 C         -51.0354  -81.9312    5.0844 C.ar      1 MOL    -0.0391
      9 C         -49.9984  -81.9015    4.1349 C.ar      1 MOL     0.0044
     10 C         -48.7657  -81.3158    4.4448 C.ar      1 MOL     0.0037
     11 C         -52.3514  -82.5433    4.6995 C.3       1 MOL     0.0614
     12 C         -52.6221  -83.7782    5.5874 C.3       1 MOL     0.0185
     13 C         -53.4791  -81.4934    4.8040 C.2       1 MOL     0.0489
     14 O         -53.9426  -81.0851    3.6969 O.co2     1 MOL    -0.5492
     15 O         -53.8362  -81.0916    5.9540 O.co2     1 MOL    -0.5492
     16 H         -46.5197  -76.8233    7.0827 H         1 MOL     0.0232
     17 H         -45.3248  -78.0947    6.6278 H         1 MOL     0.0232
     18 H         -46.4161  -78.3467    8.0413 H         1 MOL     0.0232
     19 H         -48.4088  -78.3569    6.5440 H         1 MOL     0.0299
     20 H         -46.4004  -78.1061    4.1930 H         1 MOL     0.0232
     21 H         -47.5517  -76.8382    4.7526 H         1 MOL     0.0232
     22 H         -48.1774  -78.3701    4.0365 H         1 MOL     0.0232
     23 H         -46.9584  -80.4942    7.0550 H         1 MOL     0.0316
     24 H         -46.4917  -80.4269    5.3065 H         1 MOL     0.0316
     25 H         -49.4131  -80.3776    7.6465 H         1 MOL     0.0620
     26 H         -51.5882  -81.4150    7.0991 H         1 MOL     0.0621
     27 H         -50.1522  -82.3324    3.1557 H         1 MOL     0.0621
     28 H         -47.9761  -81.2923    3.7073 H         1 MOL     0.0620
     29 H         -52.2845  -82.8998    3.6399 H         1 MOL     0.0406
     30 H         -52.6493  -83.4779    6.6567 H         1 MOL     0.0239
     31 H         -51.8326  -84.5488    5.4648 H         1 MOL     0.0239
     32 H         -53.5989  -84.2363    5.3225 H         1 MOL     0.0239
@<TRIPOS>BOND
     1    1    2 1 
     2    1   16 1 
     3    1   17 1 
     4    1   18 1 
     5    2    3 1 
     6    2    4 1 
     7    2   19 1 
     8    3   20 1 
     9    3   21 1 
    10    3   22 1 
    11    4    5 1 
    12    4   23 1 
    13    4   24 1 
    14    5    6 ar
    15    5   10 ar
    16    6    7 ar
    17    6   25 1 
    18    7    8 ar
    19    7   26 1 
    20    8    9 ar
    21    8   11 1 
    22    9   10 ar
    23    9   27 1 
    24   10   28 1 
    25   11   12 1 
    26   11   13 1 
    27   11   29 1 
    28   12   30 1 
    29   12   31 1 
    30   12   32 1 
    31   13   14 ar
    32   13   15 ar
@<TRIPOS>SUBSTRUCTURE
1 MOL         1
@<TRIPOS>MOLECULE
query molecule
   32    32     1     0     0
SMALL
NO_CHARGE

@<TRIPOS>ATOM
      1 C         -66.7335  -37.0448  -21.4397 C.3       1 MOL     0.0072
      2 C         -65.2757  -36.5480  -21.6111 C.3       1 MOL    -0.0128
      3 C         -64.7121  -36.8673  -23.0193 C.3       1 MOL     0.0072
      4 C         -65.1600  -35.0410  -21.2602 C.3       1 MOL     0.0379
      5 C         -63.9129  -34.8246  -20.4782 C.ar      1 MOL    -0.0471
      6 C         -62.7138  -34.5152  -21.1263 C.ar      1 MOL     0.0037
      7 C         -61.5405  -34.3656  -20.3823 C.ar      1 MOL     0.0044
      8 C         -61.5606  -34.5243  -18.9858 C.ar      1 MOL    -0.0391
      9 C         -62.7778  -34.7817  -18.3426 C.ar      1 MOL     0.0044
     10 C         -63.9486  -34.9428  -19.0843 C.ar      1 MOL     0.0037
     11 C         -60.2659  -34.4261  -18.2484 C.3       1 MOL     0.0614
     12 C         -60.3296  -33.3126  -17.1933 C.3       1 MOL     0.0185
     13 C         -59.8986  -35.7593  -17.5995 C.2       1 MOL     0.0489
     14 O         -58.8424  -36.2830  -18.0363 O.co2     1 MOL    -0.5492
     15 O         -60.6680  -36.2274  -16.7000 O.co2     1 MOL    -0.5492
     16 H         -66.8017  -38.1345  -21.6365 H         1 MOL     0.0232
     17 H         -67.4089  -36.5116  -22.1404 H         1 MOL     0.0232
     18 H         -67.0782  -36.8513  -20.4011 H         1 MOL     0.0232
     19 H         -64.6565  -37.1084  -20.8636 H         1 MOL     0.0299
     20 H         -65.3002  -36.3337  -23.7955 H         1 MOL     0.0232
     21 H         -64.7648  -37.9575  -23.2202 H         1 MOL     0.0232
     22 H         -63.6530  -36.5427  -23.0919 H         1 MOL     0.0232
     23 H         -66.0067  -34.7330  -20.6109 H         1 MOL     0.0316
     24 H         -65.1334  -34.4079  -22.1651 H         1 MOL     0.0316
     25 H         -62.6976  -34.3987  -22.1993 H         1 MOL     0.0620
     26 H         -60.6132  -34.1317  -20.8851 H         1 MOL     0.0621
     27 H         -62.8086  -34.8734  -17.2659 H         1 MOL     0.0621
     28 H         -64.8787  -35.1672  -18.5826 H         1 MOL     0.0620
     29 H         -59.4577  -34.1669  -18.9778 H         1 MOL     0.0406
     30 H         -61.1115  -33.5301  -16.4370 H         1 MOL     0.0239
     31 H         -60.5676  -32.3408  -17.6775 H         1 MOL     0.0239
     32 H         -59.3506  -33.2179  -16.6791 H         1 MOL     0.0239
@<TRIPOS>BOND
     1    1    2 1 
     2    1   16 1 
     3    1   17 1 
     4    1   18 1 
     5    2    3 1 
     6    2    4 1 
     7    2   19 1 
     8    3   20 1 
     9    3   21 1 
    10    3   22 1 
    11    4    5 1 
    12    4   23 1 
    13    4   24 1 
    14    5    6 ar
    15    5   10 ar
    16    6    7 ar
    17    6   25 1 
    18    7    8 ar
    19    7   26 1 
    20    8    9 ar
    21    8   11 1 
    22    9   10 ar
    23    9   27 1 
    24   10   28 1 
    25   11   12 1 
    26   11   13 1 
    27   11   29 1 
    28   12   30 1 
    29   12   31 1 
    30   12   32 1 
    31   13   14 ar
    32   13   15 ar
@<TRIPOS>SUBSTRUCTURE
1 MOL         1
@<TRIPOS>MOLECULE
query molecule
   32    32     1     0     0
SMALL
NO_CHARGE

@<TRIPOS>ATOM
      1 C         -63.2330  -33.2140  -19.1632 C.3       1 MOL     0.0072
      2 C         -63.3047  -34.5010  -18.2999 C.3       1 MOL    -0.0128
      3 C         -62.3241  -34.4407  -17.1011 C.3       1 MOL     0.0072
      4 C         -64.7606  -34.7991  -17.8655 C.3       1 MOL     0.0379
      5 C         -65.0063  -36.2650  -17.8121 C.ar      1 MOL    -0.0471
      6 C         -65.5050  -36.8992  -18.9573 C.ar      1 MOL     0.0037
      7 C         -65.7855  -38.2646  -18.9327 C.ar      1 MOL     0.0044
      8 C         -65.5775  -39.0075  -17.7665 C.ar      1 MOL    -0.0391
      9 C         -65.0582  -38.3756  -16.6264 C.ar      1 MOL     0.0044
     10 C         -64.7777  -37.0061  -16.6492 C.ar      1 MOL     0.0037
     11 C         -65.8523  -40.4811  -17.6824 C.3       1 MOL     0.0614
     12 C         -67.0330  -40.8821  -18.5881 C.3       1 MOL     0.0185
     13 C         -64.6190  -41.2638  -18.1252 C.2       1 MOL     0.0489
     14 O         -64.1691  -41.0150  -19.2742 O.co2     1 MOL    -0.5492
     15 O         -64.1728  -42.1053  -17.2894 O.co2     1 MOL    -0.5492
     16 H         -62.1940  -33.0456  -19.5146 H         1 MOL     0.0232
     17 H         -63.5589  -32.3307  -18.5762 H         1 MOL     0.0232
     18 H         -63.8946  -33.3132  -20.0503 H         1 MOL     0.0232
     19 H         -62.9817  -35.3434  -18.9572 H         1 MOL     0.0299
     20 H         -62.5929  -33.6006  -16.4265 H         1 MOL     0.0232
     21 H         -61.2855  -34.2868  -17.4617 H         1 MOL     0.0232
     22 H         -62.3644  -35.3863  -16.5225 H         1 MOL     0.0232
     23 H         -65.4620  -34.3938  -18.6297 H         1 MOL     0.0316
     24 H         -64.9928  -34.3567  -16.8818 H         1 MOL     0.0316
     25 H         -65.6713  -36.3284  -19.8586 H         1 MOL     0.0620
     26 H         -66.1741  -38.7453  -19.8187 H         1 MOL     0.0621
     27 H         -64.8851  -38.9497  -15.7282 H         1 MOL     0.0621
     28 H         -64.3893  -36.5250  -15.7653 H         1 MOL     0.0620
     29 H         -66.0987  -40.7625  -16.6316 H         1 MOL     0.0406
     30 H         -66.8175  -40.6243  -19.6471 H         1 MOL     0.0239
     31 H         -67.9506  -40.3402  -18.2756 H         1 MOL     0.0239
     32 H         -67.2231  -41.9719  -18.5199 H         1 MOL     0.0239
@<TRIPOS>BOND
     1    1    2 1 
     2    1   16 1 
     3    1   17 1 
     4    1   18 1 
     5    2    3 1 
     6    2    4 1 
     7    2   19 1 
     8    3   20 1 
     9    3   21 1 
    10    3   22 1 
    11    4    5 1 
    12    4   23 1 
    13    4   24 1 
    14    5    6 ar
    15    5   10 ar
    16    6    7 ar
    17    6   25 1 
    18    7    8 ar
    19    7   26 1 
    20    8    9 ar
    21    8   11 1 
    22    9   10 ar
    23    9   27 1 
    24   10   28 1 
    25   11   12 1 
    26   11   13 1 
    27   11   29 1 
    28   12   30 1 
    29   12   31 1 
    30   12   32 1 
    31   13   14 ar
    32   13   15 ar
@<TRIPOS>SUBSTRUCTURE
1 MOL         1
@<TRIPOS>MOLECULE
query molecule
   32    32     1     0     0
SMALL
NO_CHARGE

@<TRIPOS>ATOM
      1 C         -19.6575  -44.2906  -22.5752 C.3       1 MOL     0.0072
      2 C         -20.4294  -44.8847  -21.3646 C.3       1 MOL    -0.0128
      3 C         -21.5501  -43.9191  -20.8959 C.3       1 MOL     0.0072
      4 C         -20.9517  -46.3101  -21.6843 C.3       1 MOL     0.0379
      5 C         -21.2570  -47.0632  -20.4354 C.ar      1 MOL    -0.0471
      6 C         -20.2064  -47.5498  -19.6493 C.ar      1 MOL     0.0037
      7 C         -20.4766  -48.2693  -18.4850 C.ar      1 MOL     0.0044
      8 C         -21.7988  -48.5110  -18.0893 C.ar      1 MOL    -0.0391
      9 C         -22.8491  -48.0268  -18.8849 C.ar      1 MOL     0.0044
     10 C         -22.5816  -47.3038  -20.0520 C.ar      1 MOL     0.0037
     11 C         -22.1382  -49.2648  -16.8421 C.3       1 MOL     0.0614
     12 C         -21.3854  -50.6026  -16.8017 C.3       1 MOL     0.0185
     13 C         -21.8027  -48.4084  -15.6233 C.2       1 MOL     0.0489
     14 O         -20.5923  -48.1538  -15.3608 O.co2     1 MOL    -0.5492
     15 O         -22.8210  -47.9986  -14.9966 O.co2     1 MOL    -0.5492
     16 H         -19.2434  -43.2930  -22.3180 H         1 MOL     0.0232
     17 H         -20.3335  -44.1776  -23.4487 H         1 MOL     0.0232
     18 H         -18.8174  -44.9571  -22.8635 H         1 MOL     0.0232
     19 H         -19.6918  -44.9814  -20.5268 H         1 MOL     0.0299
     20 H         -22.2964  -43.7808  -21.7072 H         1 MOL     0.0232
     21 H         -21.1212  -42.9274  -20.6401 H         1 MOL     0.0232
     22 H         -22.0670  -44.3256  -20.0027 H         1 MOL     0.0232
     23 H         -20.1577  -46.8836  -22.2139 H         1 MOL     0.0316
     24 H         -21.8604  -46.2763  -22.3149 H         1 MOL     0.0316
     25 H         -19.1841  -47.3671  -19.9496 H         1 MOL     0.0620
     26 H         -19.6573  -48.6418  -17.8880 H         1 MOL     0.0621
     27 H         -23.8719  -48.2160  -18.5905 H         1 MOL     0.0621
     28 H         -23.3979  -46.9357  -20.6549 H         1 MOL     0.0620
     29 H         -23.2383  -49.4679  -16.8222 H         1 MOL     0.0406
     30 H         -20.2909  -50.4309  -16.8800 H         1 MOL     0.0239
     31 H         -21.7014  -51.2402  -17.6564 H         1 MOL     0.0239
     32 H         -21.5963  -51.1493  -15.8599 H         1 MOL     0.0239
@<TRIPOS>BOND
     1    1    2 1 
     2    1   16 1 
     3    1   17 1 
     4    1   18 1 
     5    2    3 1 
     6    2    4 1 
     7    2   19 1 
     8    3   20 1 
     9    3   21 1 
    10    3   22 1 
    11    4    5 1 
    12    4   23 1 
    13    4   24 1 
    14    5    6 ar
    15    5   10 ar
    16    6    7 ar
    17    6   25 1 
    18    7    8 ar
    19    7   26 1 
    20    8    9 ar
    21    8   11 1 
    22    9   10 ar
    23    9   27 1 
    24   10   28 1 
    25   11   12 1 
    26   11   13 1 
    27   11   29 1 
    28   12   30 1 
    29   12   31 1 
    30   12   32 1 
    31   13   14 ar
    32   13   15 ar
@<TRIPOS>SUBSTRUCTURE
1 MOL         1
@<TRIPOS>MOLECULE
query molecule
   32    32     1     0     0
SMALL
NO_CHARGE

@<TRIPOS>ATOM
      1 C          -1.3013  -40.9427   15.3866 C.3       1 MOL     0.0072
      2 C          -2.3450  -42.0735   15.1981 C.3       1 MOL    -0.0128
      3 C          -2.0392  -42.8869   13.9129 C.3       1 MOL     0.0072
      4 C          -2.4465  -42.9590   16.4690 C.3       1 MOL     0.0379
      5 C          -3.8059  -43.5551   16.5750 C.ar      1 MOL    -0.0471
      6 C          -4.8503  -42.8078   17.1331 C.ar      1 MOL     0.0037
      7 C          -6.1436  -43.3320   17.1682 C.ar      1 MOL     0.0044
      8 C          -6.4070  -44.6073   16.6524 C.ar      1 MOL    -0.0391
      9 C          -5.3413  -45.3768   16.1548 C.ar      1 MOL     0.0044
     10 C          -4.0478  -44.8529   16.1151 C.ar      1 MOL     0.0037
     11 C          -7.7745  -45.2031   16.5802 C.3       1 MOL     0.0614
     12 C          -8.4951  -45.1077   17.9290 C.3       1 MOL     0.0185
     13 C          -8.5805  -44.5412   15.4673 C.2       1 MOL     0.0489
     14 O          -8.8675  -45.3171   14.5073 O.co2     1 MOL    -0.5492
     15 O          -8.9088  -43.3249   15.5606 O.co2     1 MOL    -0.5492
     16 H          -1.2864  -40.2766   14.4991 H         1 MOL     0.0232
     17 H          -0.2887  -41.3751   15.5266 H         1 MOL     0.0232
     18 H          -1.5580  -40.3390   16.2822 H         1 MOL     0.0232
     19 H          -3.3387  -41.5746   15.0587 H         1 MOL     0.0299
     20 H          -1.0579  -43.3984   14.0063 H         1 MOL     0.0232
     21 H          -1.9986  -42.2087   13.0344 H         1 MOL     0.0232
     22 H          -2.8235  -43.6510   13.7364 H         1 MOL     0.0232
     23 H          -2.2946  -42.3381   17.3773 H         1 MOL     0.0316
     24 H          -1.6994  -43.7742   16.4449 H         1 MOL     0.0316
     25 H          -4.6555  -41.8218   17.5286 H         1 MOL     0.0620
     26 H          -6.9494  -42.7470   17.5893 H         1 MOL     0.0621
     27 H          -5.5268  -46.3777   15.7918 H         1 MOL     0.0621
     28 H          -3.2372  -45.4477   15.7208 H         1 MOL     0.0620
     29 H          -7.6833  -46.2878   16.3169 H         1 MOL     0.0406
     30 H          -8.6031  -44.0474   18.2367 H         1 MOL     0.0239
     31 H          -7.9100  -45.6440   18.7076 H         1 MOL     0.0239
     32 H          -9.5035  -45.5671   17.8666 H         1 MOL     0.0239
@<TRIPOS>BOND
     1    1    2 1 
     2    1   16 1 
     3    1   17 1 
     4    1   18 1 
     5    2    3 1 
     6    2    4 1 
     7    2   19 1 
     8    3   20 1 
     9    3   21 1 
    10    3   22 1 
    11    4    5 1 
    12    4   23 1 
    13    4   24 1 
    14    5    6 ar
    15    5   10 ar
    16    6    7 ar
    17    6   25 1 
    18    7    8 ar
    19    7   26 1 
    20    8    9 ar
    21    8   11 1 
    22    9   10 ar
    23    9   27 1 
    24   10   28 1 
    25   11   12 1 
    26   11   13 1 
    27   11   29 1 
    28   12   30 1 
    29   12   31 1 
    30   12   32 1 
    31   13   14 ar
    32   13   15 ar
@<TRIPOS>SUBSTRUCTURE
1 MOL         1
@<TRIPOS>MOLECULE
query molecule
   32    32     1     0     0
SMALL
NO_CHARGE

@<TRIPOS>ATOM
      1 C         -54.2492  -38.3898   28.0216 C.3       1 MOL     0.0072
      2 C         -54.8929  -39.7221   27.5409 C.3       1 MOL    -0.0128
      3 C         -53.9408  -40.9016   27.8725 C.3       1 MOL     0.0072
      4 C         -56.3268  -39.8994   28.1066 C.3       1 MOL     0.0379
      5 C         -57.1242  -40.8926   27.3299 C.ar      1 MOL    -0.0471
      6 C         -57.3416  -42.1856   27.8203 C.ar      1 MOL     0.0037
      7 C         -58.1025  -43.0998   27.0830 C.ar      1 MOL     0.0044
      8 C         -58.6672  -42.7281   25.8508 C.ar      1 MOL    -0.0391
      9 C         -58.4486  -41.4326   25.3663 C.ar      1 MOL     0.0044
     10 C         -57.6854  -40.5213   26.1005 C.ar      1 MOL     0.0037
     11 C         -59.4955  -43.7472   25.1358 C.3       1 MOL     0.0614
     12 C         -60.8961  -43.1665   24.8683 C.3       1 MOL     0.0185
     13 C         -58.8374  -44.2029   23.8377 C.2       1 MOL     0.0489
     14 O         -58.3586  -45.3724   23.8678 O.co2     1 MOL    -0.5492
     15 O         -58.8329  -43.4010   22.8631 O.co2     1 MOL    -0.5492
     16 H         -53.2488  -38.2624   27.5542 H         1 MOL     0.0232
     17 H         -54.1194  -38.4024   29.1244 H         1 MOL     0.0232
     18 H         -54.8824  -37.5218   27.7470 H         1 MOL     0.0232
     19 H         -54.9813  -39.6588   26.4259 H         1 MOL     0.0299
     20 H         -53.7861  -40.9743   28.9688 H         1 MOL     0.0232
     21 H         -52.9512  -40.7366   27.3908 H         1 MOL     0.0232
     22 H         -54.3599  -41.8575   27.5044 H         1 MOL     0.0232
     23 H         -56.8710  -38.9305   28.0249 H         1 MOL     0.0316
     24 H         -56.3022  -40.2109   29.1673 H         1 MOL     0.0316
     25 H         -56.9298  -42.4848   28.7719 H         1 MOL     0.0620
     26 H         -58.2642  -44.0997   27.4610 H         1 MOL     0.0621
     27 H         -58.8794  -41.1309   24.4227 H         1 MOL     0.0621
     28 H         -57.5280  -39.5214   25.7244 H         1 MOL     0.0620
     29 H         -59.6068  -44.6466   25.7913 H         1 MOL     0.0406
     30 H         -60.8262  -42.2468   24.2495 H         1 MOL     0.0239
     31 H         -61.3809  -42.9001   25.8325 H         1 MOL     0.0239
     32 H         -61.5372  -43.9030   24.3433 H         1 MOL     0.0239
@<TRIPOS>BOND
     1    1    2 1 
     2    1   16 1 
     3    1   17 1 
     4    1   18 1 
     5    2    3 1 
     6    2    4 1 
     7    2   19 1 
     8    3   20 1 
     9    3   21 1 
    10    3   22 1 
    11    4    5 1 
    12    4   23 1 
    13    4   24 1 
    14    5    6 ar
    15    5   10 ar
    16    6    7 ar
    17    6   25 1 
    18    7    8 ar
    19    7   26 1 
    20    8    9 ar
    21    8   11 1 
    22    9   10 ar
    23    9   27 1 
    24   10   28 1 
    25   11   12 1 
    26   11   13 1 
    27   11   29 1 
    28   12   30 1 
    29   12   31 1 
    30   12   32 1 
    31   13   14 ar
    32   13   15 ar
@<TRIPOS>SUBSTRUCTURE
1 MOL         1
