@<TRIPOS>MOLECULE
query molecule
   32    32     1     0     0
SMALL
NO_CHARGE

@<TRIPOS>ATOM
      1 C         -21.9909  -69.6251    9.5673 C.3       1 MOL     0.0072
      2 C         -22.9441  -70.7879    9.9526 C.3       1 MOL    -0.0128
      3 C         -23.1983  -71.7439    8.7540 C.3       1 MOL     0.0072
      4 C         -22.4574  -71.5512   11.2128 C.3       1 MOL     0.0379
      5 C         -23.5591  -71.7600   12.1973 C.ar      1 MOL    -0.0471
      6 C         -24.8156  -72.2412   11.8269 C.ar      1 MOL     0.0037
      7 C         -25.8171  -72.4044   12.7833 C.ar      1 MOL     0.0044
      8 C         -25.5917  -72.1006   14.1430 C.ar      1 MOL    -0.0391
      9 C         -24.3261  -71.6232   14.5043 C.ar      1 MOL     0.0044
     10 C         -23.3204  -71.4608   13.5457 C.ar      1 MOL     0.0037
     11 C         -26.7272  -72.2807   15.0994 C.3       1 MOL     0.0614
     12 C         -27.3125  -73.6999   14.9833 C.3       1 MOL     0.0185
     13 C         -26.4025  -72.0565   16.5677 C.2       1 MOL     0.0489
     14 O         -27.1011  -71.1571   17.1158 O.co2     1 MOL    -0.5492
     15 O         -25.5193  -72.7929   17.0858 O.co2     1 MOL    -0.5492
     16 H         -22.4036  -69.0561    8.7084 H         1 MOL     0.0232
     17 H         -20.9913  -70.0169    9.2873 H         1 MOL     0.0232
     18 H         -21.8720  -68.9307   10.4269 H         1 MOL     0.0232
     19 H         -23.9255  -70.3160   10.2223 H         1 MOL     0.0299
     20 H         -22.2489  -72.2245    8.4393 H         1 MOL     0.0232
     21 H         -23.6125  -71.1791    7.8941 H         1 MOL     0.0232
     22 H         -23.9218  -72.5363    9.0445 H         1 MOL     0.0232
     23 H         -21.6767  -70.9536   11.7326 H         1 MOL     0.0316
     24 H         -22.0337  -72.5375   10.9357 H         1 MOL     0.0316
     25 H         -25.0167  -72.4841   10.7937 H         1 MOL     0.0620
     26 H         -26.7860  -72.7747   12.4752 H         1 MOL     0.0621
     27 H         -24.1202  -71.3737   15.5366 H         1 MOL     0.0621
     28 H         -22.3470  -71.0900   13.8355 H         1 MOL     0.0620
     29 H         -27.5340  -71.5485   14.8236 H         1 MOL     0.0406
     30 H         -26.5670  -74.4781   15.2449 H         1 MOL     0.0239
     31 H         -27.6556  -73.8757   13.9428 H         1 MOL     0.0239
     32 H         -28.1790  -73.7963   15.6705 H         1 MOL     0.0239
@<TRIPOS>BOND
     1    1    2 1 
     2    1   16 1 
     3    1   17 1 
     4    1   18 1 
     5    2    3 1 
     6    2    4 1 
     7    2   19 1 
     8    3   20 1 
     9    3   21 1 
    10    3   22 1 
    11    4    5 1 
    12    4   23 1 
    13    4   24 1 
    14    5    6 ar
    15    5   10 ar
    16    6    7 ar
    17    6   25 1 
    18    7    8 ar
    19    7   26 1 
    20    8    9 ar
    21    8   11 1 
    22    9   10 ar
    23    9   27 1 
    24   10   28 1 
    25   11   12 1 
    26   11   13 1 
    27   11   29 1 
    28   12   30 1 
    29   12   31 1 
    30   12   32 1 
    31   13   14 ar
    32   13   15 ar
@<TRIPOS>SUBSTRUCTURE
1 MOL         1
@<TRIPOS>MOLECULE
query molecule
   32    32     1     0     0
SMALL
NO_CHARGE

@<TRIPOS>ATOM
      1 C         -33.5025  -39.3274    4.1049 C.3       1 MOL     0.0072
      2 C         -32.4378  -40.2420    3.4548 C.3       1 MOL    -0.0128
      3 C         -31.4294  -39.4135    2.6260 C.3       1 MOL     0.0072
      4 C         -31.7347  -41.1659    4.4811 C.3       1 MOL     0.0379
      5 C         -32.4812  -42.4491    4.6361 C.ar      1 MOL    -0.0471
      6 C         -32.8267  -42.9166    5.9094 C.ar      1 MOL     0.0037
      7 C         -33.5071  -44.1324    6.0512 C.ar      1 MOL     0.0044
      8 C         -33.8485  -44.8956    4.9206 C.ar      1 MOL    -0.0391
      9 C         -33.5023  -44.4177    3.6504 C.ar      1 MOL     0.0044
     10 C         -32.8286  -43.2058    3.5090 C.ar      1 MOL     0.0037
     11 C         -34.5673  -46.1981    5.1048 C.3       1 MOL     0.0614
     12 C         -35.7340  -46.3232    4.1038 C.3       1 MOL     0.0185
     13 C         -33.5949  -47.3651    4.8915 C.2       1 MOL     0.0489
     14 O         -33.1176  -47.8415    5.9590 O.co2     1 MOL    -0.5492
     15 O         -33.3526  -47.7493    3.7098 O.co2     1 MOL    -0.5492
     16 H         -34.0300  -38.7312    3.3323 H         1 MOL     0.0232
     17 H         -33.0216  -38.6334    4.8241 H         1 MOL     0.0232
     18 H         -34.2466  -39.9410    4.6535 H         1 MOL     0.0232
     19 H         -32.9707  -40.9119    2.7296 H         1 MOL     0.0299
     20 H         -30.8500  -38.7318    3.2819 H         1 MOL     0.0232
     21 H         -31.9660  -38.8065    1.8670 H         1 MOL     0.0232
     22 H         -30.7224  -40.0903    2.1007 H         1 MOL     0.0232
     23 H         -31.6405  -40.6791    5.4702 H         1 MOL     0.0316
     24 H         -30.7217  -41.4341    4.1073 H         1 MOL     0.0316
     25 H         -32.5628  -42.3407    6.7852 H         1 MOL     0.0620
     26 H         -33.7678  -44.4868    7.0385 H         1 MOL     0.0621
     27 H         -33.7640  -44.9900    2.7719 H         1 MOL     0.0621
     28 H         -32.5726  -42.8442    2.5238 H         1 MOL     0.0620
     29 H         -34.9640  -46.2581    6.1488 H         1 MOL     0.0406
     30 H         -35.3341  -46.3142    3.0675 H         1 MOL     0.0239
     31 H         -36.4502  -45.4841    4.2170 H         1 MOL     0.0239
     32 H         -36.2739  -47.2796    4.2635 H         1 MOL     0.0239
@<TRIPOS>BOND
     1    1    2 1 
     2    1   16 1 
     3    1   17 1 
     4    1   18 1 
     5    2    3 1 
     6    2    4 1 
     7    2   19 1 
     8    3   20 1 
     9    3   21 1 
    10    3   22 1 
    11    4    5 1 
    12    4   23 1 
    13    4   24 1 
    14    5    6 ar
    15    5   10 ar
    16    6    7 ar
    17    6   25 1 
    18    7    8 ar
    19    7   26 1 
    20    8    9 ar
    21    8   11 1 
    22    9   10 ar
    23    9   27 1 
    24   10   28 1 
    25   11   12 1 
    26   11   13 1 
    27   11   29 1 
    28   12   30 1 
    29   12   31 1 
    30   12   32 1 
    31   13   14 ar
    32   13   15 ar
@<TRIPOS>SUBSTRUCTURE
1 MOL         1
@<TRIPOS>MOLECULE
query molecule
   32    32     1     0     0
SMALL
NO_CHARGE

@<TRIPOS>ATOM
      1 C         -12.7262  -64.7617   -2.6029 C.3       1 MOL     0.0072
      2 C         -12.3144  -65.4452   -3.9330 C.3       1 MOL    -0.0128
      3 C         -11.6768  -66.8346   -3.6725 C.3       1 MOL     0.0072
      4 C         -13.5028  -65.5511   -4.9198 C.3       1 MOL     0.0379
      5 C         -13.4584  -64.4614   -5.9302 C.ar      1 MOL    -0.0471
      6 C         -13.8261  -63.1555   -5.5882 C.ar      1 MOL     0.0037
      7 C         -13.8276  -62.1558   -6.5616 C.ar      1 MOL     0.0044
      8 C         -13.4567  -62.4466   -7.8872 C.ar      1 MOL    -0.0391
      9 C         -13.0748  -63.7513   -8.2158 C.ar      1 MOL     0.0044
     10 C         -13.0774  -64.7553   -7.2448 C.ar      1 MOL     0.0037
     11 C         -13.5000  -61.3333   -8.8830 C.3       1 MOL     0.0614
     12 C         -12.3358  -61.3910   -9.8772 C.3       1 MOL     0.0185
     13 C         -14.8224  -61.3911   -9.6356 C.2       1 MOL     0.0489
     14 O         -14.9562  -62.1574  -10.6321 O.co2     1 MOL    -0.5492
     15 O         -15.7118  -60.6434   -9.1476 O.co2     1 MOL    -0.5492
     16 H         -11.8513  -64.6651   -1.9284 H         1 MOL     0.0232
     17 H         -13.5052  -65.3667   -2.0872 H         1 MOL     0.0232
     18 H         -13.1398  -63.7502   -2.7984 H         1 MOL     0.0232
     19 H         -11.5296  -64.8128   -4.4208 H         1 MOL     0.0299
     20 H         -12.4161  -67.5144   -3.1984 H         1 MOL     0.0232
     21 H         -10.7996  -66.7384   -2.9998 H         1 MOL     0.0232
     22 H         -11.3430  -67.2890   -4.6292 H         1 MOL     0.0232
     23 H         -14.4696  -65.4941   -4.3815 H         1 MOL     0.0316
     24 H         -13.4513  -66.5101   -5.4791 H         1 MOL     0.0316
     25 H         -14.1061  -62.9218   -4.5733 H         1 MOL     0.0620
     26 H         -14.1172  -61.1510   -6.2946 H         1 MOL     0.0621
     27 H         -12.7813  -63.9848   -9.2300 H         1 MOL     0.0621
     28 H         -12.7900  -65.7631   -7.5107 H         1 MOL     0.0620
     29 H         -13.4557  -60.3565   -8.3322 H         1 MOL     0.0406
     30 H         -12.3980  -62.3276  -10.4706 H         1 MOL     0.0239
     31 H         -11.3624  -61.3676   -9.3462 H         1 MOL     0.0239
     32 H         -12.3873  -60.5288  -10.5750 H         1 MOL     0.0239
@<TRIPOS>BOND
     1    1    2 1 
     2    1   16 1 
     3    1   17 1 
     4    1   18 1 
     5    2    3 1 
     6    2    4 1 
     7    2   19 1 
     8    3   20 1 
     9    3   21 1 
    10    3   22 1 
    11    4    5 1 
    12    4   23 1 
    13    4   24 1 
    14    5    6 ar
    15    5   10 ar
    16    6    7 ar
    17    6   25 1 
    18    7    8 ar
    19    7   26 1 
    20    8    9 ar
    21    8   11 1 
    22    9   10 ar
    23    9   27 1 
    24   10   28 1 
    25   11   12 1 
    26   11   13 1 
    27   11   29 1 
    28   12   30 1 
    29   12   31 1 
    30   12   32 1 
    31   13   14 ar
    32   13   15 ar
@<TRIPOS>SUBSTRUCTURE
1 MOL         1
@<TRIPOS>MOLECULE
query molecule
   32    32     1     0     0
SMALL
NO_CHARGE

@<TRIPOS>ATOM
      1 C         -42.8109  -65.0364    1.2717 C.3       1 MOL     0.0072
      2 C         -44.2316  -64.8058    0.6913 C.3       1 MOL    -0.0128
      3 C         -44.9383  -63.6703    1.4796 C.3       1 MOL     0.0072
      4 C         -44.2244  -64.5562   -0.8420 C.3       1 MOL     0.0379
      5 C         -44.1479  -65.8493   -1.5853 C.ar      1 MOL    -0.0471
      6 C         -45.3322  -66.5336   -1.8829 C.ar      1 MOL     0.0037
      7 C         -45.2832  -67.7631   -2.5422 C.ar      1 MOL     0.0044
      8 C         -44.0556  -68.3439   -2.9327 C.ar      1 MOL    -0.0391
      9 C         -42.8847  -67.6305   -2.6506 C.ar      1 MOL     0.0044
     10 C         -42.9276  -66.3944   -1.9923 C.ar      1 MOL     0.0037
     11 C         -44.0769  -69.6907   -3.6032 C.3       1 MOL     0.0614
     12 C         -45.0090  -69.6030   -4.8394 C.3       1 MOL     0.0185
     13 C         -42.7062  -70.2706   -3.9995 C.2       1 MOL     0.0489
     14 O         -41.9670  -70.6445   -3.0350 O.co2     1 MOL    -0.5492
     15 O         -42.4243  -70.4057   -5.2305 O.co2     1 MOL    -0.5492
     16 H         -42.8780  -65.2284    2.3644 H         1 MOL     0.0232
     17 H         -42.1848  -64.1339    1.1131 H         1 MOL     0.0232
     18 H         -42.3220  -65.9029    0.7865 H         1 MOL     0.0232
     19 H         -44.8302  -65.7356    0.8683 H         1 MOL     0.0299
     20 H         -44.3990  -62.7083    1.3387 H         1 MOL     0.0232
     21 H         -44.9734  -63.9045    2.5595 H         1 MOL     0.0232
     22 H         -45.9800  -63.5418    1.1105 H         1 MOL     0.0232
     23 H         -43.3703  -63.9204   -1.1418 H         1 MOL     0.0316
     24 H         -45.1740  -64.0667   -1.1501 H         1 MOL     0.0316
     25 H         -46.2839  -66.1080   -1.5975 H         1 MOL     0.0620
     26 H         -46.2100  -68.2787   -2.7586 H         1 MOL     0.0621
     27 H         -41.9279  -68.0446   -2.9399 H         1 MOL     0.0621
     28 H         -42.0087  -65.8639   -1.7863 H         1 MOL     0.0620
     29 H         -44.5496  -70.4285   -2.8985 H         1 MOL     0.0406
     30 H         -44.6003  -68.8918   -5.5853 H         1 MOL     0.0239
     31 H         -46.0157  -69.2458   -4.5327 H         1 MOL     0.0239
     32 H         -45.1235  -70.5976   -5.3159 H         1 MOL     0.0239
@<TRIPOS>BOND
     1    1    2 1 
     2    1   16 1 
     3    1   17 1 
     4    1   18 1 
     5    2    3 1 
     6    2    4 1 
     7    2   19 1 
     8    3   20 1 
     9    3   21 1 
    10    3   22 1 
    11    4    5 1 
    12    4   23 1 
    13    4   24 1 
    14    5    6 ar
    15    5   10 ar
    16    6    7 ar
    17    6   25 1 
    18    7    8 ar
    19    7   26 1 
    20    8    9 ar
    21    8   11 1 
    22    9   10 ar
    23    9   27 1 
    24   10   28 1 
    25   11   12 1 
    26   11   13 1 
    27   11   29 1 
    28   12   30 1 
    29   12   31 1 
    30   12   32 1 
    31   13   14 ar
    32   13   15 ar
@<TRIPOS>SUBSTRUCTURE
1 MOL         1
@<TRIPOS>MOLECULE
query molecule
   32    32     1     0     0
SMALL
NO_CHARGE

@<TRIPOS>ATOM
      1 C          -3.5266  -36.6389  -10.5077 C.3       1 MOL     0.0072
      2 C          -4.8281  -37.4435  -10.7516 C.3       1 MOL    -0.0128
      3 C          -5.5223  -37.0141  -12.0713 C.3       1 MOL     0.0072
      4 C          -4.5789  -38.9744  -10.7335 C.3       1 MOL     0.0379
      5 C          -5.8041  -39.6764  -10.2596 C.ar      1 MOL    -0.0471
      6 C          -5.9998  -39.8700   -8.8903 C.ar      1 MOL     0.0037
      7 C          -7.1518  -40.5090   -8.4345 C.ar      1 MOL     0.0044
      8 C          -8.1328  -40.9561   -9.3278 C.ar      1 MOL    -0.0391
      9 C          -7.9156  -40.7776  -10.7081 C.ar      1 MOL     0.0044
     10 C          -6.7564  -40.1462  -11.1719 C.ar      1 MOL     0.0037
     11 C          -9.3936  -41.6395   -8.8876 C.3       1 MOL     0.0614
     12 C          -8.9823  -42.9819   -8.2488 C.3       1 MOL     0.0185
     13 C         -10.2104  -40.8118   -7.8996 C.2       1 MOL     0.0489
     14 O          -9.7023  -40.6248   -6.7594 O.co2     1 MOL    -0.5492
     15 O         -11.3532  -40.4064   -8.2620 O.co2     1 MOL    -0.5492
     16 H          -3.7355  -35.5475  -10.5133 H         1 MOL     0.0232
     17 H          -2.7827  -36.8572  -11.3027 H         1 MOL     0.0232
     18 H          -3.0804  -36.9040   -9.5256 H         1 MOL     0.0232
     19 H          -5.5273  -37.2000   -9.9105 H         1 MOL     0.0299
     20 H          -4.8728  -37.2558  -12.9392 H         1 MOL     0.0232
     21 H          -5.7275  -35.9248  -12.0685 H         1 MOL     0.0232
     22 H          -6.4831  -37.5584  -12.1869 H         1 MOL     0.0232
     23 H          -3.7527  -39.2314  -10.0379 H         1 MOL     0.0316
     24 H          -4.3362  -39.3400  -11.7494 H         1 MOL     0.0316
     25 H          -5.2564  -39.5208   -8.1901 H         1 MOL     0.0620
     26 H          -7.2909  -40.6591   -7.3713 H         1 MOL     0.0621
     27 H          -8.6469  -41.1358  -11.4202 H         1 MOL     0.0621
     28 H          -6.5977  -40.0178  -12.2333 H         1 MOL     0.0620
     29 H         -10.0230  -41.8633   -9.7767 H         1 MOL     0.0406
     30 H          -8.3041  -42.8181   -7.3834 H         1 MOL     0.0239
     31 H          -8.4494  -43.6043   -8.9981 H         1 MOL     0.0239
     32 H          -9.8795  -43.5317   -7.9005 H         1 MOL     0.0239
@<TRIPOS>BOND
     1    1    2 1 
     2    1   16 1 
     3    1   17 1 
     4    1   18 1 
     5    2    3 1 
     6    2    4 1 
     7    2   19 1 
     8    3   20 1 
     9    3   21 1 
    10    3   22 1 
    11    4    5 1 
    12    4   23 1 
    13    4   24 1 
    14    5    6 ar
    15    5   10 ar
    16    6    7 ar
    17    6   25 1 
    18    7    8 ar
    19    7   26 1 
    20    8    9 ar
    21    8   11 1 
    22    9   10 ar
    23    9   27 1 
    24   10   28 1 
    25   11   12 1 
    26   11   13 1 
    27   11   29 1 
    28   12   30 1 
    29   12   31 1 
    30   12   32 1 
    31   13   14 ar
    32   13   15 ar
@<TRIPOS>SUBSTRUCTURE
1 MOL         1
@<TRIPOS>MOLECULE
query molecule
   32    32     1     0     0
SMALL
NO_CHARGE

@<TRIPOS>ATOM
      1 C         -63.0221  -42.2105  -10.2137 C.3       1 MOL     0.0072
      2 C         -63.4753  -42.6194   -8.7856 C.3       1 MOL    -0.0128
      3 C         -64.9786  -42.2745   -8.5986 C.3       1 MOL     0.0072
      4 C         -63.1353  -44.0993   -8.4458 C.3       1 MOL     0.0379
      5 C         -63.4971  -44.4144   -7.0299 C.ar      1 MOL    -0.0471
      6 C         -64.7800  -44.9027   -6.7496 C.ar      1 MOL     0.0037
      7 C         -65.1664  -45.1663   -5.4377 C.ar      1 MOL     0.0044
      8 C         -64.2779  -44.9607   -4.3724 C.ar      1 MOL    -0.0391
      9 C         -62.9790  -44.5063   -4.6597 C.ar      1 MOL     0.0044
     10 C         -62.5887  -44.2316   -5.9803 C.ar      1 MOL     0.0037
     11 C         -64.7004  -45.2120   -2.9510 C.3       1 MOL     0.0614
     12 C         -65.7615  -44.1734   -2.5434 C.3       1 MOL     0.0185
     13 C         -65.3025  -46.6069   -2.8273 C.2       1 MOL     0.0489
     14 O         -64.4581  -47.5278   -2.6544 O.co2     1 MOL    -0.5492
     15 O         -66.5505  -46.7775   -2.9355 O.co2     1 MOL    -0.5492
     16 H         -63.2463  -41.1348  -10.3849 H         1 MOL     0.0232
     17 H         -63.5511  -42.8066  -10.9849 H         1 MOL     0.0232
     18 H         -61.9287  -42.3613  -10.3314 H         1 MOL     0.0232
     19 H         -62.8951  -41.9782   -8.0722 H         1 MOL     0.0299
     20 H         -65.6086  -42.9106   -9.2553 H         1 MOL     0.0232
     21 H         -65.1652  -41.2098   -8.8546 H         1 MOL     0.0232
     22 H         -65.2844  -42.4428   -7.5447 H         1 MOL     0.0232
     23 H         -62.0478  -44.2869   -8.5612 H         1 MOL     0.0316
     24 H         -63.7003  -44.7883   -9.1075 H         1 MOL     0.0316
     25 H         -65.4790  -45.0686   -7.5568 H         1 MOL     0.0620
     26 H         -66.1640  -45.5304   -5.2352 H         1 MOL     0.0621
     27 H         -62.2734  -44.3576   -3.8536 H         1 MOL     0.0621
     28 H         -61.5901  -43.8739   -6.1850 H         1 MOL     0.0620
     29 H         -63.8228  -45.1071   -2.2691 H         1 MOL     0.0406
     30 H         -66.6416  -44.2665   -3.2155 H         1 MOL     0.0239
     31 H         -65.3668  -43.1410   -2.6156 H         1 MOL     0.0239
     32 H         -66.0963  -44.3601   -1.5019 H         1 MOL     0.0239
@<TRIPOS>BOND
     1    1    2 1 
     2    1   16 1 
     3    1   17 1 
     4    1   18 1 
     5    2    3 1 
     6    2    4 1 
     7    2   19 1 
     8    3   20 1 
     9    3   21 1 
    10    3   22 1 
    11    4    5 1 
    12    4   23 1 
    13    4   24 1 
    14    5    6 ar
    15    5   10 ar
    16    6    7 ar
    17    6   25 1 
    18    7    8 ar
    19    7   26 1 
    20    8    9 ar
    21    8   11 1 
    22    9   10 ar
    23    9   27 1 
    24   10   28 1 
    25   11   12 1 
    26   11   13 1 
    27   11   29 1 
    28   12   30 1 
    29   12   31 1 
    30   12   32 1 
    31   13   14 ar
    32   13   15 ar
@<TRIPOS>SUBSTRUCTURE
1 MOL         1
@<TRIPOS>MOLECULE
query molecule
   32    32     1     0     0
SMALL
NO_CHARGE

@<TRIPOS>ATOM
      1 C         -13.5173  -61.1341   -1.0108 C.3       1 MOL     0.0072
      2 C         -13.5222  -60.0788    0.1316 C.3       1 MOL    -0.0128
      3 C         -12.3444  -60.3422    1.1049 C.3       1 MOL     0.0072
      4 C         -13.5503  -58.6562   -0.4686 C.3       1 MOL     0.0379
      5 C         -13.6607  -57.5518    0.5127 C.ar      1 MOL    -0.0471
      6 C         -13.0671  -56.3400    0.1456 C.ar      1 MOL     0.0037
      7 C         -13.0777  -55.2475    1.0008 C.ar      1 MOL     0.0044
      8 C         -13.6801  -55.3319    2.2574 C.ar      1 MOL    -0.0391
      9 C         -14.3243  -56.5374    2.6104 C.ar      1 MOL     0.0044
     10 C         -14.3090  -57.6383    1.7420 C.ar      1 MOL     0.0037
     11 C         -13.6265  -54.2189    3.2557 C.3       1 MOL     0.0614
     12 C         -12.3787  -54.5513    4.1058 C.3       1 MOL     0.0185
     13 C         -13.4759  -52.8048    2.6592 C.2       1 MOL     0.0489
     14 O         -14.0608  -52.5579    1.5660 O.co2     1 MOL    -0.5492
     15 O         -12.7732  -51.9759    3.3339 O.co2     1 MOL    -0.5492
     16 H         -13.5976  -62.1604   -0.5978 H         1 MOL     0.0232
     17 H         -12.5793  -61.0598   -1.6003 H         1 MOL     0.0232
     18 H         -14.3751  -60.9608   -1.6956 H         1 MOL     0.0232
     19 H         -14.4742  -60.2130    0.7055 H         1 MOL     0.0299
     20 H         -11.3746  -60.2350    0.5769 H         1 MOL     0.0232
     21 H         -12.4144  -61.3710    1.5172 H         1 MOL     0.0232
     22 H         -12.3756  -59.6201    1.9473 H         1 MOL     0.0232
     23 H         -14.4169  -58.5653   -1.1628 H         1 MOL     0.0316
     24 H         -12.6165  -58.4874   -1.0539 H         1 MOL     0.0316
     25 H         -12.5837  -56.2559   -0.8191 H         1 MOL     0.0620
     26 H         -12.6046  -54.3262    0.6902 H         1 MOL     0.0621
     27 H         -14.8230  -56.6151    3.5670 H         1 MOL     0.0621
     28 H         -14.7961  -58.5578    2.0279 H         1 MOL     0.0620
     29 H         -14.5311  -54.2516    3.9047 H         1 MOL     0.0406
     30 H         -11.4647  -54.4548    3.4827 H         1 MOL     0.0239
     31 H         -12.4252  -55.5879    4.5073 H         1 MOL     0.0239
     32 H         -12.2913  -53.8516    4.9694 H         1 MOL     0.0239
@<TRIPOS>BOND
     1    1    2 1 
     2    1   16 1 
     3    1   17 1 
     4    1   18 1 
     5    2    3 1 
     6    2    4 1 
     7    2   19 1 
     8    3   20 1 
     9    3   21 1 
    10    3   22 1 
    11    4    5 1 
    12    4   23 1 
    13    4   24 1 
    14    5    6 ar
    15    5   10 ar
    16    6    7 ar
    17    6   25 1 
    18    7    8 ar
    19    7   26 1 
    20    8    9 ar
    21    8   11 1 
    22    9   10 ar
    23    9   27 1 
    24   10   28 1 
    25   11   12 1 
    26   11   13 1 
    27   11   29 1 
    28   12   30 1 
    29   12   31 1 
    30   12   32 1 
    31   13   14 ar
    32   13   15 ar
@<TRIPOS>SUBSTRUCTURE
1 MOL         1
@<TRIPOS>MOLECULE
query molecule
   32    32     1     0     0
SMALL
NO_CHARGE

@<TRIPOS>ATOM
      1 C         -38.4934  -68.7927   18.2411 C.3       1 MOL     0.0072
      2 C         -38.6316  -67.9967   19.5650 C.3       1 MOL    -0.0128
      3 C         -37.2489  -67.7711   20.2331 C.3       1 MOL     0.0072
      4 C         -39.3735  -66.6558   19.3676 C.3       1 MOL     0.0379
      5 C         -40.8469  -66.8102   19.5044 C.ar      1 MOL    -0.0471
      6 C         -41.4281  -66.8047   20.7780 C.ar      1 MOL     0.0037
      7 C         -42.8085  -66.9617   20.9224 C.ar      1 MOL     0.0044
      8 C         -43.6310  -67.1098   19.7985 C.ar      1 MOL    -0.0391
      9 C         -43.0453  -67.0852   18.5206 C.ar      1 MOL     0.0044
     10 C         -41.6627  -66.9438   18.3785 C.ar      1 MOL     0.0037
     11 C         -45.1084  -67.3186   19.8910 C.3       1 MOL     0.0614
     12 C         -45.3567  -68.7876   20.3074 C.3       1 MOL     0.0185
     13 C         -45.7940  -66.3818   20.8859 C.2       1 MOL     0.0489
     14 O         -45.6873  -66.6464   22.1184 O.co2     1 MOL    -0.5492
     15 O         -46.4309  -65.4241   20.3634 O.co2     1 MOL    -0.5492
     16 H         -37.9930  -69.7668   18.4256 H         1 MOL     0.0232
     17 H         -37.8848  -68.2185   17.5097 H         1 MOL     0.0232
     18 H         -39.4911  -68.9861   17.7948 H         1 MOL     0.0232
     19 H         -39.2392  -68.6133   20.2740 H         1 MOL     0.0299
     20 H         -36.6010  -67.1458   19.5846 H         1 MOL     0.0232
     21 H         -36.7440  -68.7451   20.4053 H         1 MOL     0.0232
     22 H         -37.3725  -67.2594   21.2104 H         1 MOL     0.0232
     23 H         -39.1493  -66.2171   18.3762 H         1 MOL     0.0316
     24 H         -39.0578  -65.9390   20.1576 H         1 MOL     0.0316
     25 H         -40.8044  -66.6857   21.6517 H         1 MOL     0.0620
     26 H         -43.2463  -66.9687   21.9107 H         1 MOL     0.0621
     27 H         -43.6660  -67.1868   17.6417 H         1 MOL     0.0621
     28 H         -41.2216  -66.9407   17.3918 H         1 MOL     0.0620
     29 H         -45.5666  -67.1723   18.8818 H         1 MOL     0.0406
     30 H         -44.8782  -68.9899   21.2900 H         1 MOL     0.0239
     31 H         -44.9327  -69.4914   19.5595 H         1 MOL     0.0239
     32 H         -46.4460  -68.9832   20.3990 H         1 MOL     0.0239
@<TRIPOS>BOND
     1    1    2 1 
     2    1   16 1 
     3    1   17 1 
     4    1   18 1 
     5    2    3 1 
     6    2    4 1 
     7    2   19 1 
     8    3   20 1 
     9    3   21 1 
    10    3   22 1 
    11    4    5 1 
    12    4   23 1 
    13    4   24 1 
    14    5    6 ar
    15    5   10 ar
    16    6    7 ar
    17    6   25 1 
    18    7    8 ar
    19    7   26 1 
    20    8    9 ar
    21    8   11 1 
    22    9   10 ar
    23    9   27 1 
    24   10   28 1 
    25   11   12 1 
    26   11   13 1 
    27   11   29 1 
    28   12   30 1 
    29   12   31 1 
    30   12   32 1 
    31   13   14 ar
    32   13   15 ar
@<TRIPOS>SUBSTRUCTURE
1 MOL         1
@<TRIPOS>MOLECULE
query molecule
   32    32     1     0     0
SMALL
NO_CHARGE

@<TRIPOS>ATOM
      1 C         -47.9592  -51.0031   22.6451 C.3       1 MOL     0.0072
      2 C         -49.2092  -50.2235   22.1772 C.3       1 MOL    -0.0128
      3 C         -50.3317  -51.1989   21.7464 C.3       1 MOL     0.0072
      4 C         -49.6785  -49.2290   23.2633 C.3       1 MOL     0.0379
      5 C         -50.4408  -48.1028   22.6537 C.ar      1 MOL    -0.0471
      6 C         -49.7633  -46.9618   22.2072 C.ar      1 MOL     0.0037
      7 C         -50.4785  -45.8931   21.6662 C.ar      1 MOL     0.0044
      8 C         -51.8828  -45.9488   21.5499 C.ar      1 MOL    -0.0391
      9 C         -52.5485  -47.0990   22.0004 C.ar      1 MOL     0.0044
     10 C         -51.8348  -48.1689   22.5454 C.ar      1 MOL     0.0037
     11 C         -52.6085  -44.7833   20.9444 C.3       1 MOL     0.0614
     12 C         -53.6011  -45.2835   19.8747 C.3       1 MOL     0.0185
     13 C         -53.3996  -44.0019   21.9958 C.2       1 MOL     0.0489
     14 O         -54.3289  -44.6079   22.5985 O.co2     1 MOL    -0.5492
     15 O         -53.0400  -42.8011   22.1608 O.co2     1 MOL    -0.5492
     16 H         -47.6005  -51.6746   21.8368 H         1 MOL     0.0232
     17 H         -48.1962  -51.6264   23.5328 H         1 MOL     0.0232
     18 H         -47.1390  -50.3058   22.9130 H         1 MOL     0.0232
     19 H         -48.9027  -49.6219   21.2849 H         1 MOL     0.0299
     20 H         -50.6511  -51.8342   22.5975 H         1 MOL     0.0232
     21 H         -49.9646  -51.8583   20.9304 H         1 MOL     0.0232
     22 H         -51.2106  -50.6365   21.3686 H         1 MOL     0.0232
     23 H         -48.8015  -48.7837   23.7817 H         1 MOL     0.0316
     24 H         -50.3275  -49.7277   24.0100 H         1 MOL     0.0316
     25 H         -48.6867  -46.9054   22.2841 H         1 MOL     0.0620
     26 H         -49.9525  -45.0129   21.3206 H         1 MOL     0.0621
     27 H         -53.6260  -47.1583   21.9301 H         1 MOL     0.0621
     28 H         -52.3580  -49.0491   22.8903 H         1 MOL     0.0620
     29 H         -51.8699  -44.0888   20.4756 H         1 MOL     0.0406
     30 H         -54.3982  -45.8945   20.3473 H         1 MOL     0.0239
     31 H         -53.0710  -45.9025   19.1220 H         1 MOL     0.0239
     32 H         -54.0714  -44.4205   19.3585 H         1 MOL     0.0239
@<TRIPOS>BOND
     1    1    2 1 
     2    1   16 1 
     3    1   17 1 
     4    1   18 1 
     5    2    3 1 
     6    2    4 1 
     7    2   19 1 
     8    3   20 1 
     9    3   21 1 
    10    3   22 1 
    11    4    5 1 
    12    4   23 1 
    13    4   24 1 
    14    5    6 ar
    15    5   10 ar
    16    6    7 ar
    17    6   25 1 
    18    7    8 ar
    19    7   26 1 
    20    8    9 ar
    21    8   11 1 
    22    9   10 ar
    23    9   27 1 
    24   10   28 1 
    25   11   12 1 
    26   11   13 1 
    27   11   29 1 
    28   12   30 1 
    29   12   31 1 
    30   12   32 1 
    31   13   14 ar
    32   13   15 ar
@<TRIPOS>SUBSTRUCTURE
1 MOL         1
@<TRIPOS>MOLECULE
query molecule
   32    32     1     0     0
SMALL
NO_CHARGE

@<TRIPOS>ATOM
      1 C         -41.2773  -41.6451   25.0322 C.3       1 MOL     0.0072
      2 C         -39.8189  -42.1737   24.9657 C.3       1 MOL    -0.0128
      3 C         -39.5471  -43.1929   26.1048 C.3       1 MOL     0.0072
      4 C         -39.5069  -42.7395   23.5562 C.3       1 MOL     0.0379
      5 C         -38.0463  -42.7303   23.2801 C.ar      1 MOL    -0.0471
      6 C         -37.3442  -41.5182   23.2295 C.ar      1 MOL     0.0037
      7 C         -35.9704  -41.5143   22.9707 C.ar      1 MOL     0.0044
      8 C         -35.2757  -42.7224   22.7776 C.ar      1 MOL    -0.0391
      9 C         -35.9905  -43.9278   22.8101 C.ar      1 MOL     0.0044
     10 C         -37.3682  -43.9356   23.0611 C.ar      1 MOL     0.0037
     11 C         -33.8065  -42.6386   22.5233 C.3       1 MOL     0.0614
     12 C         -33.0120  -43.3028   23.6585 C.3       1 MOL     0.0185
     13 C         -33.4508  -43.2822   21.1908 C.2       1 MOL     0.0489
     14 O         -33.3564  -42.4717   20.2308 O.co2     1 MOL    -0.5492
     15 O         -33.2809  -44.5338   21.1589 O.co2     1 MOL    -0.5492
     16 H         -41.4841  -41.1931   26.0251 H         1 MOL     0.0232
     17 H         -41.9934  -42.4773   24.8668 H         1 MOL     0.0232
     18 H         -41.4421  -40.8745   24.2505 H         1 MOL     0.0232
     19 H         -39.1463  -41.2926   25.1332 H         1 MOL     0.0299
     20 H         -40.2046  -44.0802   25.9895 H         1 MOL     0.0232
     21 H         -39.7554  -42.7292   27.0936 H         1 MOL     0.0232
     22 H         -38.4895  -43.5277   26.0882 H         1 MOL     0.0232
     23 H         -39.9861  -42.0980   22.7859 H         1 MOL     0.0316
     24 H         -39.8803  -43.7768   23.4574 H         1 MOL     0.0316
     25 H         -37.8706  -40.5862   23.3835 H         1 MOL     0.0620
     26 H         -35.4442  -40.5722   22.9130 H         1 MOL     0.0621
     27 H         -35.4767  -44.8600   22.6192 H         1 MOL     0.0621
     28 H         -37.9077  -44.8710   23.0857 H         1 MOL     0.0620
     29 H         -33.5031  -41.5627   22.4890 H         1 MOL     0.0406
     30 H         -33.2758  -44.3769   23.7545 H         1 MOL     0.0239
     31 H         -33.2129  -42.8012   24.6289 H         1 MOL     0.0239
     32 H         -31.9199  -43.2337   23.4569 H         1 MOL     0.0239
@<TRIPOS>BOND
     1    1    2 1 
     2    1   16 1 
     3    1   17 1 
     4    1   18 1 
     5    2    3 1 
     6    2    4 1 
     7    2   19 1 
     8    3   20 1 
     9    3   21 1 
    10    3   22 1 
    11    4    5 1 
    12    4   23 1 
    13    4   24 1 
    14    5    6 ar
    15    5   10 ar
    16    6    7 ar
    17    6   25 1 
    18    7    8 ar
    19    7   26 1 
    20    8    9 ar
    21    8   11 1 
    22    9   10 ar
    23    9   27 1 
    24   10   28 1 
    25   11   12 1 
    26   11   13 1 
    27   11   29 1 
    28   12   30 1 
    29   12   31 1 
    30   12   32 1 
    31   13   14 ar
    32   13   15 ar
@<TRIPOS>SUBSTRUCTURE
1 MOL         1
@<TRIPOS>MOLECULE
query molecule
   32    32     1     0     0
SMALL
NO_CHARGE

@<TRIPOS>ATOM
      1 C         -64.0506  -34.3340  -27.5558 C.3       1 MOL     0.0072
      2 C         -63.7380  -35.5035  -26.5804 C.3       1 MOL    -0.0128
      3 C         -62.2161  -35.6061  -26.2960 C.3       1 MOL     0.0072
      4 C         -64.5826  -35.3924  -25.2840 C.3       1 MOL     0.0379
      5 C         -64.8774  -36.7326  -24.7011 C.ar      1 MOL    -0.0471
      6 C         -65.5205  -37.7131  -25.4648 C.ar      1 MOL     0.0037
      7 C         -65.7954  -38.9651  -24.9166 C.ar      1 MOL     0.0044
      8 C         -65.4236  -39.2726  -23.6007 C.ar      1 MOL    -0.0391
      9 C         -64.8086  -38.2729  -22.8261 C.ar      1 MOL     0.0044
     10 C         -64.5368  -37.0115  -23.3726 C.ar      1 MOL     0.0037
     11 C         -65.6654  -40.6158  -22.9878 C.3       1 MOL     0.0614
     12 C         -67.1765  -40.7697  -22.7328 C.3       1 MOL     0.0185
     13 C         -65.2088  -41.7815  -23.8638 C.2       1 MOL     0.0489
     14 O         -64.3989  -42.5720  -23.2911 O.co2     1 MOL    -0.5492
     15 O         -65.6637  -41.8883  -25.0367 O.co2     1 MOL    -0.5492
     16 H         -63.5134  -34.4748  -28.5176 H         1 MOL     0.0232
     17 H         -63.7378  -33.3651  -27.1135 H         1 MOL     0.0232
     18 H         -65.1408  -34.2907  -27.7662 H         1 MOL     0.0232
     19 H         -64.0504  -36.4431  -27.1019 H         1 MOL     0.0299
     20 H         -61.8587  -34.6837  -25.7900 H         1 MOL     0.0232
     21 H         -61.6539  -35.7263  -27.2469 H         1 MOL     0.0232
     22 H         -62.0013  -36.4764  -25.6440 H         1 MOL     0.0232
     23 H         -65.5644  -34.9246  -25.5218 H         1 MOL     0.0316
     24 H         -64.0627  -34.7780  -24.5241 H         1 MOL     0.0316
     25 H         -65.8000  -37.5005  -26.4858 H         1 MOL     0.0620
     26 H         -66.2927  -39.7125  -25.5209 H         1 MOL     0.0621
     27 H         -64.5435  -38.4738  -21.7976 H         1 MOL     0.0621
     28 H         -64.0601  -36.2506  -22.7711 H         1 MOL     0.0620
     29 H         -65.1410  -40.6872  -22.0053 H         1 MOL     0.0406
     30 H         -67.7379  -40.6455  -23.6822 H         1 MOL     0.0239
     31 H         -67.5229  -40.0005  -22.0113 H         1 MOL     0.0239
     32 H         -67.3980  -41.7739  -22.3150 H         1 MOL     0.0239
@<TRIPOS>BOND
     1    1    2 1 
     2    1   16 1 
     3    1   17 1 
     4    1   18 1 
     5    2    3 1 
     6    2    4 1 
     7    2   19 1 
     8    3   20 1 
     9    3   21 1 
    10    3   22 1 
    11    4    5 1 
    12    4   23 1 
    13    4   24 1 
    14    5    6 ar
    15    5   10 ar
    16    6    7 ar
    17    6   25 1 
    18    7    8 ar
    19    7   26 1 
    20    8    9 ar
    21    8   11 1 
    22    9   10 ar
    23    9   27 1 
    24   10   28 1 
    25   11   12 1 
    26   11   13 1 
    27   11   29 1 
    28   12   30 1 
    29   12   31 1 
    30   12   32 1 
    31   13   14 ar
    32   13   15 ar
@<TRIPOS>SUBSTRUCTURE
1 MOL         1
@<TRIPOS>MOLECULE
query molecule
   32    32     1     0     0
SMALL
NO_CHARGE

@<TRIPOS>ATOM
      1 C         -32.0267  -34.4652  -20.6575 C.3       1 MOL     0.0072
      2 C         -30.7866  -34.2882  -19.7409 C.3       1 MOL    -0.0128
      3 C         -29.5952  -35.1308  -20.2697 C.3       1 MOL     0.0072
      4 C         -30.4377  -32.7889  -19.5551 C.3       1 MOL     0.0379
      5 C         -29.9627  -32.5138  -18.1696 C.ar      1 MOL    -0.0471
      6 C         -30.8791  -32.2181  -17.1498 C.ar      1 MOL     0.0037
      7 C         -30.4282  -31.9726  -15.8475 C.ar      1 MOL     0.0044
      8 C         -29.0594  -32.0093  -15.5545 C.ar      1 MOL    -0.0391
      9 C         -28.1454  -32.2820  -16.5851 C.ar      1 MOL     0.0044
     10 C         -28.5935  -32.5350  -17.8837 C.ar      1 MOL     0.0037
     11 C         -28.5147  -31.7611  -14.1856 C.3       1 MOL     0.0614
     12 C         -28.7099  -30.2730  -13.8394 C.3       1 MOL     0.0185
     13 C         -29.1862  -32.6631  -13.1455 C.2       1 MOL     0.0489
     14 O         -28.7634  -33.8532  -13.1443 O.co2     1 MOL    -0.5492
     15 O         -30.0655  -32.1578  -12.3869 O.co2     1 MOL    -0.5492
     16 H         -32.3024  -35.5377  -20.7331 H         1 MOL     0.0232
     17 H         -31.8067  -34.0837  -21.6770 H         1 MOL     0.0232
     18 H         -32.8923  -33.9030  -20.2490 H         1 MOL     0.0232
     19 H         -31.0696  -34.6908  -18.7338 H         1 MOL     0.0299
     20 H         -29.2954  -34.7748  -21.2777 H         1 MOL     0.0232
     21 H         -29.8882  -36.1994  -20.3493 H         1 MOL     0.0232
     22 H         -28.7215  -35.0513  -19.5909 H         1 MOL     0.0232
     23 H         -31.3476  -32.1686  -19.7113 H         1 MOL     0.0316
     24 H         -29.6527  -32.4725  -20.2695 H         1 MOL     0.0316
     25 H         -31.9367  -32.1864  -17.3686 H         1 MOL     0.0620
     26 H         -31.1398  -31.7541  -15.0649 H         1 MOL     0.0621
     27 H         -27.0857  -32.2964  -16.3751 H         1 MOL     0.0621
     28 H         -27.8833  -32.7475  -18.6699 H         1 MOL     0.0620
     29 H         -27.4155  -31.9652  -14.1749 H         1 MOL     0.0406
     30 H         -29.7891  -30.0118  -13.8439 H         1 MOL     0.0239
     31 H         -28.1852  -29.6276  -14.5747 H         1 MOL     0.0239
     32 H         -28.2989  -30.0591  -12.8288 H         1 MOL     0.0239
@<TRIPOS>BOND
     1    1    2 1 
     2    1   16 1 
     3    1   17 1 
     4    1   18 1 
     5    2    3 1 
     6    2    4 1 
     7    2   19 1 
     8    3   20 1 
     9    3   21 1 
    10    3   22 1 
    11    4    5 1 
    12    4   23 1 
    13    4   24 1 
    14    5    6 ar
    15    5   10 ar
    16    6    7 ar
    17    6   25 1 
    18    7    8 ar
    19    7   26 1 
    20    8    9 ar
    21    8   11 1 
    22    9   10 ar
    23    9   27 1 
    24   10   28 1 
    25   11   12 1 
    26   11   13 1 
    27   11   29 1 
    28   12   30 1 
    29   12   31 1 
    30   12   32 1 
    31   13   14 ar
    32   13   15 ar
@<TRIPOS>SUBSTRUCTURE
1 MOL         1
@<TRIPOS>MOLECULE
query molecule
   32    32     1     0     0
SMALL
NO_CHARGE

@<TRIPOS>ATOM
      1 C         -55.0444  -62.4723  -23.2191 C.3       1 MOL     0.0072
      2 C         -56.3396  -62.0601  -22.4674 C.3       1 MOL    -0.0128
      3 C         -57.2065  -61.1414  -23.3686 C.3       1 MOL     0.0072
      4 C         -57.1051  -63.3088  -21.9668 C.3       1 MOL     0.0379
      5 C         -57.9045  -63.0317  -20.7436 C.ar      1 MOL    -0.0471
      6 C         -57.3413  -63.2705  -19.4863 C.ar      1 MOL     0.0037
      7 C         -58.0880  -63.0279  -18.3285 C.ar      1 MOL     0.0044
      8 C         -59.4029  -62.5366  -18.4027 C.ar      1 MOL    -0.0391
      9 C         -59.9618  -62.3263  -19.6721 C.ar      1 MOL     0.0044
     10 C         -59.2192  -62.5644  -20.8316 C.ar      1 MOL     0.0037
     11 C         -60.1427  -62.2502  -17.1308 C.3       1 MOL     0.0614
     12 C         -61.0494  -61.0141  -17.2767 C.3       1 MOL     0.0185
     13 C         -61.0527  -63.4106  -16.7315 C.2       1 MOL     0.0489
     14 O         -61.7247  -63.9757  -17.6349 O.co2     1 MOL    -0.5492
     15 O         -61.0671  -63.6605  -15.4895 O.co2     1 MOL    -0.5492
     16 H         -54.4672  -61.5737  -23.5219 H         1 MOL     0.0232
     17 H         -55.2985  -63.0536  -24.1307 H         1 MOL     0.0232
     18 H         -54.4030  -63.1012  -22.5666 H         1 MOL     0.0232
     19 H         -56.0260  -61.4702  -21.5693 H         1 MOL     0.0299
     20 H         -57.4998  -61.6796  -24.2951 H         1 MOL     0.0232
     21 H         -56.6339  -60.2345  -23.6582 H         1 MOL     0.0232
     22 H         -58.1264  -60.8240  -22.8363 H         1 MOL     0.0232
     23 H         -56.3740  -64.1013  -21.6911 H         1 MOL     0.0316
     24 H         -57.7836  -63.6967  -22.7517 H         1 MOL     0.0316
     25 H         -56.3282  -63.6372  -19.4065 H         1 MOL     0.0620
     26 H         -57.6437  -63.2169  -17.3616 H         1 MOL     0.0621
     27 H         -60.9811  -61.9736  -19.7521 H         1 MOL     0.0621
     28 H         -59.6643  -62.3893  -21.7999 H         1 MOL     0.0620
     29 H         -59.4225  -62.0714  -16.2962 H         1 MOL     0.0406
     30 H         -61.7402  -61.1452  -18.1354 H         1 MOL     0.0239
     31 H         -60.4275  -60.1108  -17.4642 H         1 MOL     0.0239
     32 H         -61.6449  -60.8432  -16.3574 H         1 MOL     0.0239
@<TRIPOS>BOND
     1    1    2 1 
     2    1   16 1 
     3    1   17 1 
     4    1   18 1 
     5    2    3 1 
     6    2    4 1 
     7    2   19 1 
     8    3   20 1 
     9    3   21 1 
    10    3   22 1 
    11    4    5 1 
    12    4   23 1 
    13    4   24 1 
    14    5    6 ar
    15    5   10 ar
    16    6    7 ar
    17    6   25 1 
    18    7    8 ar
    19    7   26 1 
    20    8    9 ar
    21    8   11 1 
    22    9   10 ar
    23    9   27 1 
    24   10   28 1 
    25   11   12 1 
    26   11   13 1 
    27   11   29 1 
    28   12   30 1 
    29   12   31 1 
    30   12   32 1 
    31   13   14 ar
    32   13   15 ar
@<TRIPOS>SUBSTRUCTURE
1 MOL         1
@<TRIPOS>MOLECULE
query molecule
   32    32     1     0     0
SMALL
NO_CHARGE

@<TRIPOS>ATOM
      1 C         -46.2939  -29.2846  -11.0766 C.3       1 MOL     0.0072
      2 C         -47.5159  -29.3056  -10.1188 C.3       1 MOL    -0.0128
      3 C         -47.2804  -28.3464   -8.9195 C.3       1 MOL     0.0072
      4 C         -48.8216  -29.0038  -10.8966 C.3       1 MOL     0.0379
      5 C         -50.0291  -29.4699  -10.1610 C.ar      1 MOL    -0.0471
      6 C         -50.5721  -28.7179   -9.1090 C.ar      1 MOL     0.0037
      7 C         -51.7074  -29.1798   -8.4388 C.ar      1 MOL     0.0044
      8 C         -52.3209  -30.3839   -8.8214 C.ar      1 MOL    -0.0391
      9 C         -51.7773  -31.1274   -9.8770 C.ar      1 MOL     0.0044
     10 C         -50.6370  -30.6736  -10.5438 C.ar      1 MOL     0.0037
     11 C         -53.5476  -30.8155   -8.0769 C.3       1 MOL     0.0614
     12 C         -54.7293  -30.8759   -9.0654 C.3       1 MOL     0.0185
     13 C         -53.3152  -32.1742   -7.4146 C.2       1 MOL     0.0489
     14 O         -52.5303  -32.1539   -6.4183 O.co2     1 MOL    -0.5492
     15 O         -53.9061  -33.1921   -7.8890 O.co2     1 MOL    -0.5492
     16 H         -45.3664  -29.5466  -10.5257 H         1 MOL     0.0232
     17 H         -46.1700  -28.2703  -11.5127 H         1 MOL     0.0232
     18 H         -46.4360  -30.0108  -11.9031 H         1 MOL     0.0232
     19 H         -47.5985  -30.3454   -9.7121 H         1 MOL     0.0299
     20 H         -47.1831  -27.2992   -9.2771 H         1 MOL     0.0232
     21 H         -46.3536  -28.6212   -8.3743 H         1 MOL     0.0232
     22 H         -48.1351  -28.3969   -8.2118 H         1 MOL     0.0232
     23 H         -48.8084  -29.5490  -11.8667 H         1 MOL     0.0316
     24 H         -48.9249  -27.9182  -11.0923 H         1 MOL     0.0316
     25 H         -50.1098  -27.7889   -8.8143 H         1 MOL     0.0620
     26 H         -52.1176  -28.6034   -7.6215 H         1 MOL     0.0621
     27 H         -52.2463  -32.0529  -10.1786 H         1 MOL     0.0621
     28 H         -50.2263  -31.2494  -11.3606 H         1 MOL     0.0620
     29 H         -53.7875  -30.0642   -7.2854 H         1 MOL     0.0406
     30 H         -54.5277  -31.6387   -9.8471 H         1 MOL     0.0239
     31 H         -54.8813  -29.8937   -9.5586 H         1 MOL     0.0239
     32 H         -55.6627  -31.1548   -8.5328 H         1 MOL     0.0239
@<TRIPOS>BOND
     1    1    2 1 
     2    1   16 1 
     3    1   17 1 
     4    1   18 1 
     5    2    3 1 
     6    2    4 1 
     7    2   19 1 
     8    3   20 1 
     9    3   21 1 
    10    3   22 1 
    11    4    5 1 
    12    4   23 1 
    13    4   24 1 
    14    5    6 ar
    15    5   10 ar
    16    6    7 ar
    17    6   25 1 
    18    7    8 ar
    19    7   26 1 
    20    8    9 ar
    21    8   11 1 
    22    9   10 ar
    23    9   27 1 
    24   10   28 1 
    25   11   12 1 
    26   11   13 1 
    27   11   29 1 
    28   12   30 1 
    29   12   31 1 
    30   12   32 1 
    31   13   14 ar
    32   13   15 ar
@<TRIPOS>SUBSTRUCTURE
1 MOL         1
@<TRIPOS>MOLECULE
query molecule
   32    32     1     0     0
SMALL
NO_CHARGE

@<TRIPOS>ATOM
      1 C         -39.3308  -59.0716    3.9523 C.3       1 MOL     0.0072
      2 C         -39.0170  -57.8917    4.9015 C.3       1 MOL    -0.0128
      3 C         -37.5199  -57.5077    4.8602 C.3       1 MOL     0.0072
      4 C         -39.9490  -56.6813    4.6599 C.3       1 MOL     0.0379
      5 C         -40.4862  -56.0956    5.9225 C.ar      1 MOL    -0.0471
      6 C         -40.2145  -56.6233    7.1882 C.ar      1 MOL     0.0037
      7 C         -40.7506  -56.0413    8.3345 C.ar      1 MOL     0.0044
      8 C         -41.5779  -54.9133    8.2441 C.ar      1 MOL    -0.0391
      9 C         -41.8564  -54.3866    6.9798 C.ar      1 MOL     0.0044
     10 C         -41.3131  -54.9664    5.8327 C.ar      1 MOL     0.0037
     11 C         -42.1146  -54.3281    9.5069 C.3       1 MOL     0.0614
     12 C         -42.4108  -52.8290    9.3558 C.3       1 MOL     0.0185
     13 C         -43.3930  -55.0383    9.9325 C.2       1 MOL     0.0489
     14 O         -43.2799  -55.7055   10.9986 O.co2     1 MOL    -0.5492
     15 O         -44.4198  -54.9019    9.2132 O.co2     1 MOL    -0.5492
     16 H         -38.7066  -59.9504    4.2203 H         1 MOL     0.0232
     17 H         -39.1154  -58.7904    2.9009 H         1 MOL     0.0232
     18 H         -40.3997  -59.3588    4.0345 H         1 MOL     0.0232
     19 H         -39.2382  -58.2550    5.9396 H         1 MOL     0.0299
     20 H         -37.2290  -57.1730    3.8426 H         1 MOL     0.0232
     21 H         -36.8940  -58.3818    5.1388 H         1 MOL     0.0232
     22 H         -37.3146  -56.6854    5.5770 H         1 MOL     0.0232
     23 H         -40.8300  -57.0099    4.0628 H         1 MOL     0.0316
     24 H         -39.4178  -55.8836    4.1013 H         1 MOL     0.0316
     25 H         -39.5812  -57.4963    7.2721 H         1 MOL     0.0620
     26 H         -40.5213  -56.4665    9.3018 H         1 MOL     0.0621
     27 H         -42.4983  -53.5216    6.8919 H         1 MOL     0.0621
     28 H         -41.5426  -54.5436    4.8639 H         1 MOL     0.0620
     29 H         -41.3593  -54.4540   10.3209 H         1 MOL     0.0406
     30 H         -43.1404  -52.6729    8.5348 H         1 MOL     0.0239
     31 H         -41.4779  -52.2745    9.1128 H         1 MOL     0.0239
     32 H         -42.8318  -52.4172   10.2966 H         1 MOL     0.0239
@<TRIPOS>BOND
     1    1    2 1 
     2    1   16 1 
     3    1   17 1 
     4    1   18 1 
     5    2    3 1 
     6    2    4 1 
     7    2   19 1 
     8    3   20 1 
     9    3   21 1 
    10    3   22 1 
    11    4    5 1 
    12    4   23 1 
    13    4   24 1 
    14    5    6 ar
    15    5   10 ar
    16    6    7 ar
    17    6   25 1 
    18    7    8 ar
    19    7   26 1 
    20    8    9 ar
    21    8   11 1 
    22    9   10 ar
    23    9   27 1 
    24   10   28 1 
    25   11   12 1 
    26   11   13 1 
    27   11   29 1 
    28   12   30 1 
    29   12   31 1 
    30   12   32 1 
    31   13   14 ar
    32   13   15 ar
@<TRIPOS>SUBSTRUCTURE
1 MOL         1
@<TRIPOS>MOLECULE
query molecule
   32    32     1     0     0
SMALL
NO_CHARGE

@<TRIPOS>ATOM
      1 C         -51.6422  -25.3143   17.4407 C.3       1 MOL     0.0072
      2 C         -51.3276  -26.5432   16.5447 C.3       1 MOL    -0.0128
      3 C         -52.1895  -26.5202   15.2539 C.3       1 MOL     0.0072
      4 C         -49.8097  -26.6560   16.2478 C.3       1 MOL     0.0379
      5 C         -49.4269  -28.0728   15.9873 C.ar      1 MOL    -0.0471
      6 C         -49.0641  -28.8911   17.0635 C.ar      1 MOL     0.0037
      7 C         -48.6888  -30.2144   16.8389 C.ar      1 MOL     0.0044
      8 C         -48.6643  -30.7387   15.5362 C.ar      1 MOL    -0.0391
      9 C         -49.0352  -29.9203   14.4648 C.ar      1 MOL     0.0044
     10 C         -49.4120  -28.5916   14.6879 C.ar      1 MOL     0.0037
     11 C         -48.2179  -32.1506   15.3681 C.3       1 MOL     0.0614
     12 C         -49.0684  -32.9235   14.3558 C.3       1 MOL     0.0185
     13 C         -46.7476  -32.1485   14.9858 C.2       1 MOL     0.0489
     14 O         -45.9563  -32.5309   15.8990 O.co2     1 MOL    -0.5492
     15 O         -46.4423  -31.8134   13.8106 O.co2     1 MOL    -0.5492
     16 H         -52.7257  -25.2839   17.6835 H         1 MOL     0.0232
     17 H         -51.3708  -24.3726   16.9196 H         1 MOL     0.0232
     18 H         -51.0701  -25.3716   18.3906 H         1 MOL     0.0232
     19 H         -51.6176  -27.4519   17.1321 H         1 MOL     0.0299
     20 H         -51.9476  -25.6215   14.6476 H         1 MOL     0.0232
     21 H         -53.2692  -26.4916   15.5114 H         1 MOL     0.0232
     22 H         -51.9935  -27.4242   14.6411 H         1 MOL     0.0232
     23 H         -49.2303  -26.3287   17.1394 H         1 MOL     0.0316
     24 H         -49.5205  -26.0375   15.3773 H         1 MOL     0.0316
     25 H         -49.0714  -28.4953   18.0680 H         1 MOL     0.0620
     26 H         -48.4074  -30.8410   17.6736 H         1 MOL     0.0621
     27 H         -49.0295  -30.3166   13.4590 H         1 MOL     0.0621
     28 H         -49.6924  -27.9649   13.8535 H         1 MOL     0.0620
     29 H         -48.2879  -32.6699   16.3580 H         1 MOL     0.0406
     30 H         -49.0112  -32.4474   13.3566 H         1 MOL     0.0239
     31 H         -50.1296  -32.9279   14.6876 H         1 MOL     0.0239
     32 H         -48.7209  -33.9745   14.2772 H         1 MOL     0.0239
@<TRIPOS>BOND
     1    1    2 1 
     2    1   16 1 
     3    1   17 1 
     4    1   18 1 
     5    2    3 1 
     6    2    4 1 
     7    2   19 1 
     8    3   20 1 
     9    3   21 1 
    10    3   22 1 
    11    4    5 1 
    12    4   23 1 
    13    4   24 1 
    14    5    6 ar
    15    5   10 ar
    16    6    7 ar
    17    6   25 1 
    18    7    8 ar
    19    7   26 1 
    20    8    9 ar
    21    8   11 1 
    22    9   10 ar
    23    9   27 1 
    24   10   28 1 
    25   11   12 1 
    26   11   13 1 
    27   11   29 1 
    28   12   30 1 
    29   12   31 1 
    30   12   32 1 
    31   13   14 ar
    32   13   15 ar
@<TRIPOS>SUBSTRUCTURE
1 MOL         1
