@<TRIPOS>MOLECULE
query molecule
   32    32     1     0     0
SMALL
NO_CHARGE

@<TRIPOS>ATOM
      1 C           0.1269  -53.0032    2.9744 C.3       1 MOL     0.0072
      2 C           1.1668  -53.1975    4.0378 C.3       1 MOL    -0.0128
      3 C           1.0558  -52.1406    5.0900 C.3       1 MOL     0.0072
      4 C           1.0055  -54.5643    4.6423 C.3       1 MOL     0.0379
      5 C           0.7683  -55.5888    3.5963 C.ar      1 MOL    -0.0471
      6 C           0.1247  -55.2119    2.4404 C.ar      1 MOL     0.0037
      7 C          -0.1153  -56.1213    1.4504 C.ar      1 MOL     0.0044
      8 C           0.2818  -57.4286    1.5915 C.ar      1 MOL    -0.0391
      9 C           0.9255  -57.8162    2.7404 C.ar      1 MOL     0.0044
     10 C           1.1662  -56.8963    3.7385 C.ar      1 MOL     0.0037
     11 C           0.0357  -58.4294    0.5396 C.3       1 MOL     0.0614
     12 C           0.0396  -59.8237    1.1658 C.3       1 MOL     0.0185
     13 C          -1.3043  -58.1331   -0.0469 C.2       1 MOL     0.0489
     14 O          -2.2118  -57.6552    0.6491 O.co2     1 MOL    -0.5492
     15 O          -1.5141  -58.3990   -1.3699 O.co2     1 MOL    -0.5492
     16 H           0.2379  -52.0305    2.5410 H         1 MOL     0.0232
     17 H          -0.8475  -53.0914    3.4077 H         1 MOL     0.0232
     18 H           0.2495  -53.7477    2.2162 H         1 MOL     0.0232
     19 H           2.1383  -53.1164    3.5982 H         1 MOL     0.0299
     20 H           0.0912  -52.1961    5.5502 H         1 MOL     0.0232
     21 H           1.1817  -51.1772    4.6422 H         1 MOL     0.0232
     22 H           1.8131  -52.2921    5.8303 H         1 MOL     0.0232
     23 H           0.1737  -54.5528    5.3148 H         1 MOL     0.0316
     24 H           1.9070  -54.8131    5.1620 H         1 MOL     0.0316
     25 H          -0.1802  -54.2332    2.3206 H         1 MOL     0.0620
     26 H          -0.5997  -55.8233    0.5888 H         1 MOL     0.0621
     27 H           1.2295  -58.7957    2.8573 H         1 MOL     0.0621
     28 H           1.6500  -57.1915    4.6010 H         1 MOL     0.0620
     29 H           0.7901  -58.3937   -0.2186 H         1 MOL     0.0406
     30 H          -0.7107  -59.8746    1.9272 H         1 MOL     0.0239
     31 H           0.9996  -60.0170    1.5977 H         1 MOL     0.0239
     32 H          -0.1659  -60.5538    0.4115 H         1 MOL     0.0239
@<TRIPOS>BOND
     1    1    2 1 
     2    1   16 1 
     3    1   17 1 
     4    1   18 1 
     5    2    3 1 
     6    2    4 1 
     7    2   19 1 
     8    3   20 1 
     9    3   21 1 
    10    3   22 1 
    11    4    5 1 
    12    4   23 1 
    13    4   24 1 
    14    5    6 ar
    15    5   10 ar
    16    6    7 ar
    17    6   25 1 
    18    7    8 ar
    19    7   26 1 
    20    8    9 ar
    21    8   11 1 
    22    9   10 ar
    23    9   27 1 
    24   10   28 1 
    25   11   12 1 
    26   11   13 1 
    27   11   29 1 
    28   12   30 1 
    29   12   31 1 
    30   12   32 1 
    31   13   14 ar
    32   13   15 ar
@<TRIPOS>SUBSTRUCTURE
1 MOL         1
@<TRIPOS>MOLECULE
query molecule
   32    32     1     0     0
SMALL
NO_CHARGE

@<TRIPOS>ATOM
      1 C         -40.4133  -70.2558    8.7857 C.3       1 MOL     0.0072
      2 C         -40.7624  -70.9726   10.0563 C.3       1 MOL    -0.0128
      3 C         -41.2899  -70.0169   11.0785 C.3       1 MOL     0.0072
      4 C         -41.7773  -72.0406    9.7577 C.3       1 MOL     0.0379
      5 C         -42.9560  -71.4787    9.0540 C.ar      1 MOL    -0.0471
      6 C         -43.9791  -70.9482    9.8050 C.ar      1 MOL     0.0037
      7 C         -45.0837  -70.4203    9.2001 C.ar      1 MOL     0.0044
      8 C         -45.1925  -70.4098    7.8310 C.ar      1 MOL    -0.0391
      9 C         -44.1774  -70.9359    7.0711 C.ar      1 MOL     0.0044
     10 C         -43.0635  -71.4686    7.6842 C.ar      1 MOL     0.0037
     11 C         -46.3724  -69.8468    7.1532 C.3       1 MOL     0.0614
     12 C         -47.6128  -70.6363    7.5708 C.3       1 MOL     0.0185
     13 C         -46.4966  -68.4253    7.5907 C.2       1 MOL     0.0489
     14 O         -45.6267  -67.5917    7.2992 O.co2     1 MOL    -0.5492
     15 O         -47.5902  -68.0573    8.3210 O.co2     1 MOL    -0.5492
     16 H         -39.6905  -69.4937    8.9937 H         1 MOL     0.0232
     17 H         -41.2941  -69.8091    8.3742 H         1 MOL     0.0232
     18 H         -40.0051  -70.9527    8.0843 H         1 MOL     0.0232
     19 H         -39.8805  -71.4238   10.4590 H         1 MOL     0.0299
     20 H         -42.1758  -69.5477   10.7039 H         1 MOL     0.0232
     21 H         -40.5512  -69.2707   11.2835 H         1 MOL     0.0232
     22 H         -41.5208  -70.5475   11.9784 H         1 MOL     0.0232
     23 H         -42.0980  -72.4843   10.6767 H         1 MOL     0.0316
     24 H         -41.3218  -72.7727    9.1243 H         1 MOL     0.0316
     25 H         -43.9117  -70.9499   10.8349 H         1 MOL     0.0620
     26 H         -45.8435  -70.0261    9.7773 H         1 MOL     0.0621
     27 H         -44.2475  -70.9327    6.0413 H         1 MOL     0.0621
     28 H         -42.3026  -71.8637    7.1097 H         1 MOL     0.0620
     29 H         -46.2754  -69.9016    6.0888 H         1 MOL     0.0406
     30 H         -47.7228  -70.5908    8.6344 H         1 MOL     0.0239
     31 H         -47.5038  -71.6567    7.2671 H         1 MOL     0.0239
     32 H         -48.4776  -70.2150    7.1031 H         1 MOL     0.0239
@<TRIPOS>BOND
     1    1    2 1 
     2    1   16 1 
     3    1   17 1 
     4    1   18 1 
     5    2    3 1 
     6    2    4 1 
     7    2   19 1 
     8    3   20 1 
     9    3   21 1 
    10    3   22 1 
    11    4    5 1 
    12    4   23 1 
    13    4   24 1 
    14    5    6 ar
    15    5   10 ar
    16    6    7 ar
    17    6   25 1 
    18    7    8 ar
    19    7   26 1 
    20    8    9 ar
    21    8   11 1 
    22    9   10 ar
    23    9   27 1 
    24   10   28 1 
    25   11   12 1 
    26   11   13 1 
    27   11   29 1 
    28   12   30 1 
    29   12   31 1 
    30   12   32 1 
    31   13   14 ar
    32   13   15 ar
@<TRIPOS>SUBSTRUCTURE
1 MOL         1
@<TRIPOS>MOLECULE
query molecule
   32    32     1     0     0
SMALL
NO_CHARGE

@<TRIPOS>ATOM
      1 C          -9.0539  -82.6087   -2.6196 C.3       1 MOL     0.0072
      2 C         -10.5456  -82.6636   -2.7668 C.3       1 MOL    -0.0128
      3 C         -11.1473  -81.3050   -2.5977 C.3       1 MOL     0.0072
      4 C         -10.8881  -83.2290   -4.1169 C.3       1 MOL     0.0379
      5 C         -12.3254  -83.5857   -4.2001 C.ar      1 MOL    -0.0471
      6 C         -12.7937  -84.6161   -3.4183 C.ar      1 MOL     0.0037
      7 C         -14.1093  -84.9794   -3.4623 C.ar      1 MOL     0.0044
      8 C         -14.9882  -84.3221   -4.2881 C.ar      1 MOL    -0.0391
      9 C         -14.5324  -83.2918   -5.0725 C.ar      1 MOL     0.0044
     10 C         -13.2037  -82.9273   -5.0265 C.ar      1 MOL     0.0037
     11 C         -16.4117  -84.6934   -4.3549 C.3       1 MOL     0.0614
     12 C         -17.1487  -84.0626   -3.1737 C.3       1 MOL     0.0185
     13 C         -16.9479  -84.1577   -5.6406 C.2       1 MOL     0.0489
     14 O         -17.8524  -83.3101   -5.6488 O.co2     1 MOL    -0.5492
     15 O         -16.4224  -84.6198   -6.8133 O.co2     1 MOL    -0.5492
     16 H          -8.8053  -82.2062   -1.6591 H         1 MOL     0.0232
     17 H          -8.6424  -81.9846   -3.3851 H         1 MOL     0.0232
     18 H          -8.6508  -83.5956   -2.7082 H         1 MOL     0.0232
     19 H         -10.9509  -83.2947   -2.0046 H         1 MOL     0.0299
     20 H         -10.7602  -80.6480   -3.3486 H         1 MOL     0.0232
     21 H         -10.9000  -80.9237   -1.6292 H         1 MOL     0.0232
     22 H         -12.2107  -81.3703   -2.6950 H         1 MOL     0.0232
     23 H         -10.3001  -84.1062   -4.2875 H         1 MOL     0.0316
     24 H         -10.6801  -82.4857   -4.8578 H         1 MOL     0.0316
     25 H         -12.1448  -85.1197   -2.7933 H         1 MOL     0.0620
     26 H         -14.4457  -85.7549   -2.8697 H         1 MOL     0.0621
     27 H         -15.1838  -82.7899   -5.6964 H         1 MOL     0.0621
     28 H         -12.8646  -82.1526   -5.6181 H         1 MOL     0.0620
     29 H         -16.5417  -85.7547   -4.3108 H         1 MOL     0.0406
     30 H         -17.0273  -82.9997   -3.2044 H         1 MOL     0.0239
     31 H         -16.7435  -84.4414   -2.2584 H         1 MOL     0.0239
     32 H         -18.1887  -84.3058   -3.2315 H         1 MOL     0.0239
@<TRIPOS>BOND
     1    1    2 1 
     2    1   16 1 
     3    1   17 1 
     4    1   18 1 
     5    2    3 1 
     6    2    4 1 
     7    2   19 1 
     8    3   20 1 
     9    3   21 1 
    10    3   22 1 
    11    4    5 1 
    12    4   23 1 
    13    4   24 1 
    14    5    6 ar
    15    5   10 ar
    16    6    7 ar
    17    6   25 1 
    18    7    8 ar
    19    7   26 1 
    20    8    9 ar
    21    8   11 1 
    22    9   10 ar
    23    9   27 1 
    24   10   28 1 
    25   11   12 1 
    26   11   13 1 
    27   11   29 1 
    28   12   30 1 
    29   12   31 1 
    30   12   32 1 
    31   13   14 ar
    32   13   15 ar
@<TRIPOS>SUBSTRUCTURE
1 MOL         1
@<TRIPOS>MOLECULE
query molecule
   32    32     1     0     0
SMALL
NO_CHARGE

@<TRIPOS>ATOM
      1 C          -8.7430  -77.4008   18.6922 C.3       1 MOL     0.0072
      2 C          -9.2048  -77.4727   20.1175 C.3       1 MOL    -0.0128
      3 C         -10.0374  -78.6938   20.3461 C.3       1 MOL     0.0072
      4 C          -8.0067  -77.4724   21.0253 C.3       1 MOL     0.0379
      5 C          -8.1442  -76.4536   22.0946 C.ar      1 MOL    -0.0471
      6 C          -7.4105  -75.2942   21.9967 C.ar      1 MOL     0.0037
      7 C          -7.5050  -74.3287   22.9578 C.ar      1 MOL     0.0044
      8 C          -8.3347  -74.4985   24.0392 C.ar      1 MOL    -0.0391
      9 C          -9.0722  -75.6512   24.1472 C.ar      1 MOL     0.0044
     10 C          -8.9747  -76.6245   23.1759 C.ar      1 MOL     0.0037
     11 C          -8.4555  -73.4735   25.0897 C.3       1 MOL     0.0614
     12 C          -9.9189  -73.3668   25.5179 C.3       1 MOL     0.0185
     13 C          -7.6146  -73.9184   26.2396 C.2       1 MOL     0.0489
     14 O          -7.5846  -75.1092   26.5826 O.co2     1 MOL    -0.5492
     15 O          -6.8755  -72.9865   26.9105 O.co2     1 MOL    -0.5492
     16 H          -9.5935  -77.4011   18.0417 H         1 MOL     0.0232
     17 H          -8.1267  -78.2477   18.4735 H         1 MOL     0.0232
     18 H          -8.1814  -76.5025   18.5447 H         1 MOL     0.0232
     19 H          -9.8136  -76.6203   20.3331 H         1 MOL     0.0299
     20 H          -9.4541  -79.5667   20.1381 H         1 MOL     0.0232
     21 H         -10.8883  -78.6714   19.6980 H         1 MOL     0.0232
     22 H         -10.3646  -78.7180   21.3644 H         1 MOL     0.0232
     23 H          -7.1317  -77.2574   20.4487 H         1 MOL     0.0316
     24 H          -7.9289  -78.4361   21.4835 H         1 MOL     0.0316
     25 H          -6.7823  -75.1530   21.1901 H         1 MOL     0.0620
     26 H          -6.9478  -73.4640   22.8705 H         1 MOL     0.0621
     27 H          -9.6998  -75.7896   24.9550 H         1 MOL     0.0621
     28 H          -9.5303  -77.4900   23.2607 H         1 MOL     0.0620
     29 H          -8.1315  -72.5152   24.7404 H         1 MOL     0.0406
     30 H         -10.2576  -74.3191   25.8698 H         1 MOL     0.0239
     31 H         -10.5133  -73.0642   24.6808 H         1 MOL     0.0239
     32 H         -10.0095  -72.6431   26.3003 H         1 MOL     0.0239
@<TRIPOS>BOND
     1    1    2 1 
     2    1   16 1 
     3    1   17 1 
     4    1   18 1 
     5    2    3 1 
     6    2    4 1 
     7    2   19 1 
     8    3   20 1 
     9    3   21 1 
    10    3   22 1 
    11    4    5 1 
    12    4   23 1 
    13    4   24 1 
    14    5    6 ar
    15    5   10 ar
    16    6    7 ar
    17    6   25 1 
    18    7    8 ar
    19    7   26 1 
    20    8    9 ar
    21    8   11 1 
    22    9   10 ar
    23    9   27 1 
    24   10   28 1 
    25   11   12 1 
    26   11   13 1 
    27   11   29 1 
    28   12   30 1 
    29   12   31 1 
    30   12   32 1 
    31   13   14 ar
    32   13   15 ar
@<TRIPOS>SUBSTRUCTURE
1 MOL         1
@<TRIPOS>MOLECULE
query molecule
   32    32     1     0     0
SMALL
NO_CHARGE

@<TRIPOS>ATOM
      1 C         -12.1180  -65.8694  -11.5943 C.3       1 MOL     0.0072
      2 C         -12.8011  -64.6111  -11.1471 C.3       1 MOL    -0.0128
      3 C         -11.8119  -63.6387  -10.5879 C.3       1 MOL     0.0072
      4 C         -13.5355  -64.0073  -12.3114 C.3       1 MOL     0.0379
      5 C         -14.8404  -64.6783  -12.5287 C.ar      1 MOL    -0.0471
      6 C         -15.8952  -64.3458  -11.7108 C.ar      1 MOL     0.0037
      7 C         -17.1147  -64.9381  -11.8739 C.ar      1 MOL     0.0044
      8 C         -17.3095  -65.8765  -12.8578 C.ar      1 MOL    -0.0391
      9 C         -16.2642  -66.2160  -13.6805 C.ar      1 MOL     0.0044
     10 C         -15.0340  -65.6168  -13.5135 C.ar      1 MOL     0.0037
     11 C         -18.6141  -66.5305  -13.0556 C.3       1 MOL     0.0614
     12 C         -18.3939  -68.0253  -13.2863 C.3       1 MOL     0.0185
     13 C         -19.4095  -66.3141  -11.8114 C.2       1 MOL     0.0489
     14 O         -19.3981  -65.2186  -11.2315 O.co2     1 MOL    -0.5492
     15 O         -20.1535  -67.3488  -11.3208 O.co2     1 MOL    -0.5492
     16 H         -11.5932  -66.3029  -10.7679 H         1 MOL     0.0232
     17 H         -11.4247  -65.6406  -12.3765 H         1 MOL     0.0232
     18 H         -12.8487  -66.5620  -11.9559 H         1 MOL     0.0232
     19 H         -13.4983  -64.8465  -10.3712 H         1 MOL     0.0299
     20 H         -11.0982  -63.3826  -11.3430 H         1 MOL     0.0232
     21 H         -11.3065  -64.0830   -9.7562 H         1 MOL     0.0232
     22 H         -12.3221  -62.7554  -10.2653 H         1 MOL     0.0232
     23 H         -12.9383  -64.1112  -13.1928 H         1 MOL     0.0316
     24 H         -13.7170  -62.9746  -12.0985 H         1 MOL     0.0316
     25 H         -15.7636  -63.6428  -10.9666 H         1 MOL     0.0620
     26 H         -17.8967  -64.6782  -11.2520 H         1 MOL     0.0621
     27 H         -16.3989  -66.9191  -14.4241 H         1 MOL     0.0621
     28 H         -14.2504  -65.8749  -14.1336 H         1 MOL     0.0620
     29 H         -19.1297  -66.1268  -13.9020 H         1 MOL     0.0406
     30 H         -17.8782  -68.4433  -12.4469 H         1 MOL     0.0239
     31 H         -17.8081  -68.1662  -14.1709 H         1 MOL     0.0239
     32 H         -19.3397  -68.5109  -13.4034 H         1 MOL     0.0239
@<TRIPOS>BOND
     1    1    2 1 
     2    1   16 1 
     3    1   17 1 
     4    1   18 1 
     5    2    3 1 
     6    2    4 1 
     7    2   19 1 
     8    3   20 1 
     9    3   21 1 
    10    3   22 1 
    11    4    5 1 
    12    4   23 1 
    13    4   24 1 
    14    5    6 ar
    15    5   10 ar
    16    6    7 ar
    17    6   25 1 
    18    7    8 ar
    19    7   26 1 
    20    8    9 ar
    21    8   11 1 
    22    9   10 ar
    23    9   27 1 
    24   10   28 1 
    25   11   12 1 
    26   11   13 1 
    27   11   29 1 
    28   12   30 1 
    29   12   31 1 
    30   12   32 1 
    31   13   14 ar
    32   13   15 ar
@<TRIPOS>SUBSTRUCTURE
1 MOL         1
@<TRIPOS>MOLECULE
query molecule
   32    32     1     0     0
SMALL
NO_CHARGE

@<TRIPOS>ATOM
      1 C          -3.3910  -37.3003  -12.0982 C.3       1 MOL     0.0072
      2 C          -3.4034  -38.1788  -10.8824 C.3       1 MOL    -0.0128
      3 C          -4.3504  -37.6494   -9.8532 C.3       1 MOL     0.0072
      4 C          -3.7875  -39.5749  -11.2859 C.3       1 MOL     0.0379
      5 C          -5.1129  -39.5953  -11.9515 C.ar      1 MOL    -0.0471
      6 C          -6.2409  -39.6766  -11.1684 C.ar      1 MOL     0.0037
      7 C          -7.4820  -39.6986  -11.7376 C.ar      1 MOL     0.0044
      8 C          -7.6257  -39.6398  -13.1024 C.ar      1 MOL    -0.0391
      9 C          -6.5071  -39.5578  -13.8940 C.ar      1 MOL     0.0044
     10 C          -5.2554  -39.5362  -13.3169 C.ar      1 MOL     0.0037
     11 C          -8.9520  -39.6617  -13.7420 C.3       1 MOL     0.0614
     12 C          -8.7805  -39.9153  -15.2395 C.3       1 MOL     0.0185
     13 C          -9.7252  -40.7750  -13.1174 C.2       1 MOL     0.0489
     14 O         -10.3051  -40.6169  -12.0334 O.co2     1 MOL    -0.5492
     15 O          -9.7827  -41.9765  -13.7639 O.co2     1 MOL    -0.5492
     16 H          -3.1180  -36.3044  -11.8154 H         1 MOL     0.0232
     17 H          -4.3647  -37.2908  -12.5416 H         1 MOL     0.0232
     18 H          -2.6810  -37.6783  -12.8034 H         1 MOL     0.0232
     19 H          -2.4263  -38.1911  -10.4479 H         1 MOL     0.0299
     20 H          -5.3403  -37.6248  -10.2591 H         1 MOL     0.0232
     21 H          -4.0558  -36.6599   -9.5731 H         1 MOL     0.0232
     22 H          -4.3340  -38.2842   -8.9921 H         1 MOL     0.0232
     23 H          -3.8253  -40.1927  -10.4135 H         1 MOL     0.0316
     24 H          -3.0563  -39.9411  -11.9759 H         1 MOL     0.0316
     25 H          -6.1485  -39.7223  -10.1415 H         1 MOL     0.0620
     26 H          -8.3192  -39.7601  -11.1367 H         1 MOL     0.0621
     27 H          -6.6027  -39.5122  -14.9207 H         1 MOL     0.0621
     28 H          -4.4168  -39.4751  -13.9152 H         1 MOL     0.0620
     29 H          -9.4654  -38.7321  -13.6100 H         1 MOL     0.0406
     30 H          -8.2675  -40.8428  -15.3875 H         1 MOL     0.0239
     31 H          -8.2101  -39.1196  -15.6720 H         1 MOL     0.0239
     32 H          -9.7420  -39.9597  -15.7059 H         1 MOL     0.0239
@<TRIPOS>BOND
     1    1    2 1 
     2    1   16 1 
     3    1   17 1 
     4    1   18 1 
     5    2    3 1 
     6    2    4 1 
     7    2   19 1 
     8    3   20 1 
     9    3   21 1 
    10    3   22 1 
    11    4    5 1 
    12    4   23 1 
    13    4   24 1 
    14    5    6 ar
    15    5   10 ar
    16    6    7 ar
    17    6   25 1 
    18    7    8 ar
    19    7   26 1 
    20    8    9 ar
    21    8   11 1 
    22    9   10 ar
    23    9   27 1 
    24   10   28 1 
    25   11   12 1 
    26   11   13 1 
    27   11   29 1 
    28   12   30 1 
    29   12   31 1 
    30   12   32 1 
    31   13   14 ar
    32   13   15 ar
@<TRIPOS>SUBSTRUCTURE
1 MOL         1
@<TRIPOS>MOLECULE
query molecule
   32    32     1     0     0
SMALL
NO_CHARGE

@<TRIPOS>ATOM
      1 C          -9.1489  -77.8133   -6.3906 C.3       1 MOL     0.0072
      2 C          -8.5926  -78.2938   -7.6982 C.3       1 MOL    -0.0128
      3 C          -7.3800  -79.1417   -7.4811 C.3       1 MOL     0.0072
      4 C          -9.6532  -79.0660   -8.4320 C.3       1 MOL     0.0379
      5 C          -9.4065  -79.0589   -9.8946 C.ar      1 MOL    -0.0471
      6 C          -8.9940  -80.2244  -10.4977 C.ar      1 MOL     0.0037
      7 C          -8.7547  -80.2646  -11.8415 C.ar      1 MOL     0.0044
      8 C          -8.9218  -79.1417  -12.6147 C.ar      1 MOL    -0.0391
      9 C          -9.3337  -77.9730  -12.0239 C.ar      1 MOL     0.0044
     10 C          -9.5742  -77.9350  -10.6670 C.ar      1 MOL     0.0037
     11 C          -8.6708  -79.1575  -14.0657 C.3       1 MOL     0.0614
     12 C          -9.7756  -78.3726  -14.7725 C.3       1 MOL     0.0185
     13 C          -7.3492  -78.5022  -14.2924 C.2       1 MOL     0.0489
     14 O          -6.4238  -79.1119  -14.8477 O.co2     1 MOL    -0.5492
     15 O          -7.1764  -77.2134  -13.8753 O.co2     1 MOL    -0.5492
     16 H          -8.3965  -77.2627   -5.8642 H         1 MOL     0.0232
     17 H          -9.4533  -78.6534   -5.8020 H         1 MOL     0.0232
     18 H          -9.9918  -77.1807   -6.5732 H         1 MOL     0.0232
     19 H          -8.2974  -77.4503   -8.2856 H         1 MOL     0.0299
     20 H          -7.6438  -79.9970   -6.8944 H         1 MOL     0.0232
     21 H          -6.6348  -78.5727   -6.9660 H         1 MOL     0.0232
     22 H          -6.9944  -79.4627   -8.4260 H         1 MOL     0.0232
     23 H         -10.6066  -78.6222   -8.2365 H         1 MOL     0.0316
     24 H          -9.6317  -80.0795   -8.0898 H         1 MOL     0.0316
     25 H          -8.8635  -81.0760   -9.9293 H         1 MOL     0.0620
     26 H          -8.4453  -81.1468  -12.2796 H         1 MOL     0.0621
     27 H          -9.4636  -77.1230  -12.5949 H         1 MOL     0.0621
     28 H          -9.8833  -77.0544  -10.2264 H         1 MOL     0.0620
     29 H          -8.6620  -80.1561  -14.4504 H         1 MOL     0.0406
     30 H          -9.7968  -77.3705  -14.3974 H         1 MOL     0.0239
     31 H         -10.7194  -78.8423  -14.5880 H         1 MOL     0.0239
     32 H          -9.5844  -78.3569  -15.8248 H         1 MOL     0.0239
@<TRIPOS>BOND
     1    1    2 1 
     2    1   16 1 
     3    1   17 1 
     4    1   18 1 
     5    2    3 1 
     6    2    4 1 
     7    2   19 1 
     8    3   20 1 
     9    3   21 1 
    10    3   22 1 
    11    4    5 1 
    12    4   23 1 
    13    4   24 1 
    14    5    6 ar
    15    5   10 ar
    16    6    7 ar
    17    6   25 1 
    18    7    8 ar
    19    7   26 1 
    20    8    9 ar
    21    8   11 1 
    22    9   10 ar
    23    9   27 1 
    24   10   28 1 
    25   11   12 1 
    26   11   13 1 
    27   11   29 1 
    28   12   30 1 
    29   12   31 1 
    30   12   32 1 
    31   13   14 ar
    32   13   15 ar
@<TRIPOS>SUBSTRUCTURE
1 MOL         1
@<TRIPOS>MOLECULE
query molecule
   32    32     1     0     0
SMALL
NO_CHARGE

@<TRIPOS>ATOM
      1 C          -7.6059  -20.4613   11.1356 C.3       1 MOL     0.0072
      2 C          -6.8076  -19.5219   11.9901 C.3       1 MOL    -0.0128
      3 C          -7.1978  -19.6488   13.4282 C.3       1 MOL     0.0072
      4 C          -5.3441  -19.8150   11.8116 C.3       1 MOL     0.0379
      5 C          -5.0292  -21.2171   12.1790 C.ar      1 MOL    -0.0471
      6 C          -4.7499  -21.5054   13.4947 C.ar      1 MOL     0.0037
      7 C          -4.4543  -22.7821   13.8788 C.ar      1 MOL     0.0044
      8 C          -4.4308  -23.8009   12.9579 C.ar      1 MOL    -0.0391
      9 C          -4.7085  -23.5252   11.6420 C.ar      1 MOL     0.0044
     10 C          -5.0062  -22.2355   11.2568 C.ar      1 MOL     0.0037
     11 C          -4.1153  -25.1862   13.3451 C.3       1 MOL     0.0614
     12 C          -2.7556  -25.2128   14.0427 C.3       1 MOL     0.0185
     13 C          -5.1839  -25.6364   14.2846 C.2       1 MOL     0.0489
     14 O          -6.2196  -26.1701   13.8615 O.co2     1 MOL    -0.5492
     15 O          -5.0000  -25.4492   15.6248 O.co2     1 MOL    -0.5492
     16 H          -8.6495  -20.2562   11.2598 H         1 MOL     0.0232
     17 H          -7.4035  -21.4701   11.4289 H         1 MOL     0.0232
     18 H          -7.3355  -20.3264   10.1095 H         1 MOL     0.0232
     19 H          -7.0075  -18.5158   11.6876 H         1 MOL     0.0299
     20 H          -7.0090  -20.6480   13.7616 H         1 MOL     0.0232
     21 H          -8.2391  -19.4284   13.5357 H         1 MOL     0.0232
     22 H          -6.6249  -18.9626   14.0160 H         1 MOL     0.0232
     23 H          -4.7773  -19.1552   12.4342 H         1 MOL     0.0316
     24 H          -5.0930  -19.6701   10.7817 H         1 MOL     0.0316
     25 H          -4.7630  -20.7500   14.1978 H         1 MOL     0.0620
     26 H          -4.2466  -22.9827   14.8700 H         1 MOL     0.0621
     27 H          -4.6948  -24.2828   10.9412 H         1 MOL     0.0621
     28 H          -5.2140  -22.0320   10.2666 H         1 MOL     0.0620
     29 H          -4.0738  -25.8311   12.4920 H         1 MOL     0.0406
     30 H          -2.7817  -24.5714   14.8989 H         1 MOL     0.0239
     31 H          -2.0011  -24.8716   13.3646 H         1 MOL     0.0239
     32 H          -2.5327  -26.2125   14.3510 H         1 MOL     0.0239
@<TRIPOS>BOND
     1    1    2 1 
     2    1   16 1 
     3    1   17 1 
     4    1   18 1 
     5    2    3 1 
     6    2    4 1 
     7    2   19 1 
     8    3   20 1 
     9    3   21 1 
    10    3   22 1 
    11    4    5 1 
    12    4   23 1 
    13    4   24 1 
    14    5    6 ar
    15    5   10 ar
    16    6    7 ar
    17    6   25 1 
    18    7    8 ar
    19    7   26 1 
    20    8    9 ar
    21    8   11 1 
    22    9   10 ar
    23    9   27 1 
    24   10   28 1 
    25   11   12 1 
    26   11   13 1 
    27   11   29 1 
    28   12   30 1 
    29   12   31 1 
    30   12   32 1 
    31   13   14 ar
    32   13   15 ar
@<TRIPOS>SUBSTRUCTURE
1 MOL         1
@<TRIPOS>MOLECULE
query molecule
   32    32     1     0     0
SMALL
NO_CHARGE

@<TRIPOS>ATOM
      1 C         -63.3506  -59.9477  -20.6659 C.3       1 MOL     0.0072
      2 C         -63.9884  -61.2504  -21.0483 C.3       1 MOL    -0.0128
      3 C         -63.9895  -62.2013  -19.8940 C.3       1 MOL     0.0072
      4 C         -65.3915  -60.9928  -21.5223 C.3       1 MOL     0.0379
      5 C         -65.9641  -62.1926  -22.1802 C.ar      1 MOL    -0.0471
      6 C         -66.9563  -62.8889  -21.5297 C.ar      1 MOL     0.0037
      7 C         -67.5125  -63.9995  -22.0971 C.ar      1 MOL     0.0044
      8 C         -67.0909  -64.4408  -23.3276 C.ar      1 MOL    -0.0391
      9 C         -66.1018  -63.7536  -23.9864 C.ar      1 MOL     0.0044
     10 C         -65.5417  -62.6330  -23.4112 C.ar      1 MOL     0.0037
     11 C         -67.6736  -65.6351  -23.9622 C.3       1 MOL     0.0614
     12 C         -67.9513  -66.6865  -22.8881 C.3       1 MOL     0.0185
     13 C         -68.9501  -65.2126  -24.6100 C.2       1 MOL     0.0489
     14 O         -69.1858  -65.4933  -25.7941 O.co2     1 MOL    -0.5492
     15 O         -69.8578  -64.5081  -23.8721 O.co2     1 MOL    -0.5492
     16 H         -62.3507  -60.1265  -20.3273 H         1 MOL     0.0232
     17 H         -63.9162  -59.4900  -19.8815 H         1 MOL     0.0232
     18 H         -63.3288  -59.2989  -21.5161 H         1 MOL     0.0232
     19 H         -63.4240  -61.6997  -21.8377 H         1 MOL     0.0299
     20 H         -64.5485  -61.7789  -19.0851 H         1 MOL     0.0232
     21 H         -62.9831  -62.3783  -19.5771 H         1 MOL     0.0232
     22 H         -64.4377  -63.1256  -20.1927 H         1 MOL     0.0232
     23 H         -65.3809  -60.1830  -22.2210 H         1 MOL     0.0316
     24 H         -65.9964  -60.7507  -20.6736 H         1 MOL     0.0316
     25 H         -67.2827  -62.5695  -20.6041 H         1 MOL     0.0620
     26 H         -68.2561  -64.5116  -21.5965 H         1 MOL     0.0621
     27 H         -65.7775  -64.0753  -24.9121 H         1 MOL     0.0621
     28 H         -64.7980  -62.1193  -23.9093 H         1 MOL     0.0620
     29 H         -67.0093  -66.0560  -24.6880 H         1 MOL     0.0406
     30 H         -68.6151  -66.2794  -22.1539 H         1 MOL     0.0239
     31 H         -67.0311  -66.9681  -22.4196 H         1 MOL     0.0239
     32 H         -68.4002  -67.5465  -23.3388 H         1 MOL     0.0239
@<TRIPOS>BOND
     1    1    2 1 
     2    1   16 1 
     3    1   17 1 
     4    1   18 1 
     5    2    3 1 
     6    2    4 1 
     7    2   19 1 
     8    3   20 1 
     9    3   21 1 
    10    3   22 1 
    11    4    5 1 
    12    4   23 1 
    13    4   24 1 
    14    5    6 ar
    15    5   10 ar
    16    6    7 ar
    17    6   25 1 
    18    7    8 ar
    19    7   26 1 
    20    8    9 ar
    21    8   11 1 
    22    9   10 ar
    23    9   27 1 
    24   10   28 1 
    25   11   12 1 
    26   11   13 1 
    27   11   29 1 
    28   12   30 1 
    29   12   31 1 
    30   12   32 1 
    31   13   14 ar
    32   13   15 ar
@<TRIPOS>SUBSTRUCTURE
1 MOL         1
@<TRIPOS>MOLECULE
query molecule
   32    32     1     0     0
SMALL
NO_CHARGE

@<TRIPOS>ATOM
      1 C         -56.3030  -81.3051  -22.1127 C.3       1 MOL     0.0072
      2 C         -55.7997  -79.9584  -22.5405 C.3       1 MOL    -0.0128
      3 C         -56.7288  -79.3335  -23.5319 C.3       1 MOL     0.0072
      4 C         -55.6498  -79.0800  -21.3299 C.3       1 MOL     0.0379
      5 C         -56.8591  -79.1369  -20.4729 C.ar      1 MOL    -0.0471
      6 C         -56.8039  -79.8613  -19.3048 C.ar      1 MOL     0.0037
      7 C         -57.8929  -79.9419  -18.4848 C.ar      1 MOL     0.0044
      8 C         -59.0627  -79.3009  -18.8122 C.ar      1 MOL    -0.0391
      9 C         -59.1294  -78.5744  -19.9751 C.ar      1 MOL     0.0044
     10 C         -58.0287  -78.4950  -20.8013 C.ar      1 MOL     0.0037
     11 C         -60.2517  -79.3712  -17.9461 C.3       1 MOL     0.0614
     12 C         -60.3187  -80.7551  -17.3008 C.3       1 MOL     0.0185
     13 C         -60.0961  -78.3216  -16.8965 C.2       1 MOL     0.0489
     14 O         -59.5393  -77.2441  -17.1520 O.co2     1 MOL    -0.5492
     15 O         -60.5802  -78.5703  -15.6440 O.co2     1 MOL    -0.5492
     16 H         -56.4116  -81.9343  -22.9722 H         1 MOL     0.0232
     17 H         -57.2513  -81.1948  -21.6295 H         1 MOL     0.0232
     18 H         -55.6050  -81.7467  -21.4331 H         1 MOL     0.0232
     19 H         -54.8485  -80.0734  -23.0155 H         1 MOL     0.0299
     20 H         -57.6926  -79.2048  -23.0849 H         1 MOL     0.0232
     21 H         -56.8155  -79.9685  -24.3885 H         1 MOL     0.0232
     22 H         -56.3444  -78.3809  -23.8309 H         1 MOL     0.0232
     23 H         -55.4944  -78.0705  -21.6479 H         1 MOL     0.0316
     24 H         -54.8141  -79.4287  -20.7601 H         1 MOL     0.0316
     25 H         -55.9318  -80.3490  -19.0461 H         1 MOL     0.0620
     26 H         -57.8361  -80.4897  -17.6116 H         1 MOL     0.0621
     27 H         -60.0029  -78.0876  -20.2311 H         1 MOL     0.0621
     28 H         -58.0828  -77.9484  -21.6750 H         1 MOL     0.0620
     29 H         -61.1513  -79.2104  -18.5029 H         1 MOL     0.0406
     30 H         -59.4243  -80.9306  -16.7399 H         1 MOL     0.0239
     31 H         -60.4125  -81.4994  -18.0641 H         1 MOL     0.0239
     32 H         -61.1653  -80.8038  -16.6488 H         1 MOL     0.0239
@<TRIPOS>BOND
     1    1    2 1 
     2    1   16 1 
     3    1   17 1 
     4    1   18 1 
     5    2    3 1 
     6    2    4 1 
     7    2   19 1 
     8    3   20 1 
     9    3   21 1 
    10    3   22 1 
    11    4    5 1 
    12    4   23 1 
    13    4   24 1 
    14    5    6 ar
    15    5   10 ar
    16    6    7 ar
    17    6   25 1 
    18    7    8 ar
    19    7   26 1 
    20    8    9 ar
    21    8   11 1 
    22    9   10 ar
    23    9   27 1 
    24   10   28 1 
    25   11   12 1 
    26   11   13 1 
    27   11   29 1 
    28   12   30 1 
    29   12   31 1 
    30   12   32 1 
    31   13   14 ar
    32   13   15 ar
@<TRIPOS>SUBSTRUCTURE
1 MOL         1
@<TRIPOS>MOLECULE
query molecule
   32    32     1     0     0
SMALL
NO_CHARGE

@<TRIPOS>ATOM
      1 C         -47.4770  -35.1623   28.7389 C.3       1 MOL     0.0072
      2 C         -47.6550  -33.7501   28.2656 C.3       1 MOL    -0.0128
      3 C         -46.3303  -33.0907   28.0489 C.3       1 MOL     0.0072
      4 C         -48.4582  -33.7527   26.9951 C.3       1 MOL     0.0379
      5 C         -49.3608  -32.5775   26.9287 C.ar      1 MOL    -0.0471
      6 C         -50.5028  -32.5812   27.6956 C.ar      1 MOL     0.0037
      7 C         -51.3631  -31.5211   27.6662 C.ar      1 MOL     0.0044
      8 C         -51.1030  -30.4323   26.8703 C.ar      1 MOL    -0.0391
      9 C         -49.9660  -30.4172   26.1011 C.ar      1 MOL     0.0044
     10 C         -49.0994  -31.4888   26.1323 C.ar      1 MOL     0.0037
     11 C         -52.0135  -29.2760   26.8198 C.3       1 MOL     0.0614
     12 C         -53.4424  -29.7741   26.6048 C.3       1 MOL     0.0185
     13 C         -51.9065  -28.5721   28.1315 C.2       1 MOL     0.0489
     14 O         -51.4409  -27.4254   28.2020 O.co2     1 MOL    -0.5492
     15 O         -52.3323  -29.2163   29.2578 O.co2     1 MOL    -0.5492
     16 H         -46.9049  -35.1653   29.6439 H         1 MOL     0.0232
     17 H         -46.9626  -35.7276   27.9901 H         1 MOL     0.0232
     18 H         -48.4357  -35.6002   28.9213 H         1 MOL     0.0232
     19 H         -48.1764  -33.1918   29.0140 H         1 MOL     0.0299
     20 H         -45.7828  -33.6279   27.3027 H         1 MOL     0.0232
     21 H         -45.7779  -33.0910   28.9651 H         1 MOL     0.0232
     22 H         -46.4816  -32.0828   27.7235 H         1 MOL     0.0232
     23 H         -49.0449  -34.6463   26.9546 H         1 MOL     0.0316
     24 H         -47.7821  -33.7078   26.1670 H         1 MOL     0.0316
     25 H         -50.7118  -33.3928   28.2980 H         1 MOL     0.0620
     26 H         -52.2163  -31.5386   28.2472 H         1 MOL     0.0621
     27 H         -49.7595  -29.6040   25.4998 H         1 MOL     0.0621
     28 H         -48.2459  -31.4741   25.5522 H         1 MOL     0.0620
     29 H         -51.7594  -28.6125   26.0195 H         1 MOL     0.0406
     30 H         -53.7110  -30.4399   27.3984 H         1 MOL     0.0239
     31 H         -53.5018  -30.2917   25.6699 H         1 MOL     0.0239
     32 H         -54.1127  -28.9406   26.5946 H         1 MOL     0.0239
@<TRIPOS>BOND
     1    1    2 1 
     2    1   16 1 
     3    1   17 1 
     4    1   18 1 
     5    2    3 1 
     6    2    4 1 
     7    2   19 1 
     8    3   20 1 
     9    3   21 1 
    10    3   22 1 
    11    4    5 1 
    12    4   23 1 
    13    4   24 1 
    14    5    6 ar
    15    5   10 ar
    16    6    7 ar
    17    6   25 1 
    18    7    8 ar
    19    7   26 1 
    20    8    9 ar
    21    8   11 1 
    22    9   10 ar
    23    9   27 1 
    24   10   28 1 
    25   11   12 1 
    26   11   13 1 
    27   11   29 1 
    28   12   30 1 
    29   12   31 1 
    30   12   32 1 
    31   13   14 ar
    32   13   15 ar
@<TRIPOS>SUBSTRUCTURE
1 MOL         1
@<TRIPOS>MOLECULE
query molecule
   32    32     1     0     0
SMALL
NO_CHARGE

@<TRIPOS>ATOM
      1 C         -57.4068  -33.4543    1.6109 C.3       1 MOL     0.0072
      2 C         -58.7133  -33.2833    2.3277 C.3       1 MOL    -0.0128
      3 C         -58.4903  -32.9048    3.7572 C.3       1 MOL     0.0072
      4 C         -59.5288  -32.2347    1.6243 C.3       1 MOL     0.0379
      5 C         -60.0672  -32.7460    0.3402 C.ar      1 MOL    -0.0471
      6 C         -61.3321  -33.2866    0.3260 C.ar      1 MOL     0.0037
      7 C         -61.8684  -33.7698   -0.8331 C.ar      1 MOL     0.0044
      8 C         -61.1542  -33.7244   -2.0054 C.ar      1 MOL    -0.0391
      9 C         -59.8911  -33.1866   -2.0036 C.ar      1 MOL     0.0044
     10 C         -59.3518  -32.6998   -0.8320 C.ar      1 MOL     0.0037
     11 C         -61.7086  -34.2383   -3.2692 C.3       1 MOL     0.0614
     12 C         -62.4661  -35.5364   -2.9914 C.3       1 MOL     0.0185
     13 C         -62.6430  -33.2005   -3.7958 C.2       1 MOL     0.0489
     14 O         -62.2241  -32.0904   -4.1543 O.co2     1 MOL    -0.5492
     15 O         -63.9737  -33.4967   -3.8760 O.co2     1 MOL    -0.5492
     16 H         -56.8223  -34.2005    2.1089 H         1 MOL     0.0232
     17 H         -56.8751  -32.5258    1.6115 H         1 MOL     0.0232
     18 H         -57.5913  -33.7598    0.6025 H         1 MOL     0.0232
     19 H         -59.2440  -34.2117    2.3173 H         1 MOL     0.0299
     20 H         -57.9597  -31.9765    3.8013 H         1 MOL     0.0232
     21 H         -57.9164  -33.6663    4.2422 H         1 MOL     0.0232
     22 H         -59.4338  -32.7998    4.2506 H         1 MOL     0.0232
     23 H         -58.9105  -31.3838    1.4296 H         1 MOL     0.0316
     24 H         -60.3515  -31.9669    2.2538 H         1 MOL     0.0316
     25 H         -61.8804  -33.3281    1.1994 H         1 MOL     0.0620
     26 H         -62.8189  -34.1728   -0.8277 H         1 MOL     0.0621
     27 H         -59.3452  -33.1463   -2.8787 H         1 MOL     0.0621
     28 H         -58.4018  -32.2967   -0.8344 H         1 MOL     0.0620
     29 H         -60.9362  -34.4398   -3.9820 H         1 MOL     0.0406
     30 H         -63.2427  -35.3505   -2.2790 H         1 MOL     0.0239
     31 H         -61.7890  -36.2662   -2.5983 H         1 MOL     0.0239
     32 H         -62.8947  -35.9007   -3.9012 H         1 MOL     0.0239
@<TRIPOS>BOND
     1    1    2 1 
     2    1   16 1 
     3    1   17 1 
     4    1   18 1 
     5    2    3 1 
     6    2    4 1 
     7    2   19 1 
     8    3   20 1 
     9    3   21 1 
    10    3   22 1 
    11    4    5 1 
    12    4   23 1 
    13    4   24 1 
    14    5    6 ar
    15    5   10 ar
    16    6    7 ar
    17    6   25 1 
    18    7    8 ar
    19    7   26 1 
    20    8    9 ar
    21    8   11 1 
    22    9   10 ar
    23    9   27 1 
    24   10   28 1 
    25   11   12 1 
    26   11   13 1 
    27   11   29 1 
    28   12   30 1 
    29   12   31 1 
    30   12   32 1 
    31   13   14 ar
    32   13   15 ar
@<TRIPOS>SUBSTRUCTURE
1 MOL         1
@<TRIPOS>MOLECULE
query molecule
   32    32     1     0     0
SMALL
NO_CHARGE

@<TRIPOS>ATOM
      1 C         -46.5236  -50.0438  -27.7751 C.3       1 MOL     0.0072
      2 C         -46.7605  -49.1722  -26.5775 C.3       1 MOL    -0.0128
      3 C         -48.0680  -49.5013  -25.9304 C.3       1 MOL     0.0072
      4 C         -45.6290  -49.3521  -25.6044 C.3       1 MOL     0.0379
      5 C         -45.2977  -50.7869  -25.4264 C.ar      1 MOL    -0.0471
      6 C         -46.3269  -51.6829  -25.2530 C.ar      1 MOL     0.0037
      7 C         -46.0691  -53.0134  -25.0851 C.ar      1 MOL     0.0044
      8 C         -44.7773  -53.4802  -25.0865 C.ar      1 MOL    -0.0391
      9 C         -43.7421  -52.5953  -25.2592 C.ar      1 MOL     0.0044
     10 C         -44.0050  -51.2527  -25.4281 C.ar      1 MOL     0.0037
     11 C         -44.4713  -54.9096  -24.9077 C.3       1 MOL     0.0614
     12 C         -43.1532  -55.0471  -24.1463 C.3       1 MOL     0.0185
     13 C         -45.5873  -55.5042  -24.1148 C.2       1 MOL     0.0489
     14 O         -46.7691  -55.3021  -24.4292 O.co2     1 MOL    -0.5492
     15 O         -45.2821  -56.2783  -23.0320 O.co2     1 MOL    -0.5492
     16 H         -47.3276  -49.9190  -28.4712 H         1 MOL     0.0232
     17 H         -46.4739  -51.0673  -27.4675 H         1 MOL     0.0232
     18 H         -45.6018  -49.7656  -28.2412 H         1 MOL     0.0232
     19 H         -46.8014  -48.1501  -26.8893 H         1 MOL     0.0299
     20 H         -48.0583  -50.5212  -25.6063 H         1 MOL     0.0232
     21 H         -48.8602  -49.3591  -26.6351 H         1 MOL     0.0232
     22 H         -48.2208  -48.8607  -25.0872 H         1 MOL     0.0232
     23 H         -45.9123  -48.9392  -24.6592 H         1 MOL     0.0316
     24 H         -44.7667  -48.8508  -25.9916 H         1 MOL     0.0316
     25 H         -47.3026  -51.3467  -25.2490 H         1 MOL     0.0620
     26 H         -46.8521  -53.6737  -24.9559 H         1 MOL     0.0621
     27 H         -42.7672  -52.9346  -25.2630 H         1 MOL     0.0621
     28 H         -43.2241  -50.5904  -25.5572 H         1 MOL     0.0620
     29 H         -44.3756  -55.4099  -25.8488 H         1 MOL     0.0406
     30 H         -43.2337  -54.5506  -23.2017 H         1 MOL     0.0239
     31 H         -42.3647  -54.6018  -24.7169 H         1 MOL     0.0239
     32 H         -42.9388  -56.0831  -23.9890 H         1 MOL     0.0239
@<TRIPOS>BOND
     1    1    2 1 
     2    1   16 1 
     3    1   17 1 
     4    1   18 1 
     5    2    3 1 
     6    2    4 1 
     7    2   19 1 
     8    3   20 1 
     9    3   21 1 
    10    3   22 1 
    11    4    5 1 
    12    4   23 1 
    13    4   24 1 
    14    5    6 ar
    15    5   10 ar
    16    6    7 ar
    17    6   25 1 
    18    7    8 ar
    19    7   26 1 
    20    8    9 ar
    21    8   11 1 
    22    9   10 ar
    23    9   27 1 
    24   10   28 1 
    25   11   12 1 
    26   11   13 1 
    27   11   29 1 
    28   12   30 1 
    29   12   31 1 
    30   12   32 1 
    31   13   14 ar
    32   13   15 ar
@<TRIPOS>SUBSTRUCTURE
1 MOL         1
@<TRIPOS>MOLECULE
query molecule
   32    32     1     0     0
SMALL
NO_CHARGE

@<TRIPOS>ATOM
      1 C         -28.9388  -64.8825  -21.6937 C.3       1 MOL     0.0072
      2 C         -29.1969  -63.4994  -22.2140 C.3       1 MOL    -0.0128
      3 C         -28.1165  -63.0756  -23.1572 C.3       1 MOL     0.0072
      4 C         -30.5358  -63.4706  -22.8966 C.3       1 MOL     0.0379
      5 C         -31.1601  -62.1288  -22.7966 C.ar      1 MOL    -0.0471
      6 C         -31.6319  -61.7124  -21.5733 C.ar      1 MOL     0.0037
      7 C         -32.2143  -60.4851  -21.4342 C.ar      1 MOL     0.0044
      8 C         -32.3391  -59.6448  -22.5134 C.ar      1 MOL    -0.0391
      9 C         -31.8714  -60.0493  -23.7391 C.ar      1 MOL     0.0044
     10 C         -31.2842  -61.2889  -23.8769 C.ar      1 MOL     0.0037
     11 C         -32.9628  -58.3163  -22.3912 C.3       1 MOL     0.0614
     12 C         -32.0424  -57.2721  -23.0226 C.3       1 MOL     0.0185
     13 C         -34.2609  -58.3687  -23.1257 C.2       1 MOL     0.0489
     14 O         -34.8280  -57.3285  -23.4902 O.co2     1 MOL    -0.5492
     15 O         -34.8156  -59.5882  -23.3903 O.co2     1 MOL    -0.5492
     16 H         -27.9856  -64.9078  -21.2067 H         1 MOL     0.0232
     17 H         -28.9416  -65.5765  -22.5081 H         1 MOL     0.0232
     18 H         -29.7037  -65.1485  -20.9949 H         1 MOL     0.0232
     19 H         -29.2010  -62.8112  -21.3955 H         1 MOL     0.0299
     20 H         -28.0871  -63.7471  -23.9900 H         1 MOL     0.0232
     21 H         -27.1741  -63.0943  -22.6512 H         1 MOL     0.0232
     22 H         -28.3150  -62.0838  -23.5058 H         1 MOL     0.0232
     23 H         -31.1788  -64.1901  -22.4350 H         1 MOL     0.0316
     24 H         -30.3932  -63.7016  -23.9315 H         1 MOL     0.0316
     25 H         -31.5457  -62.3334  -20.7535 H         1 MOL     0.0620
     26 H         -32.5638  -60.1869  -20.5097 H         1 MOL     0.0621
     27 H         -31.9588  -59.4260  -24.5571 H         1 MOL     0.0621
     28 H         -30.9342  -61.5898  -24.8000 H         1 MOL     0.0620
     29 H         -33.1251  -58.0532  -21.3666 H         1 MOL     0.0406
     30 H         -31.8704  -57.5225  -24.0488 H         1 MOL     0.0239
     31 H         -31.1095  -57.2567  -22.4983 H         1 MOL     0.0239
     32 H         -32.5022  -56.3083  -22.9616 H         1 MOL     0.0239
@<TRIPOS>BOND
     1    1    2 1 
     2    1   16 1 
     3    1   17 1 
     4    1   18 1 
     5    2    3 1 
     6    2    4 1 
     7    2   19 1 
     8    3   20 1 
     9    3   21 1 
    10    3   22 1 
    11    4    5 1 
    12    4   23 1 
    13    4   24 1 
    14    5    6 ar
    15    5   10 ar
    16    6    7 ar
    17    6   25 1 
    18    7    8 ar
    19    7   26 1 
    20    8    9 ar
    21    8   11 1 
    22    9   10 ar
    23    9   27 1 
    24   10   28 1 
    25   11   12 1 
    26   11   13 1 
    27   11   29 1 
    28   12   30 1 
    29   12   31 1 
    30   12   32 1 
    31   13   14 ar
    32   13   15 ar
@<TRIPOS>SUBSTRUCTURE
1 MOL         1
@<TRIPOS>MOLECULE
query molecule
   32    32     1     0     0
SMALL
NO_CHARGE

@<TRIPOS>ATOM
      1 C         -50.5382  -74.9726  -11.4551 C.3       1 MOL     0.0072
      2 C         -49.9440  -74.4230  -12.7180 C.3       1 MOL    -0.0128
      3 C         -50.5558  -75.0700  -13.9194 C.3       1 MOL     0.0072
      4 C         -50.1530  -72.9348  -12.7550 C.3       1 MOL     0.0379
      5 C         -51.5939  -72.5980  -12.8572 C.ar      1 MOL    -0.0471
      6 C         -52.3283  -72.4922  -11.6989 C.ar      1 MOL     0.0037
      7 C         -53.6579  -72.1843  -11.7447 C.ar      1 MOL     0.0044
      8 C         -54.2853  -71.9747  -12.9485 C.ar      1 MOL    -0.0391
      9 C         -53.5623  -72.0770  -14.1110 C.ar      1 MOL     0.0044
     10 C         -52.2203  -72.3883  -14.0620 C.ar      1 MOL     0.0037
     11 C         -55.7176  -71.6414  -13.0264 C.3       1 MOL     0.0614
     12 C         -56.4330  -72.2222  -11.8070 C.3       1 MOL     0.0185
     13 C         -55.8253  -70.1528  -13.0248 C.2       1 MOL     0.0489
     14 O         -56.7514  -69.5826  -12.4302 O.co2     1 MOL    -0.5492
     15 O         -54.8814  -69.4266  -13.6930 O.co2     1 MOL    -0.5492
     16 H         -50.3918  -76.0328  -11.4246 H         1 MOL     0.0232
     17 H         -51.5858  -74.7565  -11.4300 H         1 MOL     0.0232
     18 H         -50.0600  -74.5220  -10.6110 H         1 MOL     0.0232
     19 H         -48.8958  -74.6346  -12.7343 H         1 MOL     0.0299
     20 H         -51.6081  -74.8756  -13.9316 H         1 MOL     0.0232
     21 H         -50.3892  -76.1260  -13.8792 H         1 MOL     0.0232
     22 H         -50.1094  -74.6716  -14.8063 H         1 MOL     0.0232
     23 H         -49.6390  -72.5309  -13.6017 H         1 MOL     0.0316
     24 H         -49.7709  -72.5167  -11.8472 H         1 MOL     0.0316
     25 H         -51.8706  -72.6478  -10.7870 H         1 MOL     0.0620
     26 H         -54.1959  -72.1088  -10.8668 H         1 MOL     0.0621
     27 H         -54.0228  -71.9207  -15.0215 H         1 MOL     0.0621
     28 H         -51.6802  -72.4648  -14.9381 H         1 MOL     0.0620
     29 H         -56.1659  -72.0461  -13.9099 H         1 MOL     0.0406
     30 H         -55.9947  -71.8263  -10.9145 H         1 MOL     0.0239
     31 H         -56.3336  -73.2878  -11.8104 H         1 MOL     0.0239
     32 H         -57.4694  -71.9602  -11.8434 H         1 MOL     0.0239
@<TRIPOS>BOND
     1    1    2 1 
     2    1   16 1 
     3    1   17 1 
     4    1   18 1 
     5    2    3 1 
     6    2    4 1 
     7    2   19 1 
     8    3   20 1 
     9    3   21 1 
    10    3   22 1 
    11    4    5 1 
    12    4   23 1 
    13    4   24 1 
    14    5    6 ar
    15    5   10 ar
    16    6    7 ar
    17    6   25 1 
    18    7    8 ar
    19    7   26 1 
    20    8    9 ar
    21    8   11 1 
    22    9   10 ar
    23    9   27 1 
    24   10   28 1 
    25   11   12 1 
    26   11   13 1 
    27   11   29 1 
    28   12   30 1 
    29   12   31 1 
    30   12   32 1 
    31   13   14 ar
    32   13   15 ar
@<TRIPOS>SUBSTRUCTURE
1 MOL         1
@<TRIPOS>MOLECULE
query molecule
   32    32     1     0     0
SMALL
NO_CHARGE

@<TRIPOS>ATOM
      1 C         -33.1065  -74.7993  -12.1946 C.3       1 MOL     0.0072
      2 C         -32.4598  -73.7530  -11.3361 C.3       1 MOL    -0.0128
      3 C         -33.4806  -72.8036  -10.7946 C.3       1 MOL     0.0072
      4 C         -31.7156  -74.4244  -10.2158 C.3       1 MOL     0.0379
      5 C         -32.6372  -74.8285   -9.1261 C.ar      1 MOL    -0.0471
      6 C         -32.7665  -74.0024   -8.0338 C.ar      1 MOL     0.0037
      7 C         -33.6030  -74.3341   -7.0067 C.ar      1 MOL     0.0044
      8 C         -34.3302  -75.4987   -7.0464 C.ar      1 MOL    -0.0391
      9 C         -34.2098  -76.3307   -8.1317 C.ar      1 MOL     0.0044
     10 C         -33.3643  -75.9937   -9.1670 C.ar      1 MOL     0.0037
     11 C         -35.2395  -75.8804   -5.9526 C.3       1 MOL     0.0614
     12 C         -36.5881  -76.2899   -6.5439 C.3       1 MOL     0.0185
     13 C         -34.6166  -77.0366   -5.2437 C.2       1 MOL     0.0489
     14 O         -33.4828  -76.9449   -4.7511 O.co2     1 MOL    -0.5492
     15 O         -35.3206  -78.2027   -5.1470 O.co2     1 MOL    -0.5492
     16 H         -33.6381  -74.3254  -12.9941 H         1 MOL     0.0232
     17 H         -33.7889  -75.3739  -11.6039 H         1 MOL     0.0232
     18 H         -32.3540  -75.4432  -12.5988 H         1 MOL     0.0232
     19 H         -31.7731  -73.1870  -11.9292 H         1 MOL     0.0299
     20 H         -34.1845  -73.3417  -10.1945 H         1 MOL     0.0232
     21 H         -33.9927  -72.3302  -11.6059 H         1 MOL     0.0232
     22 H         -32.9961  -72.0609  -10.1961 H         1 MOL     0.0232
     23 H         -30.9878  -73.7455   -9.8238 H         1 MOL     0.0316
     24 H         -31.2424  -75.3027  -10.6024 H         1 MOL     0.0316
     25 H         -32.2258  -73.1244   -7.9897 H         1 MOL     0.0620
     26 H         -33.6892  -73.7040   -6.1935 H         1 MOL     0.0621
     27 H         -34.7519  -77.2081   -8.1730 H         1 MOL     0.0621
     28 H         -33.2760  -76.6219   -9.9810 H         1 MOL     0.0620
     29 H         -35.3970  -75.0684   -5.2735 H         1 MOL     0.0406
     30 H         -36.4463  -77.1020   -7.2262 H         1 MOL     0.0239
     31 H         -37.0159  -75.4580   -7.0638 H         1 MOL     0.0239
     32 H         -37.2447  -76.5946   -5.7564 H         1 MOL     0.0239
@<TRIPOS>BOND
     1    1    2 1 
     2    1   16 1 
     3    1   17 1 
     4    1   18 1 
     5    2    3 1 
     6    2    4 1 
     7    2   19 1 
     8    3   20 1 
     9    3   21 1 
    10    3   22 1 
    11    4    5 1 
    12    4   23 1 
    13    4   24 1 
    14    5    6 ar
    15    5   10 ar
    16    6    7 ar
    17    6   25 1 
    18    7    8 ar
    19    7   26 1 
    20    8    9 ar
    21    8   11 1 
    22    9   10 ar
    23    9   27 1 
    24   10   28 1 
    25   11   12 1 
    26   11   13 1 
    27   11   29 1 
    28   12   30 1 
    29   12   31 1 
    30   12   32 1 
    31   13   14 ar
    32   13   15 ar
@<TRIPOS>SUBSTRUCTURE
1 MOL         1
@<TRIPOS>MOLECULE
query molecule
   32    32     1     0     0
SMALL
NO_CHARGE

@<TRIPOS>ATOM
      1 C         -44.1275  -19.5795   -2.6124 C.3       1 MOL     0.0072
      2 C         -45.5887  -19.8726   -2.7827 C.3       1 MOL    -0.0128
      3 C         -46.0914  -19.3327   -4.0836 C.3       1 MOL     0.0072
      4 C         -45.8064  -21.3580   -2.7073 C.3       1 MOL     0.0379
      5 C         -46.3586  -21.7528   -1.3884 C.ar      1 MOL    -0.0471
      6 C         -45.4931  -22.2169   -0.4253 C.ar      1 MOL     0.0037
      7 C         -45.9567  -22.5920    0.8032 C.ar      1 MOL     0.0044
      8 C         -47.2957  -22.5124    1.0986 C.ar      1 MOL    -0.0391
      9 C         -48.1689  -22.0502    0.1455 C.ar      1 MOL     0.0044
     10 C         -47.6983  -21.6725   -1.0940 C.ar      1 MOL     0.0037
     11 C         -47.8222  -22.9102    2.4151 C.3       1 MOL     0.0614
     12 C         -48.7577  -21.8169    2.9304 C.3       1 MOL     0.0185
     13 C         -48.5766  -24.1835    2.2226 C.2       1 MOL     0.0489
     14 O         -48.4861  -24.8228    1.1645 O.co2     1 MOL    -0.5492
     15 O         -49.3721  -24.6339    3.2371 O.co2     1 MOL    -0.5492
     16 H         -43.9676  -18.5222   -2.6656 H         1 MOL     0.0232
     17 H         -43.5734  -20.0635   -3.3893 H         1 MOL     0.0232
     18 H         -43.8002  -19.9423   -1.6608 H         1 MOL     0.0232
     19 H         -46.1368  -19.3933   -1.9995 H         1 MOL     0.0299
     20 H         -45.5606  -19.7947   -4.8899 H         1 MOL     0.0232
     21 H         -45.9357  -18.2748   -4.1145 H         1 MOL     0.0232
     22 H         -47.1362  -19.5428   -4.1780 H         1 MOL     0.0232
     23 H         -44.8718  -21.8561   -2.8578 H         1 MOL     0.0316
     24 H         -46.5083  -21.6361   -3.4654 H         1 MOL     0.0316
     25 H         -44.4843  -22.2830   -0.6331 H         1 MOL     0.0620
     26 H         -45.2947  -22.9386    1.5156 H         1 MOL     0.0621
     27 H         -49.1772  -21.9851    0.3563 H         1 MOL     0.0621
     28 H         -48.3579  -21.3260   -1.8082 H         1 MOL     0.0620
     29 H         -47.0343  -23.0483    3.1261 H         1 MOL     0.0406
     30 H         -49.5517  -21.6672    2.2287 H         1 MOL     0.0239
     31 H         -48.2090  -20.9054    3.0476 H         1 MOL     0.0239
     32 H         -49.1651  -22.1121    3.8743 H         1 MOL     0.0239
@<TRIPOS>BOND
     1    1    2 1 
     2    1   16 1 
     3    1   17 1 
     4    1   18 1 
     5    2    3 1 
     6    2    4 1 
     7    2   19 1 
     8    3   20 1 
     9    3   21 1 
    10    3   22 1 
    11    4    5 1 
    12    4   23 1 
    13    4   24 1 
    14    5    6 ar
    15    5   10 ar
    16    6    7 ar
    17    6   25 1 
    18    7    8 ar
    19    7   26 1 
    20    8    9 ar
    21    8   11 1 
    22    9   10 ar
    23    9   27 1 
    24   10   28 1 
    25   11   12 1 
    26   11   13 1 
    27   11   29 1 
    28   12   30 1 
    29   12   31 1 
    30   12   32 1 
    31   13   14 ar
    32   13   15 ar
@<TRIPOS>SUBSTRUCTURE
1 MOL         1
@<TRIPOS>MOLECULE
query molecule
   32    32     1     0     0
SMALL
NO_CHARGE

@<TRIPOS>ATOM
      1 C         -28.4619  -49.3774  -25.6228 C.3       1 MOL     0.0072
      2 C         -27.4876  -49.3657  -24.4824 C.3       1 MOL    -0.0128
      3 C         -27.0527  -47.9697  -24.1684 C.3       1 MOL     0.0072
      4 C         -28.1267  -50.0032  -23.2805 C.3       1 MOL     0.0379
      5 C         -29.4935  -49.4729  -23.0552 C.ar      1 MOL    -0.0471
      6 C         -29.6422  -48.1331  -22.7811 C.ar      1 MOL     0.0037
      7 C         -30.8814  -47.6010  -22.5666 C.ar      1 MOL     0.0044
      8 C         -32.0012  -48.3944  -22.6208 C.ar      1 MOL    -0.0391
      9 C         -31.8652  -49.7329  -22.8940 C.ar      1 MOL     0.0044
     10 C         -30.6130  -50.2676  -23.1098 C.ar      1 MOL     0.0037
     11 C         -33.3491  -47.8464  -22.3935 C.3       1 MOL     0.0614
     12 C         -34.3125  -48.4491  -23.4156 C.3       1 MOL     0.0185
     13 C         -33.7566  -48.2353  -21.0114 C.2       1 MOL     0.0489
     14 O         -34.5616  -47.5465  -20.3680 O.co2     1 MOL    -0.5492
     15 O         -33.2247  -49.3684  -20.4656 O.co2     1 MOL    -0.5492
     16 H         -28.0108  -48.9238  -26.4814 H         1 MOL     0.0232
     17 H         -29.3386  -48.8286  -25.3489 H         1 MOL     0.0232
     18 H         -28.7296  -50.3873  -25.8521 H         1 MOL     0.0232
     19 H         -26.6169  -49.9220  -24.7583 H         1 MOL     0.0299
     20 H         -27.9046  -47.3859  -23.8876 H         1 MOL     0.0232
     21 H         -26.5933  -47.5367  -25.0321 H         1 MOL     0.0232
     22 H         -26.3507  -47.9869  -23.3613 H         1 MOL     0.0232
     23 H         -27.5272  -49.8014  -22.4178 H         1 MOL     0.0316
     24 H         -28.1964  -51.0569  -23.4531 H         1 MOL     0.0316
     25 H         -28.8097  -47.5247  -22.7365 H         1 MOL     0.0620
     26 H         -30.9768  -46.5936  -22.3618 H         1 MOL     0.0621
     27 H         -32.6996  -50.3388  -22.9382 H         1 MOL     0.0621
     28 H         -30.5146  -51.2744  -23.3145 H         1 MOL     0.0620
     29 H         -33.3614  -46.7815  -22.4995 H         1 MOL     0.0406
     30 H         -34.3106  -49.5152  -23.3218 H         1 MOL     0.0239
     31 H         -33.9996  -48.1776  -24.4025 H         1 MOL     0.0239
     32 H         -35.2992  -48.0759  -23.2387 H         1 MOL     0.0239
@<TRIPOS>BOND
     1    1    2 1 
     2    1   16 1 
     3    1   17 1 
     4    1   18 1 
     5    2    3 1 
     6    2    4 1 
     7    2   19 1 
     8    3   20 1 
     9    3   21 1 
    10    3   22 1 
    11    4    5 1 
    12    4   23 1 
    13    4   24 1 
    14    5    6 ar
    15    5   10 ar
    16    6    7 ar
    17    6   25 1 
    18    7    8 ar
    19    7   26 1 
    20    8    9 ar
    21    8   11 1 
    22    9   10 ar
    23    9   27 1 
    24   10   28 1 
    25   11   12 1 
    26   11   13 1 
    27   11   29 1 
    28   12   30 1 
    29   12   31 1 
    30   12   32 1 
    31   13   14 ar
    32   13   15 ar
@<TRIPOS>SUBSTRUCTURE
1 MOL         1
@<TRIPOS>MOLECULE
query molecule
   32    32     1     0     0
SMALL
NO_CHARGE

@<TRIPOS>ATOM
      1 C         -27.7934  -58.3106  -24.8838 C.3       1 MOL     0.0072
      2 C         -28.8940  -58.9405  -24.0825 C.3       1 MOL    -0.0128
      3 C         -29.9261  -59.5455  -24.9798 C.3       1 MOL     0.0072
      4 C         -28.3075  -59.9835  -23.1728 C.3       1 MOL     0.0379
      5 C         -29.1347  -60.1586  -21.9540 C.ar      1 MOL    -0.0471
      6 C         -29.0114  -59.2396  -20.9379 C.ar      1 MOL     0.0037
      7 C         -29.7526  -59.3609  -19.7974 C.ar      1 MOL     0.0044
      8 C         -30.6345  -60.4029  -19.6450 C.ar      1 MOL    -0.0391
      9 C         -30.7664  -61.3258  -20.6527 C.ar      1 MOL     0.0044
     10 C         -30.0167  -61.2013  -21.8028 C.ar      1 MOL     0.0037
     11 C         -31.4459  -60.5573  -18.4258 C.3       1 MOL     0.0614
     12 C         -30.7156  -59.9030  -17.2533 C.3       1 MOL     0.0185
     13 C         -32.7465  -59.8675  -18.6707 C.2       1 MOL     0.0489
     14 O         -32.8903  -59.1055  -19.6377 O.co2     1 MOL    -0.5492
     15 O         -33.7801  -60.0914  -17.8068 O.co2     1 MOL    -0.5492
     16 H         -28.2067  -57.5669  -25.5337 H         1 MOL     0.0232
     17 H         -27.3024  -59.0610  -25.4675 H         1 MOL     0.0232
     18 H         -27.0877  -57.8540  -24.2223 H         1 MOL     0.0232
     19 H         -29.3760  -58.1879  -23.4953 H         1 MOL     0.0299
     20 H         -29.4731  -60.3051  -25.5824 H         1 MOL     0.0232
     21 H         -30.3371  -58.7871  -25.6125 H         1 MOL     0.0232
     22 H         -30.7054  -59.9777  -24.3878 H         1 MOL     0.0232
     23 H         -27.3220  -59.6824  -22.8856 H         1 MOL     0.0316
     24 H         -28.2789  -60.9145  -23.6993 H         1 MOL     0.0316
     25 H         -28.3522  -58.4517  -21.0379 H         1 MOL     0.0620
     26 H         -29.6488  -58.6633  -19.0435 H         1 MOL     0.0621
     27 H         -31.4266  -62.1125  -20.5499 H         1 MOL     0.0621
     28 H         -30.1182  -61.8973  -22.5580 H         1 MOL     0.0620
     29 H         -31.6097  -61.5889  -18.1930 H         1 MOL     0.0406
     30 H         -30.5443  -58.8695  -17.4721 H         1 MOL     0.0239
     31 H         -29.7777  -60.3950  -17.0992 H         1 MOL     0.0239
     32 H         -31.3125  -59.9876  -16.3697 H         1 MOL     0.0239
@<TRIPOS>BOND
     1    1    2 1 
     2    1   16 1 
     3    1   17 1 
     4    1   18 1 
     5    2    3 1 
     6    2    4 1 
     7    2   19 1 
     8    3   20 1 
     9    3   21 1 
    10    3   22 1 
    11    4    5 1 
    12    4   23 1 
    13    4   24 1 
    14    5    6 ar
    15    5   10 ar
    16    6    7 ar
    17    6   25 1 
    18    7    8 ar
    19    7   26 1 
    20    8    9 ar
    21    8   11 1 
    22    9   10 ar
    23    9   27 1 
    24   10   28 1 
    25   11   12 1 
    26   11   13 1 
    27   11   29 1 
    28   12   30 1 
    29   12   31 1 
    30   12   32 1 
    31   13   14 ar
    32   13   15 ar
@<TRIPOS>SUBSTRUCTURE
1 MOL         1
@<TRIPOS>MOLECULE
query molecule
   32    32     1     0     0
SMALL
NO_CHARGE

@<TRIPOS>ATOM
      1 C         -12.8659  -18.8327  -19.7264 C.3       1 MOL     0.0072
      2 C         -12.3929  -19.9638  -20.5907 C.3       1 MOL    -0.0128
      3 C         -11.0202  -19.6921  -21.1183 C.3       1 MOL     0.0072
      4 C         -12.4096  -21.2365  -19.7911 C.3       1 MOL     0.0379
      5 C         -13.7079  -21.9403  -19.9301 C.ar      1 MOL    -0.0471
      6 C         -14.5987  -21.8899  -18.8832 C.ar      1 MOL     0.0037
      7 C         -15.8057  -22.5231  -18.9666 C.ar      1 MOL     0.0044
      8 C         -16.1514  -23.2215  -20.0976 C.ar      1 MOL    -0.0391
      9 C         -15.2706  -23.2783  -21.1491 C.ar      1 MOL     0.0044
     10 C         -14.0526  -22.6385  -21.0622 C.ar      1 MOL     0.0037
     11 C         -17.4463  -23.9133  -20.2139 C.3       1 MOL     0.0614
     12 C         -17.7147  -24.6912  -18.9259 C.3       1 MOL     0.0185
     13 C         -18.4909  -22.8652  -20.4086 C.2       1 MOL     0.0489
     14 O         -18.1763  -21.6898  -20.6453 O.co2     1 MOL    -0.5492
     15 O         -19.8052  -23.2254  -20.3210 O.co2     1 MOL    -0.5492
     16 H         -12.8554  -17.9237  -20.2920 H         1 MOL     0.0232
     17 H         -12.2174  -18.7341  -18.8810 H         1 MOL     0.0232
     18 H         -13.8618  -19.0330  -19.3913 H         1 MOL     0.0232
     19 H         -13.0487  -20.0630  -21.4295 H         1 MOL     0.0299
     20 H         -10.3383  -19.5875  -20.3001 H         1 MOL     0.0232
     21 H         -11.0307  -18.7884  -21.6907 H         1 MOL     0.0232
     22 H         -10.7088  -20.5052  -21.7401 H         1 MOL     0.0232
     23 H         -12.2475  -21.0032  -18.7598 H         1 MOL     0.0316
     24 H         -11.6358  -21.8774  -20.1588 H         1 MOL     0.0316
     25 H         -14.3524  -21.3695  -18.0266 H         1 MOL     0.0620
     26 H         -16.4636  -22.4764  -18.1724 H         1 MOL     0.0621
     27 H         -15.5198  -23.7993  -22.0046 H         1 MOL     0.0621
     28 H         -13.3929  -22.6838  -21.8545 H         1 MOL     0.0620
     29 H         -17.4506  -24.6001  -21.0346 H         1 MOL     0.0406
     30 H         -17.7131  -24.0166  -18.0951 H         1 MOL     0.0239
     31 H         -16.9499  -25.4272  -18.7889 H         1 MOL     0.0239
     32 H         -18.6668  -25.1740  -18.9930 H         1 MOL     0.0239
@<TRIPOS>BOND
     1    1    2 1 
     2    1   16 1 
     3    1   17 1 
     4    1   18 1 
     5    2    3 1 
     6    2    4 1 
     7    2   19 1 
     8    3   20 1 
     9    3   21 1 
    10    3   22 1 
    11    4    5 1 
    12    4   23 1 
    13    4   24 1 
    14    5    6 ar
    15    5   10 ar
    16    6    7 ar
    17    6   25 1 
    18    7    8 ar
    19    7   26 1 
    20    8    9 ar
    21    8   11 1 
    22    9   10 ar
    23    9   27 1 
    24   10   28 1 
    25   11   12 1 
    26   11   13 1 
    27   11   29 1 
    28   12   30 1 
    29   12   31 1 
    30   12   32 1 
    31   13   14 ar
    32   13   15 ar
@<TRIPOS>SUBSTRUCTURE
1 MOL         1
@<TRIPOS>MOLECULE
query molecule
   32    32     1     0     0
SMALL
NO_CHARGE

@<TRIPOS>ATOM
      1 C         -42.1818  -64.6735  -17.7690 C.3       1 MOL     0.0072
      2 C         -43.3648  -65.5293  -17.4252 C.3       1 MOL    -0.0128
      3 C         -43.1840  -66.9202  -17.9442 C.3       1 MOL     0.0072
      4 C         -43.5483  -65.5415  -15.9333 C.3       1 MOL     0.0379
      5 C         -42.4839  -66.3322  -15.2684 C.ar      1 MOL    -0.0471
      6 C         -42.7588  -67.6301  -14.9046 C.ar      1 MOL     0.0037
      7 C         -41.8095  -68.3954  -14.2898 C.ar      1 MOL     0.0044
      8 C         -40.5634  -67.8825  -14.0240 C.ar      1 MOL    -0.0391
      9 C         -40.2774  -66.5887  -14.3830 C.ar      1 MOL     0.0044
     10 C         -41.2376  -65.8181  -15.0031 C.ar      1 MOL     0.0037
     11 C         -39.5214  -68.6859  -13.3624 C.3       1 MOL     0.0614
     12 C         -39.1699  -69.8784  -14.2515 C.3       1 MOL     0.0185
     13 C         -38.3290  -67.8054  -13.1883 C.2       1 MOL     0.0489
     14 O         -37.2366  -68.1073  -13.6903 O.co2     1 MOL    -0.5492
     15 O         -38.4631  -66.6561  -12.4630 O.co2     1 MOL    -0.5492
     16 H         -42.0471  -64.6621  -18.8311 H         1 MOL     0.0232
     17 H         -41.3052  -65.0722  -17.3027 H         1 MOL     0.0232
     18 H         -42.3502  -63.6765  -17.4200 H         1 MOL     0.0232
     19 H         -44.2391  -65.1221  -17.8870 H         1 MOL     0.0299
     20 H         -42.3139  -67.3562  -17.4990 H         1 MOL     0.0232
     21 H         -43.0638  -66.8912  -19.0068 H         1 MOL     0.0232
     22 H         -44.0432  -67.5082  -17.6979 H         1 MOL     0.0232
     23 H         -44.4996  -65.9725  -15.7019 H         1 MOL     0.0316
     24 H         -43.4942  -64.5340  -15.5773 H         1 MOL     0.0316
     25 H         -43.6910  -68.0288  -15.0973 H         1 MOL     0.0620
     26 H         -42.0309  -69.3677  -14.0226 H         1 MOL     0.0621
     27 H         -39.3441  -66.1927  -14.1892 H         1 MOL     0.0621
     28 H         -41.0192  -64.8457  -15.2711 H         1 MOL     0.0620
     29 H         -39.8542  -69.0536  -12.4141 H         1 MOL     0.0406
     30 H         -38.8353  -69.5257  -15.2049 H         1 MOL     0.0239
     31 H         -40.0370  -70.4920  -14.3827 H         1 MOL     0.0239
     32 H         -38.3939  -70.4512  -13.7892 H         1 MOL     0.0239
@<TRIPOS>BOND
     1    1    2 1 
     2    1   16 1 
     3    1   17 1 
     4    1   18 1 
     5    2    3 1 
     6    2    4 1 
     7    2   19 1 
     8    3   20 1 
     9    3   21 1 
    10    3   22 1 
    11    4    5 1 
    12    4   23 1 
    13    4   24 1 
    14    5    6 ar
    15    5   10 ar
    16    6    7 ar
    17    6   25 1 
    18    7    8 ar
    19    7   26 1 
    20    8    9 ar
    21    8   11 1 
    22    9   10 ar
    23    9   27 1 
    24   10   28 1 
    25   11   12 1 
    26   11   13 1 
    27   11   29 1 
    28   12   30 1 
    29   12   31 1 
    30   12   32 1 
    31   13   14 ar
    32   13   15 ar
@<TRIPOS>SUBSTRUCTURE
1 MOL         1
@<TRIPOS>MOLECULE
query molecule
   32    32     1     0     0
SMALL
NO_CHARGE

@<TRIPOS>ATOM
      1 C          -9.8914  -28.9222  -24.4234 C.3       1 MOL     0.0072
      2 C         -11.1681  -29.5497  -23.9478 C.3       1 MOL    -0.0128
      3 C         -11.2538  -29.5158  -22.4552 C.3       1 MOL     0.0072
      4 C         -12.3331  -28.8240  -24.5608 C.3       1 MOL     0.0379
      5 C         -12.5886  -27.5377  -23.8678 C.ar      1 MOL    -0.0471
      6 C         -11.7295  -26.4873  -24.0930 C.ar      1 MOL     0.0037
      7 C         -11.9254  -25.2847  -23.4764 C.ar      1 MOL     0.0044
      8 C         -12.9841  -25.1029  -22.6205 C.ar      1 MOL    -0.0391
      9 C         -13.8485  -26.1439  -22.3885 C.ar      1 MOL     0.0044
     10 C         -13.6482  -27.3570  -23.0119 C.ar      1 MOL     0.0037
     11 C         -13.2187  -23.8167  -21.9428 C.3       1 MOL     0.0614
     12 C         -11.8730  -23.1991  -21.5632 C.3       1 MOL     0.0185
     13 C         -13.9357  -22.9330  -22.9084 C.2       1 MOL     0.0489
     14 O         -14.3219  -21.8042  -22.5719 O.co2     1 MOL    -0.5492
     15 O         -14.1599  -23.3918  -24.1749 O.co2     1 MOL    -0.5492
     16 H          -9.0585  -29.4359  -23.9889 H         1 MOL     0.0232
     17 H          -9.8682  -27.8935  -24.1300 H         1 MOL     0.0232
     18 H          -9.8363  -28.9910  -25.4894 H         1 MOL     0.0232
     19 H         -11.1897  -30.5751  -24.2505 H         1 MOL     0.0299
     20 H         -11.2346  -28.4995  -22.1203 H         1 MOL     0.0232
     21 H         -10.4221  -30.0439  -22.0383 H         1 MOL     0.0232
     22 H         -12.1653  -29.9782  -22.1388 H         1 MOL     0.0232
     23 H         -13.2052  -29.4392  -24.4880 H         1 MOL     0.0316
     24 H         -12.1021  -28.6170  -25.5848 H         1 MOL     0.0316
     25 H         -10.9291  -26.6094  -24.7331 H         1 MOL     0.0620
     26 H         -11.2718  -24.5058  -23.6554 H         1 MOL     0.0621
     27 H         -14.6482  -26.0188  -21.7480 H         1 MOL     0.0621
     28 H         -14.2998  -28.1374  -22.8346 H         1 MOL     0.0620
     29 H         -13.7991  -23.9436  -21.0527 H         1 MOL     0.0406
     30 H         -11.2806  -23.0663  -22.4445 H         1 MOL     0.0239
     31 H         -11.3617  -23.8500  -20.8847 H         1 MOL     0.0239
     32 H         -12.0353  -22.2513  -21.0948 H         1 MOL     0.0239
@<TRIPOS>BOND
     1    1    2 1 
     2    1   16 1 
     3    1   17 1 
     4    1   18 1 
     5    2    3 1 
     6    2    4 1 
     7    2   19 1 
     8    3   20 1 
     9    3   21 1 
    10    3   22 1 
    11    4    5 1 
    12    4   23 1 
    13    4   24 1 
    14    5    6 ar
    15    5   10 ar
    16    6    7 ar
    17    6   25 1 
    18    7    8 ar
    19    7   26 1 
    20    8    9 ar
    21    8   11 1 
    22    9   10 ar
    23    9   27 1 
    24   10   28 1 
    25   11   12 1 
    26   11   13 1 
    27   11   29 1 
    28   12   30 1 
    29   12   31 1 
    30   12   32 1 
    31   13   14 ar
    32   13   15 ar
@<TRIPOS>SUBSTRUCTURE
1 MOL         1
@<TRIPOS>MOLECULE
query molecule
   32    32     1     0     0
SMALL
NO_CHARGE

@<TRIPOS>ATOM
      1 C         -27.7225  -79.6420    6.4417 C.3       1 MOL     0.0072
      2 C         -29.1034  -79.9561    6.9362 C.3       1 MOL    -0.0128
      3 C         -29.0725  -80.3715    8.3725 C.3       1 MOL     0.0072
      4 C         -29.9797  -78.7484    6.7539 C.3       1 MOL     0.0379
      5 C         -31.4078  -79.1337    6.6435 C.ar      1 MOL    -0.0471
      6 C         -32.2461  -78.8610    7.6995 C.ar      1 MOL     0.0037
      7 C         -33.5682  -79.1980    7.6422 C.ar      1 MOL     0.0044
      8 C         -34.0842  -79.8152    6.5290 C.ar      1 MOL    -0.0391
      9 C         -33.2572  -80.0919    5.4687 C.ar      1 MOL     0.0044
     10 C         -31.9228  -79.7510    5.5292 C.ar      1 MOL     0.0037
     11 C         -35.5058  -80.1892    6.4410 C.3       1 MOL     0.0614
     12 C         -36.3629  -79.0027    6.8812 C.3       1 MOL     0.0185
     13 C         -35.7867  -80.5249    5.0142 C.2       1 MOL     0.0489
     14 O         -34.9692  -81.1669    4.3389 O.co2     1 MOL    -0.5492
     15 O         -36.9653  -80.1103    4.4630 O.co2     1 MOL    -0.5492
     16 H         -27.0946  -80.4997    6.5699 H         1 MOL     0.0232
     17 H         -27.3222  -78.8207    6.9985 H         1 MOL     0.0232
     18 H         -27.7659  -79.3834    5.4047 H         1 MOL     0.0232
     19 H         -29.5018  -80.7721    6.3714 H         1 MOL     0.0299
     20 H         -28.6774  -79.5732    8.9658 H         1 MOL     0.0232
     21 H         -28.4518  -81.2361    8.4803 H         1 MOL     0.0232
     22 H         -30.0649  -80.6013    8.6997 H         1 MOL     0.0232
     23 H         -29.6864  -78.2355    5.8622 H         1 MOL     0.0316
     24 H         -29.8649  -78.1148    7.6084 H         1 MOL     0.0316
     25 H         -31.8724  -78.3982    8.5429 H         1 MOL     0.0620
     26 H         -34.1848  -78.9869    8.4429 H         1 MOL     0.0621
     27 H         -33.6338  -80.5546    4.6264 H         1 MOL     0.0621
     28 H         -31.3041  -79.9610    4.7303 H         1 MOL     0.0620
     29 H         -35.7303  -81.0246    7.0711 H         1 MOL     0.0406
     30 H         -36.1489  -78.1583    6.2595 H         1 MOL     0.0239
     31 H         -36.1397  -78.7611    7.8997 H         1 MOL     0.0239
     32 H         -37.3978  -79.2585    6.7935 H         1 MOL     0.0239
@<TRIPOS>BOND
     1    1    2 1 
     2    1   16 1 
     3    1   17 1 
     4    1   18 1 
     5    2    3 1 
     6    2    4 1 
     7    2   19 1 
     8    3   20 1 
     9    3   21 1 
    10    3   22 1 
    11    4    5 1 
    12    4   23 1 
    13    4   24 1 
    14    5    6 ar
    15    5   10 ar
    16    6    7 ar
    17    6   25 1 
    18    7    8 ar
    19    7   26 1 
    20    8    9 ar
    21    8   11 1 
    22    9   10 ar
    23    9   27 1 
    24   10   28 1 
    25   11   12 1 
    26   11   13 1 
    27   11   29 1 
    28   12   30 1 
    29   12   31 1 
    30   12   32 1 
    31   13   14 ar
    32   13   15 ar
@<TRIPOS>SUBSTRUCTURE
1 MOL         1
@<TRIPOS>MOLECULE
query molecule
   32    32     1     0     0
SMALL
NO_CHARGE

@<TRIPOS>ATOM
      1 C         -53.3395  -45.7152   28.9782 C.3       1 MOL     0.0072
      2 C         -53.0191  -46.3975   27.6814 C.3       1 MOL    -0.0128
      3 C         -53.4425  -47.8314   27.7159 C.3       1 MOL     0.0072
      4 C         -53.7050  -45.6707   26.5585 C.3       1 MOL     0.0379
      5 C         -55.1095  -46.1228   26.4057 C.ar      1 MOL    -0.0471
      6 C         -55.9975  -45.8660   27.4244 C.ar      1 MOL     0.0037
      7 C         -57.3003  -46.2639   27.3275 C.ar      1 MOL     0.0044
      8 C         -57.7467  -46.9275   26.2110 C.ar      1 MOL    -0.0391
      9 C         -56.8697  -47.1889   25.1877 C.ar      1 MOL     0.0044
     10 C         -55.5550  -46.7865   25.2882 C.ar      1 MOL     0.0037
     11 C         -59.1460  -47.3676   26.0807 C.3       1 MOL     0.0614
     12 C         -59.7615  -47.4953   27.4739 C.3       1 MOL     0.0185
     13 C         -59.8660  -46.3231   25.2944 C.2       1 MOL     0.0489
     14 O         -59.6270  -45.1192   25.4674 O.co2     1 MOL    -0.5492
     15 O         -60.7969  -46.7187   24.3770 O.co2     1 MOL    -0.5492
     16 H         -52.8530  -46.2298   29.7812 H         1 MOL     0.0232
     17 H         -54.3977  -45.7274   29.1361 H         1 MOL     0.0232
     18 H         -52.9952  -44.7031   28.9426 H         1 MOL     0.0232
     19 H         -51.9615  -46.3755   27.5247 H         1 MOL     0.0299
     20 H         -54.4998  -47.8870   27.8718 H         1 MOL     0.0232
     21 H         -52.9379  -48.3329   28.5149 H         1 MOL     0.0232
     22 H         -53.1940  -48.3000   26.7867 H         1 MOL     0.0232
     23 H         -53.1769  -45.8578   25.6472 H         1 MOL     0.0316
     24 H         -53.7085  -44.6249   26.7844 H         1 MOL     0.0316
     25 H         -55.6763  -45.3688   28.2699 H         1 MOL     0.0620
     26 H         -57.9548  -46.0641   28.1005 H         1 MOL     0.0621
     27 H         -57.1939  -47.6861   24.3433 H         1 MOL     0.0621
     28 H         -54.8984  -46.9852   24.5171 H         1 MOL     0.0620
     29 H         -59.2138  -48.3159   25.5894 H         1 MOL     0.0406
     30 H         -59.7007  -46.5533   27.9781 H         1 MOL     0.0239
     31 H         -59.2259  -48.2342   28.0330 H         1 MOL     0.0239
     32 H         -60.7865  -47.7883   27.3852 H         1 MOL     0.0239
@<TRIPOS>BOND
     1    1    2 1 
     2    1   16 1 
     3    1   17 1 
     4    1   18 1 
     5    2    3 1 
     6    2    4 1 
     7    2   19 1 
     8    3   20 1 
     9    3   21 1 
    10    3   22 1 
    11    4    5 1 
    12    4   23 1 
    13    4   24 1 
    14    5    6 ar
    15    5   10 ar
    16    6    7 ar
    17    6   25 1 
    18    7    8 ar
    19    7   26 1 
    20    8    9 ar
    21    8   11 1 
    22    9   10 ar
    23    9   27 1 
    24   10   28 1 
    25   11   12 1 
    26   11   13 1 
    27   11   29 1 
    28   12   30 1 
    29   12   31 1 
    30   12   32 1 
    31   13   14 ar
    32   13   15 ar
@<TRIPOS>SUBSTRUCTURE
1 MOL         1
@<TRIPOS>MOLECULE
query molecule
   32    32     1     0     0
SMALL
NO_CHARGE

@<TRIPOS>ATOM
      1 C          -7.2979  -42.2605  -22.8246 C.3       1 MOL     0.0072
      2 C          -8.5939  -42.8850  -22.4000 C.3       1 MOL    -0.0128
      3 C          -9.5722  -41.8393  -21.9688 C.3       1 MOL     0.0072
      4 C          -9.1503  -43.6914  -23.5401 C.3       1 MOL     0.0379
      5 C          -9.6255  -42.8129  -24.6367 C.ar      1 MOL    -0.0471
      6 C         -10.9686  -42.5262  -24.7146 C.ar      1 MOL     0.0037
      7 C         -11.4512  -41.7223  -25.7074 C.ar      1 MOL     0.0044
      8 C         -10.6038  -41.1858  -26.6457 C.ar      1 MOL    -0.0391
      9 C          -9.2613  -41.4645  -26.5777 C.ar      1 MOL     0.0044
     10 C          -8.7767  -42.2766  -25.5747 C.ar      1 MOL     0.0037
     11 C         -11.0977  -40.3159  -27.7265 C.3       1 MOL     0.0614
     12 C         -12.2063  -41.0436  -28.4865 C.3       1 MOL     0.0185
     13 C         -11.6383  -39.0806  -27.0868 C.2       1 MOL     0.0489
     14 O         -10.9017  -38.1123  -26.8498 O.co2     1 MOL    -0.5492
     15 O         -12.9649  -39.0356  -26.7657 O.co2     1 MOL    -0.5492
     16 H          -6.8979  -41.6847  -22.0154 H         1 MOL     0.0232
     17 H          -7.4680  -41.6223  -23.6664 H         1 MOL     0.0232
     18 H          -6.6036  -43.0287  -23.0932 H         1 MOL     0.0232
     19 H          -8.4170  -43.5277  -21.5638 H         1 MOL     0.0299
     20 H          -9.7706  -41.1782  -22.7867 H         1 MOL     0.0232
     21 H          -9.1622  -41.2826  -21.1524 H         1 MOL     0.0232
     22 H         -10.4832  -42.3076  -21.6600 H         1 MOL     0.0232
     23 H          -9.9695  -44.2801  -23.1844 H         1 MOL     0.0316
     24 H          -8.3725  -44.3192  -23.9218 H         1 MOL     0.0316
     25 H         -11.6176  -42.9228  -24.0169 H         1 MOL     0.0620
     26 H         -12.4619  -41.5164  -25.7527 H         1 MOL     0.0621
     27 H          -8.6146  -41.0662  -27.2767 H         1 MOL     0.0621
     28 H          -7.7669  -42.4843  -25.5271 H         1 MOL     0.0620
     29 H         -10.3178  -40.0673  -28.4158 H         1 MOL     0.0406
     30 H         -12.9943  -41.2992  -27.8090 H         1 MOL     0.0239
     31 H         -11.8102  -41.9357  -28.9255 H         1 MOL     0.0239
     32 H         -12.5884  -40.4064  -29.2560 H         1 MOL     0.0239
@<TRIPOS>BOND
     1    1    2 1 
     2    1   16 1 
     3    1   17 1 
     4    1   18 1 
     5    2    3 1 
     6    2    4 1 
     7    2   19 1 
     8    3   20 1 
     9    3   21 1 
    10    3   22 1 
    11    4    5 1 
    12    4   23 1 
    13    4   24 1 
    14    5    6 ar
    15    5   10 ar
    16    6    7 ar
    17    6   25 1 
    18    7    8 ar
    19    7   26 1 
    20    8    9 ar
    21    8   11 1 
    22    9   10 ar
    23    9   27 1 
    24   10   28 1 
    25   11   12 1 
    26   11   13 1 
    27   11   29 1 
    28   12   30 1 
    29   12   31 1 
    30   12   32 1 
    31   13   14 ar
    32   13   15 ar
@<TRIPOS>SUBSTRUCTURE
1 MOL         1
@<TRIPOS>MOLECULE
query molecule
   32    32     1     0     0
SMALL
NO_CHARGE

@<TRIPOS>ATOM
      1 C         -24.9111  -25.5951    2.9928 C.3       1 MOL     0.0072
      2 C         -24.5205  -26.0744    1.6262 C.3       1 MOL    -0.0128
      3 C         -24.1355  -27.5190    1.6589 C.3       1 MOL     0.0072
      4 C         -25.6671  -25.8542    0.6794 C.3       1 MOL     0.0379
      5 C         -25.1869  -25.3975   -0.6476 C.ar      1 MOL    -0.0471
      6 C         -24.5418  -24.1855   -0.7321 C.ar      1 MOL     0.0037
      7 C         -24.0829  -23.7247   -1.9329 C.ar      1 MOL     0.0044
      8 C         -24.2574  -24.4636   -3.0775 C.ar      1 MOL    -0.0391
      9 C         -24.8992  -25.6750   -3.0053 C.ar      1 MOL     0.0044
     10 C         -25.3619  -26.1377   -1.7919 C.ar      1 MOL     0.0037
     11 C         -23.7724  -23.9904   -4.3850 C.3       1 MOL     0.0614
     12 C         -23.1725  -25.1687   -5.1518 C.3       1 MOL     0.0185
     13 C         -24.9499  -23.4440   -5.1214 C.2       1 MOL     0.0489
     14 O         -24.8072  -22.5767   -5.9954 O.co2     1 MOL    -0.5492
     15 O         -26.1931  -23.9183   -4.8140 O.co2     1 MOL    -0.5492
     16 H         -24.0971  -25.7502    3.6709 H         1 MOL     0.0232
     17 H         -25.7665  -26.1413    3.3317 H         1 MOL     0.0232
     18 H         -25.1467  -24.5525    2.9507 H         1 MOL     0.0232
     19 H         -23.6705  -25.5199    1.2890 H         1 MOL     0.0299
     20 H         -24.9682  -28.1021    1.9934 H         1 MOL     0.0232
     21 H         -23.3137  -27.6537    2.3305 H         1 MOL     0.0232
     22 H         -23.8501  -27.8353    0.6775 H         1 MOL     0.0232
     23 H         -26.3205  -25.1126    1.0885 H         1 MOL     0.0316
     24 H         -26.1836  -26.7825    0.5516 H         1 MOL     0.0316
     25 H         -24.4040  -23.6189    0.1195 H         1 MOL     0.0620
     26 H         -23.6008  -22.8130   -1.9804 H         1 MOL     0.0621
     27 H         -25.0353  -26.2396   -3.8586 H         1 MOL     0.0621
     28 H         -25.8444  -27.0486   -1.7416 H         1 MOL     0.0620
     29 H         -23.0204  -23.2371   -4.2741 H         1 MOL     0.0406
     30 H         -23.9138  -25.9313   -5.2704 H         1 MOL     0.0239
     31 H         -22.3406  -25.5622   -4.6053 H         1 MOL     0.0239
     32 H         -22.8429  -24.8372   -6.1139 H         1 MOL     0.0239
@<TRIPOS>BOND
     1    1    2 1 
     2    1   16 1 
     3    1   17 1 
     4    1   18 1 
     5    2    3 1 
     6    2    4 1 
     7    2   19 1 
     8    3   20 1 
     9    3   21 1 
    10    3   22 1 
    11    4    5 1 
    12    4   23 1 
    13    4   24 1 
    14    5    6 ar
    15    5   10 ar
    16    6    7 ar
    17    6   25 1 
    18    7    8 ar
    19    7   26 1 
    20    8    9 ar
    21    8   11 1 
    22    9   10 ar
    23    9   27 1 
    24   10   28 1 
    25   11   12 1 
    26   11   13 1 
    27   11   29 1 
    28   12   30 1 
    29   12   31 1 
    30   12   32 1 
    31   13   14 ar
    32   13   15 ar
@<TRIPOS>SUBSTRUCTURE
1 MOL         1
@<TRIPOS>MOLECULE
query molecule
   32    32     1     0     0
SMALL
NO_CHARGE

@<TRIPOS>ATOM
      1 C          -9.6262  -71.9357   -3.4584 C.3       1 MOL     0.0072
      2 C         -11.0319  -72.4439   -3.5845 C.3       1 MOL    -0.0128
      3 C         -11.6920  -71.8856   -4.8047 C.3       1 MOL     0.0072
      4 C         -11.0111  -73.9461   -3.6352 C.3       1 MOL     0.0379
      5 C         -12.2250  -74.4771   -4.3021 C.ar      1 MOL    -0.0471
      6 C         -13.3969  -74.5366   -3.5842 C.ar      1 MOL     0.0037
      7 C         -14.5390  -75.0184   -4.1571 C.ar      1 MOL     0.0044
      8 C         -14.5376  -75.4520   -5.4604 C.ar      1 MOL    -0.0391
      9 C         -13.3741  -75.3967   -6.1868 C.ar      1 MOL     0.0044
     10 C         -12.2223  -74.9103   -5.6060 C.ar      1 MOL     0.0037
     11 C         -15.7550  -75.9758   -6.1025 C.3       1 MOL     0.0614
     12 C         -16.8930  -75.9868   -5.0822 C.3       1 MOL     0.0185
     13 C         -16.0870  -75.0598   -7.2330 C.2       1 MOL     0.0489
     14 O         -16.3782  -73.8729   -7.0256 O.co2     1 MOL    -0.5492
     15 O         -16.0645  -75.5543   -8.5057 O.co2     1 MOL    -0.5492
     16 H          -9.6362  -70.8657   -3.4221 H         1 MOL     0.0232
     17 H          -9.0529  -72.2585   -4.3021 H         1 MOL     0.0232
     18 H          -9.1881  -72.3191   -2.5610 H         1 MOL     0.0232
     19 H         -11.5982  -72.1254   -2.7351 H         1 MOL     0.0299
     20 H         -11.1468  -72.1880   -5.6746 H         1 MOL     0.0232
     21 H         -11.7047  -70.8175   -4.7459 H         1 MOL     0.0232
     22 H         -12.6953  -72.2518   -4.8676 H         1 MOL     0.0232
     23 H         -10.9652  -74.3287   -2.6373 H         1 MOL     0.0316
     24 H         -10.1540  -74.2540   -4.1968 H         1 MOL     0.0316
     25 H         -13.4130  -74.2151   -2.6036 H         1 MOL     0.0620
     26 H         -15.4108  -75.0571   -3.6054 H         1 MOL     0.0621
     27 H         -13.3611  -75.7189   -7.1673 H         1 MOL     0.0621
     28 H         -11.3494  -74.8708   -6.1551 H         1 MOL     0.0620
     29 H         -15.6094  -76.9732   -6.4620 H         1 MOL     0.0406
     30 H         -17.0503  -74.9947   -4.7130 H         1 MOL     0.0239
     31 H         -16.6354  -76.6331   -4.2689 H         1 MOL     0.0239
     32 H         -17.7876  -76.3407   -5.5498 H         1 MOL     0.0239
@<TRIPOS>BOND
     1    1    2 1 
     2    1   16 1 
     3    1   17 1 
     4    1   18 1 
     5    2    3 1 
     6    2    4 1 
     7    2   19 1 
     8    3   20 1 
     9    3   21 1 
    10    3   22 1 
    11    4    5 1 
    12    4   23 1 
    13    4   24 1 
    14    5    6 ar
    15    5   10 ar
    16    6    7 ar
    17    6   25 1 
    18    7    8 ar
    19    7   26 1 
    20    8    9 ar
    21    8   11 1 
    22    9   10 ar
    23    9   27 1 
    24   10   28 1 
    25   11   12 1 
    26   11   13 1 
    27   11   29 1 
    28   12   30 1 
    29   12   31 1 
    30   12   32 1 
    31   13   14 ar
    32   13   15 ar
@<TRIPOS>SUBSTRUCTURE
1 MOL         1
@<TRIPOS>MOLECULE
query molecule
   32    32     1     0     0
SMALL
NO_CHARGE

@<TRIPOS>ATOM
      1 C         -48.4268  -27.7200  -12.3615 C.3       1 MOL     0.0072
      2 C         -49.8831  -28.0745  -12.3029 C.3       1 MOL    -0.0128
      3 C         -50.3126  -28.7683  -13.5562 C.3       1 MOL     0.0072
      4 C         -50.1310  -28.9470  -11.1042 C.3       1 MOL     0.0379
      5 C         -51.0132  -28.2709  -10.1219 C.ar      1 MOL    -0.0471
      6 C         -51.4117  -28.9694   -9.0059 C.ar      1 MOL     0.0037
      7 C         -52.2239  -28.3874   -8.0750 C.ar      1 MOL     0.0044
      8 C         -52.6571  -27.0941   -8.2369 C.ar      1 MOL    -0.0391
      9 C         -52.2654  -26.3870   -9.3465 C.ar      1 MOL     0.0044
     10 C         -51.4458  -26.9770  -10.2849 C.ar      1 MOL     0.0037
     11 C         -53.5332  -26.4425   -7.2487 C.3       1 MOL     0.0614
     12 C         -54.3658  -27.5096   -6.5385 C.3       1 MOL     0.0185
     13 C         -52.6505  -25.7433   -6.2692 C.2       1 MOL     0.0489
     14 O         -51.4395  -25.6011   -6.4927 O.co2     1 MOL    -0.5492
     15 O         -53.2027  -25.2607   -5.1173 O.co2     1 MOL    -0.5492
     16 H         -48.2454  -27.0986  -13.2143 H         1 MOL     0.0232
     17 H         -47.8447  -28.6142  -12.4417 H         1 MOL     0.0232
     18 H         -48.1523  -27.1937  -11.4716 H         1 MOL     0.0232
     19 H         -50.4597  -27.1782  -12.2147 H         1 MOL     0.0299
     20 H         -49.7519  -29.6723  -13.6730 H         1 MOL     0.0232
     21 H         -50.1365  -28.1290  -14.3957 H         1 MOL     0.0232
     22 H         -51.3553  -29.0007  -13.4968 H         1 MOL     0.0232
     23 H         -49.1957  -29.1721  -10.6365 H         1 MOL     0.0316
     24 H         -50.6140  -29.8437  -11.4322 H         1 MOL     0.0316
     25 H         -51.0947  -29.9423   -8.8711 H         1 MOL     0.0620
     26 H         -52.5146  -28.9246   -7.2427 H         1 MOL     0.0621
     27 H         -52.5839  -25.4141   -9.4785 H         1 MOL     0.0621
     28 H         -51.1539  -26.4424  -11.1180 H         1 MOL     0.0620
     29 H         -54.1979  -25.7452   -7.7147 H         1 MOL     0.0406
     30 H         -53.7138  -28.2153   -6.0673 H         1 MOL     0.0239
     31 H         -54.9810  -28.0150   -7.2538 H         1 MOL     0.0239
     32 H         -54.9849  -27.0455   -5.7999 H         1 MOL     0.0239
@<TRIPOS>BOND
     1    1    2 1 
     2    1   16 1 
     3    1   17 1 
     4    1   18 1 
     5    2    3 1 
     6    2    4 1 
     7    2   19 1 
     8    3   20 1 
     9    3   21 1 
    10    3   22 1 
    11    4    5 1 
    12    4   23 1 
    13    4   24 1 
    14    5    6 ar
    15    5   10 ar
    16    6    7 ar
    17    6   25 1 
    18    7    8 ar
    19    7   26 1 
    20    8    9 ar
    21    8   11 1 
    22    9   10 ar
    23    9   27 1 
    24   10   28 1 
    25   11   12 1 
    26   11   13 1 
    27   11   29 1 
    28   12   30 1 
    29   12   31 1 
    30   12   32 1 
    31   13   14 ar
    32   13   15 ar
@<TRIPOS>SUBSTRUCTURE
1 MOL         1
@<TRIPOS>MOLECULE
query molecule
   32    32     1     0     0
SMALL
NO_CHARGE

@<TRIPOS>ATOM
      1 C         -69.7127  -53.3660   18.8225 C.3       1 MOL     0.0072
      2 C         -70.8294  -54.1625   18.2154 C.3       1 MOL    -0.0128
      3 C         -70.8255  -55.5652   18.7339 C.3       1 MOL     0.0072
      4 C         -72.1385  -53.4897   18.5207 C.3       1 MOL     0.0379
      5 C         -72.1831  -53.0158   19.9256 C.ar      1 MOL    -0.0471
      6 C         -72.3374  -53.9447   20.9284 C.ar      1 MOL     0.0037
      7 C         -72.3842  -53.5542   22.2361 C.ar      1 MOL     0.0044
      8 C         -72.2778  -52.2270   22.5731 C.ar      1 MOL    -0.0391
      9 C         -72.1228  -51.2910   21.5808 C.ar      1 MOL     0.0044
     10 C         -72.0764  -51.6877   20.2614 C.ar      1 MOL     0.0037
     11 C         -72.3249  -51.7788   23.9751 C.3       1 MOL     0.0614
     12 C         -72.5971  -50.2751   24.0102 C.3       1 MOL     0.0185
     13 C         -73.4390  -52.5184   24.6379 C.2       1 MOL     0.0489
     14 O         -74.5498  -52.6142   24.0962 O.co2     1 MOL    -0.5492
     15 O         -73.2122  -53.0902   25.8570 O.co2     1 MOL    -0.5492
     16 H         -68.7780  -53.8419   18.6076 H         1 MOL     0.0232
     17 H         -69.8491  -53.3103   19.8823 H         1 MOL     0.0232
     18 H         -69.7139  -52.3792   18.4098 H         1 MOL     0.0232
     19 H         -70.6927  -54.2083   17.1557 H         1 MOL     0.0299
     20 H         -70.9610  -55.5529   19.7954 H         1 MOL     0.0232
     21 H         -69.8905  -56.0292   18.4996 H         1 MOL     0.0232
     22 H         -71.6217  -56.1166   18.2793 H         1 MOL     0.0232
     23 H         -72.9346  -54.1862   18.3617 H         1 MOL     0.0316
     24 H         -72.2430  -52.6435   17.8743 H         1 MOL     0.0316
     25 H         -72.4194  -54.9456   20.6903 H         1 MOL     0.0620
     26 H         -72.5007  -54.2631   22.9776 H         1 MOL     0.0621
     27 H         -72.0409  -50.2907   21.8220 H         1 MOL     0.0621
     28 H         -71.9603  -50.9812   19.5182 H         1 MOL     0.0620
     29 H         -71.4000  -51.9700   24.4782 H         1 MOL     0.0406
     30 H         -73.5201  -50.0682   23.5097 H         1 MOL     0.0239
     31 H         -71.8004  -49.7579   23.5170 H         1 MOL     0.0239
     32 H         -72.6598  -49.9479   25.0266 H         1 MOL     0.0239
@<TRIPOS>BOND
     1    1    2 1 
     2    1   16 1 
     3    1   17 1 
     4    1   18 1 
     5    2    3 1 
     6    2    4 1 
     7    2   19 1 
     8    3   20 1 
     9    3   21 1 
    10    3   22 1 
    11    4    5 1 
    12    4   23 1 
    13    4   24 1 
    14    5    6 ar
    15    5   10 ar
    16    6    7 ar
    17    6   25 1 
    18    7    8 ar
    19    7   26 1 
    20    8    9 ar
    21    8   11 1 
    22    9   10 ar
    23    9   27 1 
    24   10   28 1 
    25   11   12 1 
    26   11   13 1 
    27   11   29 1 
    28   12   30 1 
    29   12   31 1 
    30   12   32 1 
    31   13   14 ar
    32   13   15 ar
@<TRIPOS>SUBSTRUCTURE
1 MOL         1
@<TRIPOS>MOLECULE
query molecule
   32    32     1     0     0
SMALL
NO_CHARGE

@<TRIPOS>ATOM
      1 C         -56.4169  -57.9535  -25.9495 C.3       1 MOL     0.0072
      2 C         -55.9121  -57.4363  -24.6351 C.3       1 MOL    -0.0128
      3 C         -57.0352  -56.8929  -23.8105 C.3       1 MOL     0.0072
      4 C         -55.2093  -58.5464  -23.9048 C.3       1 MOL     0.0379
      5 C         -56.1324  -59.6732  -23.6251 C.ar      1 MOL    -0.0471
      6 C         -55.6475  -60.7682  -22.9482 C.ar      1 MOL     0.0037
      7 C         -56.4610  -61.8289  -22.6689 C.ar      1 MOL     0.0044
      8 C         -57.7779  -61.8209  -23.0590 C.ar      1 MOL    -0.0391
      9 C         -58.2731  -60.7333  -23.7347 C.ar      1 MOL     0.0044
     10 C         -57.4497  -59.6640  -24.0157 C.ar      1 MOL     0.0037
     11 C         -58.6768  -62.9512  -22.7707 C.3       1 MOL     0.0614
     12 C         -57.8404  -64.2117  -22.5521 C.3       1 MOL     0.0185
     13 C         -59.4288  -62.6112  -21.5272 C.2       1 MOL     0.0489
     14 O         -60.2495  -63.4042  -21.0433 O.co2     1 MOL    -0.5492
     15 O         -59.1960  -61.4058  -20.9292 O.co2     1 MOL    -0.5492
     16 H         -56.9187  -57.1659  -26.4732 H         1 MOL     0.0232
     17 H         -57.0998  -58.7590  -25.7777 H         1 MOL     0.0232
     18 H         -55.5925  -58.3026  -26.5350 H         1 MOL     0.0232
     19 H         -55.2242  -56.6370  -24.8127 H         1 MOL     0.0299
     20 H         -57.7429  -57.6716  -23.6151 H         1 MOL     0.0232
     21 H         -57.5167  -56.0996  -24.3428 H         1 MOL     0.0232
     22 H         -56.6509  -56.5199  -22.8844 H         1 MOL     0.0232
     23 H         -54.8281  -58.1692  -22.9792 H         1 MOL     0.0316
     24 H         -54.4127  -58.9063  -24.5219 H         1 MOL     0.0316
     25 H         -54.6598  -60.7886  -22.6493 H         1 MOL     0.0620
     26 H         -56.0824  -62.6436  -22.1603 H         1 MOL     0.0621
     27 H         -59.2614  -60.7156  -24.0321 H         1 MOL     0.0621
     28 H         -57.8254  -58.8483  -24.5243 H         1 MOL     0.0620
     29 H         -59.3551  -63.1277  -23.5794 H         1 MOL     0.0406
     30 H         -57.1561  -64.0499  -21.7454 H         1 MOL     0.0239
     31 H         -57.2931  -64.4346  -23.4444 H         1 MOL     0.0239
     32 H         -58.4858  -65.0311  -22.3151 H         1 MOL     0.0239
@<TRIPOS>BOND
     1    1    2 1 
     2    1   16 1 
     3    1   17 1 
     4    1   18 1 
     5    2    3 1 
     6    2    4 1 
     7    2   19 1 
     8    3   20 1 
     9    3   21 1 
    10    3   22 1 
    11    4    5 1 
    12    4   23 1 
    13    4   24 1 
    14    5    6 ar
    15    5   10 ar
    16    6    7 ar
    17    6   25 1 
    18    7    8 ar
    19    7   26 1 
    20    8    9 ar
    21    8   11 1 
    22    9   10 ar
    23    9   27 1 
    24   10   28 1 
    25   11   12 1 
    26   11   13 1 
    27   11   29 1 
    28   12   30 1 
    29   12   31 1 
    30   12   32 1 
    31   13   14 ar
    32   13   15 ar
@<TRIPOS>SUBSTRUCTURE
1 MOL         1
@<TRIPOS>MOLECULE
query molecule
   32    32     1     0     0
SMALL
NO_CHARGE

@<TRIPOS>ATOM
      1 C         -20.4283  -79.3696  -25.3684 C.3       1 MOL     0.0072
      2 C         -21.2500  -78.8015  -24.2495 C.3       1 MOL    -0.0128
      3 C         -20.3780  -78.3789  -23.1104 C.3       1 MOL     0.0072
      4 C         -22.0478  -77.6365  -24.7650 C.3       1 MOL     0.0379
      5 C         -23.4639  -78.0148  -24.9926 C.ar      1 MOL    -0.0471
      6 C         -24.3633  -77.8448  -23.9657 C.ar      1 MOL     0.0037
      7 C         -25.6769  -78.1797  -24.1298 C.ar      1 MOL     0.0044
      8 C         -26.1233  -78.6922  -25.3234 C.ar      1 MOL    -0.0391
      9 C         -25.2349  -78.8657  -26.3556 C.ar      1 MOL     0.0044
     10 C         -23.9092  -78.5273  -26.1872 C.ar      1 MOL     0.0037
     11 C         -27.5342  -79.0614  -25.5272 C.3       1 MOL     0.0614
     12 C         -28.0340  -79.8224  -24.2995 C.3       1 MOL     0.0185
     13 C         -28.3029  -77.7930  -25.6939 C.2       1 MOL     0.0489
     14 O         -29.5412  -77.8021  -25.7485 O.co2     1 MOL    -0.5492
     15 O         -27.6151  -76.6169  -25.7856 O.co2     1 MOL    -0.5492
     16 H         -19.8580  -80.1999  -25.0056 H         1 MOL     0.0232
     17 H         -19.7652  -78.6175  -25.7418 H         1 MOL     0.0232
     18 H         -21.0754  -79.6975  -26.1545 H         1 MOL     0.0232
     19 H         -21.9163  -79.5546  -23.8854 H         1 MOL     0.0299
     20 H         -19.6976  -77.6231  -23.4441 H         1 MOL     0.0232
     21 H         -19.8256  -79.2222  -22.7524 H         1 MOL     0.0232
     22 H         -20.9853  -77.9884  -22.3209 H         1 MOL     0.0232
     23 H         -21.6227  -77.3032  -25.6883 H         1 MOL     0.0316
     24 H         -22.0191  -76.8563  -24.0333 H         1 MOL     0.0316
     25 H         -24.0422  -77.4614  -23.0628 H         1 MOL     0.0620
     26 H         -26.3399  -78.0465  -23.3497 H         1 MOL     0.0621
     27 H         -25.5589  -79.2492  -27.2575 H         1 MOL     0.0621
     28 H         -23.2442  -78.6596  -26.9652 H         1 MOL     0.0620
     29 H         -27.6548  -79.6856  -26.3881 H         1 MOL     0.0406
     30 H         -27.9193  -79.2099  -23.4294 H         1 MOL     0.0239
     31 H         -27.4638  -80.7203  -24.1811 H         1 MOL     0.0239
     32 H         -29.0665  -80.0697  -24.4295 H         1 MOL     0.0239
@<TRIPOS>BOND
     1    1    2 1 
     2    1   16 1 
     3    1   17 1 
     4    1   18 1 
     5    2    3 1 
     6    2    4 1 
     7    2   19 1 
     8    3   20 1 
     9    3   21 1 
    10    3   22 1 
    11    4    5 1 
    12    4   23 1 
    13    4   24 1 
    14    5    6 ar
    15    5   10 ar
    16    6    7 ar
    17    6   25 1 
    18    7    8 ar
    19    7   26 1 
    20    8    9 ar
    21    8   11 1 
    22    9   10 ar
    23    9   27 1 
    24   10   28 1 
    25   11   12 1 
    26   11   13 1 
    27   11   29 1 
    28   12   30 1 
    29   12   31 1 
    30   12   32 1 
    31   13   14 ar
    32   13   15 ar
@<TRIPOS>SUBSTRUCTURE
1 MOL         1
@<TRIPOS>MOLECULE
query molecule
   32    32     1     0     0
SMALL
NO_CHARGE

@<TRIPOS>ATOM
      1 C         -66.2150  -31.2390   16.1623 C.3       1 MOL     0.0072
      2 C         -67.6281  -30.8732   15.8169 C.3       1 MOL    -0.0128
      3 C         -68.5723  -31.3343   16.8810 C.3       1 MOL     0.0072
      4 C         -67.7223  -29.3840   15.6356 C.3       1 MOL     0.0379
      5 C         -67.4541  -28.6707   16.9082 C.ar      1 MOL    -0.0471
      6 C         -66.1601  -28.3032   17.1960 C.ar      1 MOL     0.0037
      7 C         -65.8662  -27.6452   18.3559 C.ar      1 MOL     0.0044
      8 C         -66.8578  -27.3387   19.2556 C.ar      1 MOL    -0.0391
      9 C         -68.1530  -27.6999   18.9788 C.ar      1 MOL     0.0044
     10 C         -68.4469  -28.3645   17.8073 C.ar      1 MOL     0.0037
     11 C         -66.5685  -26.6298   20.5136 C.3       1 MOL     0.0614
     12 C         -67.4180  -25.3608   20.5789 C.3       1 MOL     0.0185
     13 C         -66.9311  -27.5492   21.6320 C.2       1 MOL     0.0489
     14 O         -67.9901  -27.4015   22.2589 O.co2     1 MOL    -0.5492
     15 O         -66.0718  -28.5605   21.9539 O.co2     1 MOL    -0.5492
     16 H         -66.1431  -32.2993   16.2926 H         1 MOL     0.0232
     17 H         -65.9308  -30.7482   17.0696 H         1 MOL     0.0232
     18 H         -65.5640  -30.9319   15.3710 H         1 MOL     0.0232
     19 H         -67.9042  -31.3598   14.9055 H         1 MOL     0.0299
     20 H         -68.3211  -30.8632   17.8085 H         1 MOL     0.0232
     21 H         -68.4968  -32.3959   16.9889 H         1 MOL     0.0232
     22 H         -69.5733  -31.0733   16.6082 H         1 MOL     0.0232
     23 H         -68.7057  -29.1350   15.2963 H         1 MOL     0.0316
     24 H         -66.9883  -29.0833   14.9175 H         1 MOL     0.0316
     25 H         -65.4044  -28.5275   16.5298 H         1 MOL     0.0620
     26 H         -64.8902  -27.3761   18.5580 H         1 MOL     0.0621
     27 H         -68.9066  -27.4741   19.6469 H         1 MOL     0.0621
     28 H         -69.4217  -28.6349   17.6029 H         1 MOL     0.0620
     29 H         -65.5367  -26.3534   20.5786 H         1 MOL     0.0406
     30 H         -68.4540  -25.6217   20.5147 H         1 MOL     0.0239
     31 H         -67.1610  -24.7183   19.7625 H         1 MOL     0.0239
     32 H         -67.2329  -24.8552   21.5032 H         1 MOL     0.0239
@<TRIPOS>BOND
     1    1    2 1 
     2    1   16 1 
     3    1   17 1 
     4    1   18 1 
     5    2    3 1 
     6    2    4 1 
     7    2   19 1 
     8    3   20 1 
     9    3   21 1 
    10    3   22 1 
    11    4    5 1 
    12    4   23 1 
    13    4   24 1 
    14    5    6 ar
    15    5   10 ar
    16    6    7 ar
    17    6   25 1 
    18    7    8 ar
    19    7   26 1 
    20    8    9 ar
    21    8   11 1 
    22    9   10 ar
    23    9   27 1 
    24   10   28 1 
    25   11   12 1 
    26   11   13 1 
    27   11   29 1 
    28   12   30 1 
    29   12   31 1 
    30   12   32 1 
    31   13   14 ar
    32   13   15 ar
@<TRIPOS>SUBSTRUCTURE
1 MOL         1
@<TRIPOS>MOLECULE
query molecule
   32    32     1     0     0
SMALL
NO_CHARGE

@<TRIPOS>ATOM
      1 C         -24.0702  -38.2747  -23.7612 C.3       1 MOL     0.0072
      2 C         -23.6806  -39.1708  -22.6230 C.3       1 MOL    -0.0128
      3 C         -23.6824  -38.4196  -21.3299 C.3       1 MOL     0.0072
      4 C         -24.6327  -40.3323  -22.5609 C.3       1 MOL     0.0379
      5 C         -25.3033  -40.4060  -21.2399 C.ar      1 MOL    -0.0471
      6 C         -24.7442  -41.1950  -20.2616 C.ar      1 MOL     0.0037
      7 C         -25.3271  -41.2934  -19.0306 C.ar      1 MOL     0.0044
      8 C         -26.4821  -40.6060  -18.7477 C.ar      1 MOL    -0.0391
      9 C         -27.0489  -39.8150  -19.7161 C.ar      1 MOL     0.0044
     10 C         -26.4587  -39.7178  -20.9581 C.ar      1 MOL     0.0037
     11 C         -27.1313  -40.6941  -17.4288 C.3       1 MOL     0.0614
     12 C         -28.2362  -39.6415  -17.3443 C.3       1 MOL     0.0185
     13 C         -27.7155  -42.0628  -17.3148 C.2       1 MOL     0.0489
     14 O         -28.9327  -42.2488  -17.4569 O.co2     1 MOL    -0.5492
     15 O         -26.8817  -43.1114  -17.0498 O.co2     1 MOL    -0.5492
     16 H         -23.3946  -37.4455  -23.8091 H         1 MOL     0.0232
     17 H         -25.0660  -37.9149  -23.6074 H         1 MOL     0.0232
     18 H         -24.0263  -38.8241  -24.6779 H         1 MOL     0.0232
     19 H         -22.6879  -39.5338  -22.7855 H         1 MOL     0.0299
     20 H         -24.6654  -38.0424  -21.1384 H         1 MOL     0.0232
     21 H         -22.9934  -37.6034  -21.3909 H         1 MOL     0.0232
     22 H         -23.3908  -39.0744  -20.5356 H         1 MOL     0.0232
     23 H         -24.0894  -41.2386  -22.7277 H         1 MOL     0.0316
     24 H         -25.3809  -40.1973  -23.3136 H         1 MOL     0.0316
     25 H         -23.8768  -41.7180  -20.4599 H         1 MOL     0.0620
     26 H         -24.8957  -41.8898  -18.3067 H         1 MOL     0.0621
     27 H         -27.9163  -39.2930  -19.5148 H         1 MOL     0.0621
     28 H         -26.8879  -39.1225  -21.6837 H         1 MOL     0.0620
     29 H         -26.4330  -40.5203  -16.6367 H         1 MOL     0.0406
     30 H         -28.9430  -39.8026  -18.1316 H         1 MOL     0.0239
     31 H         -27.8069  -38.6663  -17.4448 H         1 MOL     0.0239
     32 H         -28.7302  -39.7183  -16.3987 H         1 MOL     0.0239
@<TRIPOS>BOND
     1    1    2 1 
     2    1   16 1 
     3    1   17 1 
     4    1   18 1 
     5    2    3 1 
     6    2    4 1 
     7    2   19 1 
     8    3   20 1 
     9    3   21 1 
    10    3   22 1 
    11    4    5 1 
    12    4   23 1 
    13    4   24 1 
    14    5    6 ar
    15    5   10 ar
    16    6    7 ar
    17    6   25 1 
    18    7    8 ar
    19    7   26 1 
    20    8    9 ar
    21    8   11 1 
    22    9   10 ar
    23    9   27 1 
    24   10   28 1 
    25   11   12 1 
    26   11   13 1 
    27   11   29 1 
    28   12   30 1 
    29   12   31 1 
    30   12   32 1 
    31   13   14 ar
    32   13   15 ar
@<TRIPOS>SUBSTRUCTURE
1 MOL         1
@<TRIPOS>MOLECULE
query molecule
   32    32     1     0     0
SMALL
NO_CHARGE

@<TRIPOS>ATOM
      1 C         -63.7746  -40.5109   -9.5998 C.3       1 MOL     0.0072
      2 C         -63.7015  -42.0088   -9.6279 C.3       1 MOL    -0.0128
      3 C         -62.7358  -42.4749  -10.6704 C.3       1 MOL     0.0072
      4 C         -63.2952  -42.5088   -8.2698 C.3       1 MOL     0.0379
      5 C         -64.3234  -43.4149   -7.7022 C.ar      1 MOL    -0.0471
      6 C         -64.9411  -43.0545   -6.5270 C.ar      1 MOL     0.0037
      7 C         -65.8933  -43.8577   -5.9677 C.ar      1 MOL     0.0044
      8 C         -66.2511  -45.0397   -6.5688 C.ar      1 MOL    -0.0391
      9 C         -65.6419  -45.4094   -7.7422 C.ar      1 MOL     0.0044
     10 C         -64.6807  -44.5970   -8.3046 C.ar      1 MOL     0.0037
     11 C         -67.2748  -45.9243   -5.9872 C.3       1 MOL     0.0614
     12 C         -68.1514  -46.4797   -7.1094 C.3       1 MOL     0.0185
     13 C         -66.5571  -47.0363   -5.2974 C.2       1 MOL     0.0489
     14 O         -66.4120  -47.0327   -4.0664 O.co2     1 MOL    -0.5492
     15 O         -66.0608  -48.0624   -6.0495 O.co2     1 MOL    -0.5492
     16 H         -64.0635  -40.1501  -10.5656 H         1 MOL     0.0232
     17 H         -62.8160  -40.1115   -9.3422 H         1 MOL     0.0232
     18 H         -64.4969  -40.2032   -8.8733 H         1 MOL     0.0232
     19 H         -64.6636  -42.4030   -9.8780 H         1 MOL     0.0299
     20 H         -61.7602  -42.0957  -10.4473 H         1 MOL     0.0232
     21 H         -63.0463  -42.1167  -11.6294 H         1 MOL     0.0232
     22 H         -62.7089  -43.5444  -10.6802 H         1 MOL     0.0232
     23 H         -63.1658  -41.6734   -7.6143 H         1 MOL     0.0316
     24 H         -62.3806  -43.0549   -8.3697 H         1 MOL     0.0316
     25 H         -64.6820  -42.1695   -6.0635 H         1 MOL     0.0620
     26 H         -66.3478  -43.5737   -5.0853 H         1 MOL     0.0621
     27 H         -65.9033  -46.2950   -8.2036 H         1 MOL     0.0621
     28 H         -64.2245  -44.8785   -9.1865 H         1 MOL     0.0620
     29 H         -67.8990  -45.3982   -5.2952 H         1 MOL     0.0406
     30 H         -67.5400  -47.0089   -7.8105 H         1 MOL     0.0239
     31 H         -68.6465  -45.6718   -7.6069 H         1 MOL     0.0239
     32 H         -68.8801  -47.1449   -6.6964 H         1 MOL     0.0239
@<TRIPOS>BOND
     1    1    2 1 
     2    1   16 1 
     3    1   17 1 
     4    1   18 1 
     5    2    3 1 
     6    2    4 1 
     7    2   19 1 
     8    3   20 1 
     9    3   21 1 
    10    3   22 1 
    11    4    5 1 
    12    4   23 1 
    13    4   24 1 
    14    5    6 ar
    15    5   10 ar
    16    6    7 ar
    17    6   25 1 
    18    7    8 ar
    19    7   26 1 
    20    8    9 ar
    21    8   11 1 
    22    9   10 ar
    23    9   27 1 
    24   10   28 1 
    25   11   12 1 
    26   11   13 1 
    27   11   29 1 
    28   12   30 1 
    29   12   31 1 
    30   12   32 1 
    31   13   14 ar
    32   13   15 ar
@<TRIPOS>SUBSTRUCTURE
1 MOL         1
@<TRIPOS>MOLECULE
query molecule
   32    32     1     0     0
SMALL
NO_CHARGE

@<TRIPOS>ATOM
      1 C         -46.2356  -65.2206    2.2875 C.3       1 MOL     0.0072
      2 C         -45.0706  -66.1567    2.1592 C.3       1 MOL    -0.0128
      3 C         -45.5291  -67.5271    1.7741 C.3       1 MOL     0.0072
      4 C         -44.1112  -65.6137    1.1372 C.3       1 MOL     0.0379
      5 C         -44.4654  -66.0727   -0.2281 C.ar      1 MOL    -0.0471
      6 C         -45.7508  -65.8743   -0.6759 C.ar      1 MOL     0.0037
      7 C         -46.1219  -66.2808   -1.9256 C.ar      1 MOL     0.0044
      8 C         -45.2179  -66.8949   -2.7575 C.ar      1 MOL    -0.0391
      9 C         -43.9320  -67.0978   -2.3217 C.ar      1 MOL     0.0044
     10 C         -43.5600  -66.6868   -1.0595 C.ar      1 MOL     0.0037
     11 C         -45.5916  -67.3429   -4.1097 C.3       1 MOL     0.0614
     12 C         -44.3374  -67.8173   -4.8434 C.3       1 MOL     0.0185
     13 C         -46.5525  -68.4737   -3.9504 C.2       1 MOL     0.0489
     14 O         -46.4309  -69.5107   -4.6185 O.co2     1 MOL    -0.5492
     15 O         -47.5727  -68.3454   -3.0518 O.co2     1 MOL    -0.5492
     16 H         -46.9220  -65.6037    3.0146 H         1 MOL     0.0232
     17 H         -46.7293  -65.1334    1.3423 H         1 MOL     0.0232
     18 H         -45.8867  -64.2584    2.5985 H         1 MOL     0.0232
     19 H         -44.5761  -66.2340    3.1043 H         1 MOL     0.0299
     20 H         -46.0294  -67.4829    0.8291 H         1 MOL     0.0232
     21 H         -46.2032  -67.8992    2.5168 H         1 MOL     0.0232
     22 H         -44.6841  -68.1791    1.6999 H         1 MOL     0.0232
     23 H         -43.1231  -65.9488    1.3730 H         1 MOL     0.0316
     24 H         -44.1622  -64.5452    1.1592 H         1 MOL     0.0316
     25 H         -46.4412  -65.4147   -0.0616 H         1 MOL     0.0620
     26 H         -47.0904  -66.1250   -2.2474 H         1 MOL     0.0621
     27 H         -43.2436  -67.5574   -2.9383 H         1 MOL     0.0621
     28 H         -42.5926  -66.8415   -0.7351 H         1 MOL     0.0620
     29 H         -46.0385  -66.5514   -4.6745 H         1 MOL     0.0406
     30 H         -43.8787  -68.6098   -4.2895 H         1 MOL     0.0239
     31 H         -43.6497  -67.0024   -4.9357 H         1 MOL     0.0239
     32 H         -44.6059  -68.1698   -5.8169 H         1 MOL     0.0239
@<TRIPOS>BOND
     1    1    2 1 
     2    1   16 1 
     3    1   17 1 
     4    1   18 1 
     5    2    3 1 
     6    2    4 1 
     7    2   19 1 
     8    3   20 1 
     9    3   21 1 
    10    3   22 1 
    11    4    5 1 
    12    4   23 1 
    13    4   24 1 
    14    5    6 ar
    15    5   10 ar
    16    6    7 ar
    17    6   25 1 
    18    7    8 ar
    19    7   26 1 
    20    8    9 ar
    21    8   11 1 
    22    9   10 ar
    23    9   27 1 
    24   10   28 1 
    25   11   12 1 
    26   11   13 1 
    27   11   29 1 
    28   12   30 1 
    29   12   31 1 
    30   12   32 1 
    31   13   14 ar
    32   13   15 ar
@<TRIPOS>SUBSTRUCTURE
1 MOL         1
@<TRIPOS>MOLECULE
query molecule
   32    32     1     0     0
SMALL
NO_CHARGE

@<TRIPOS>ATOM
      1 C          -3.6270  -47.6981   11.6824 C.3       1 MOL     0.0072
      2 C          -4.9257  -47.0737   12.0988 C.3       1 MOL    -0.0128
      3 C          -5.9312  -48.1226   12.4525 C.3       1 MOL     0.0072
      4 C          -4.6819  -46.1598   13.2670 C.3       1 MOL     0.0379
      5 C          -5.3537  -44.8515   13.0739 C.ar      1 MOL    -0.0471
      6 C          -6.6494  -44.7065   13.5126 C.ar      1 MOL     0.0037
      7 C          -7.3076  -43.5203   13.3556 C.ar      1 MOL     0.0044
      8 C          -6.6872  -42.4511   12.7570 C.ar      1 MOL    -0.0391
      9 C          -5.3940  -42.5839   12.3159 C.ar      1 MOL     0.0044
     10 C          -4.7319  -43.7825   12.4751 C.ar      1 MOL     0.0037
     11 C          -7.3736  -41.1609   12.5754 C.3       1 MOL     0.0614
     12 C          -8.8379  -41.4195   12.2214 C.3       1 MOL     0.0185
     13 C          -7.2801  -40.4248   13.8703 C.2       1 MOL     0.0489
     14 O          -7.4515  -39.1981   13.9185 O.co2     1 MOL    -0.5492
     15 O          -7.0011  -41.1295   15.0063 O.co2     1 MOL    -0.5492
     16 H          -3.7960  -48.3504   10.8503 H         1 MOL     0.0232
     17 H          -3.2227  -48.2592   12.4988 H         1 MOL     0.0232
     18 H          -2.9373  -46.9308   11.3999 H         1 MOL     0.0232
     19 H          -5.3213  -46.5078   11.2821 H         1 MOL     0.0299
     20 H          -5.5632  -48.7076   13.2696 H         1 MOL     0.0232
     21 H          -6.0973  -48.7567   11.6070 H         1 MOL     0.0232
     22 H          -6.8513  -47.6553   12.7346 H         1 MOL     0.0232
     23 H          -3.6294  -45.9998   13.3717 H         1 MOL     0.0316
     24 H          -5.0825  -46.6198   14.1460 H         1 MOL     0.0316
     25 H          -7.1288  -45.5015   13.9636 H         1 MOL     0.0620
     26 H          -8.2800  -43.4269   13.6898 H         1 MOL     0.0621
     27 H          -4.9171  -41.7870   11.8653 H         1 MOL     0.0621
     28 H          -3.7600  -43.8787   12.1418 H         1 MOL     0.0620
     29 H          -6.9283  -40.5882   11.7886 H         1 MOL     0.0406
     30 H          -9.2971  -41.9924   13.0000 H         1 MOL     0.0239
     31 H          -8.8907  -41.9626   11.3007 H         1 MOL     0.0239
     32 H          -9.3490  -40.4859   12.1149 H         1 MOL     0.0239
@<TRIPOS>BOND
     1    1    2 1 
     2    1   16 1 
     3    1   17 1 
     4    1   18 1 
     5    2    3 1 
     6    2    4 1 
     7    2   19 1 
     8    3   20 1 
     9    3   21 1 
    10    3   22 1 
    11    4    5 1 
    12    4   23 1 
    13    4   24 1 
    14    5    6 ar
    15    5   10 ar
    16    6    7 ar
    17    6   25 1 
    18    7    8 ar
    19    7   26 1 
    20    8    9 ar
    21    8   11 1 
    22    9   10 ar
    23    9   27 1 
    24   10   28 1 
    25   11   12 1 
    26   11   13 1 
    27   11   29 1 
    28   12   30 1 
    29   12   31 1 
    30   12   32 1 
    31   13   14 ar
    32   13   15 ar
@<TRIPOS>SUBSTRUCTURE
1 MOL         1
@<TRIPOS>MOLECULE
query molecule
   32    32     1     0     0
SMALL
NO_CHARGE

@<TRIPOS>ATOM
      1 C         -72.8167  -39.2376  -28.4450 C.3       1 MOL     0.0072
      2 C         -71.4372  -39.6004  -28.9093 C.3       1 MOL    -0.0128
      3 C         -71.3067  -39.4122  -30.3872 C.3       1 MOL     0.0072
      4 C         -70.4320  -38.7553  -28.1780 C.3       1 MOL     0.0379
      5 C         -69.8864  -39.4707  -26.9987 C.ar      1 MOL    -0.0471
      6 C         -70.5556  -40.5793  -26.5345 C.ar      1 MOL     0.0037
      7 C         -70.0903  -41.2691  -25.4517 C.ar      1 MOL     0.0044
      8 C         -68.9458  -40.8679  -24.8070 C.ar      1 MOL    -0.0391
      9 C         -68.2692  -39.7633  -25.2617 C.ar      1 MOL     0.0044
     10 C         -68.7412  -39.0685  -26.3547 C.ar      1 MOL     0.0037
     11 C         -68.4222  -41.5934  -23.6373 C.3       1 MOL     0.0614
     12 C         -68.6300  -43.0933  -23.8454 C.3       1 MOL     0.0185
     13 C         -66.9651  -41.2847  -23.5422 C.2       1 MOL     0.0489
     14 O         -66.1773  -41.6556  -24.4245 O.co2     1 MOL    -0.5492
     15 O         -66.5128  -40.5835  -22.4613 O.co2     1 MOL    -0.5492
     16 H         -73.5363  -39.8372  -28.9636 H         1 MOL     0.0232
     17 H         -73.0013  -38.2035  -28.6483 H         1 MOL     0.0232
     18 H         -72.8964  -39.4147  -27.3931 H         1 MOL     0.0232
     19 H         -71.2550  -40.6325  -28.6966 H         1 MOL     0.0299
     20 H         -71.4840  -38.3858  -30.6326 H         1 MOL     0.0232
     21 H         -72.0235  -40.0274  -30.8895 H         1 MOL     0.0232
     22 H         -70.3204  -39.6876  -30.6969 H         1 MOL     0.0232
     23 H         -70.9055  -37.8535  -27.8511 H         1 MOL     0.0316
     24 H         -69.6244  -38.5367  -28.8450 H         1 MOL     0.0316
     25 H         -71.4174  -40.8922  -27.0084 H         1 MOL     0.0620
     26 H         -70.6037  -42.0991  -25.1149 H         1 MOL     0.0621
     27 H         -67.4074  -39.4528  -24.7858 H         1 MOL     0.0621
     28 H         -68.2302  -38.2382  -26.6933 H         1 MOL     0.0620
     29 H         -68.9241  -41.3008  -22.7386 H         1 MOL     0.0406
     30 H         -68.1333  -43.4010  -24.7420 H         1 MOL     0.0239
     31 H         -69.6770  -43.2990  -23.9294 H         1 MOL     0.0239
     32 H         -68.2270  -43.6281  -23.0113 H         1 MOL     0.0239
@<TRIPOS>BOND
     1    1    2 1 
     2    1   16 1 
     3    1   17 1 
     4    1   18 1 
     5    2    3 1 
     6    2    4 1 
     7    2   19 1 
     8    3   20 1 
     9    3   21 1 
    10    3   22 1 
    11    4    5 1 
    12    4   23 1 
    13    4   24 1 
    14    5    6 ar
    15    5   10 ar
    16    6    7 ar
    17    6   25 1 
    18    7    8 ar
    19    7   26 1 
    20    8    9 ar
    21    8   11 1 
    22    9   10 ar
    23    9   27 1 
    24   10   28 1 
    25   11   12 1 
    26   11   13 1 
    27   11   29 1 
    28   12   30 1 
    29   12   31 1 
    30   12   32 1 
    31   13   14 ar
    32   13   15 ar
@<TRIPOS>SUBSTRUCTURE
1 MOL         1
@<TRIPOS>MOLECULE
query molecule
   32    32     1     0     0
SMALL
NO_CHARGE

@<TRIPOS>ATOM
      1 C         -55.3786  -38.3665   27.6570 C.3       1 MOL     0.0072
      2 C         -55.6607  -37.8619   29.0412 C.3       1 MOL    -0.0128
      3 C         -54.7130  -36.7659   29.4113 C.3       1 MOL     0.0072
      4 C         -57.0820  -37.3773   29.1099 C.3       1 MOL     0.0379
      5 C         -57.9815  -38.4278   29.6463 C.ar      1 MOL    -0.0471
      6 C         -58.1725  -38.4982   31.0067 C.ar      1 MOL     0.0037
      7 C         -58.9915  -39.4490   31.5452 C.ar      1 MOL     0.0044
      8 C         -59.6390  -40.3518   30.7376 C.ar      1 MOL    -0.0391
      9 C         -59.4565  -40.2908   29.3784 C.ar      1 MOL     0.0044
     10 C         -58.6289  -39.3302   28.8373 C.ar      1 MOL     0.0037
     11 C         -60.5277  -41.3870   31.2920 C.3       1 MOL     0.0614
     12 C         -61.6950  -41.6106   30.3310 C.3       1 MOL     0.0185
     13 C         -59.7224  -42.6368   31.4222 C.2       1 MOL     0.0489
     14 O         -58.8528  -42.9231   30.5865 O.co2     1 MOL    -0.5492
     15 O         -59.9614  -43.4631   32.4828 O.co2     1 MOL    -0.5492
     16 H         -54.3668  -38.7126   27.6034 H         1 MOL     0.0232
     17 H         -55.5224  -37.5745   26.9521 H         1 MOL     0.0232
     18 H         -56.0440  -39.1725   27.4294 H         1 MOL     0.0232
     19 H         -55.5234  -38.6591   29.7406 H         1 MOL     0.0299
     20 H         -54.8267  -35.9506   28.7275 H         1 MOL     0.0232
     21 H         -53.7089  -37.1322   29.3649 H         1 MOL     0.0232
     22 H         -54.9250  -36.4302   30.4048 H         1 MOL     0.0232
     23 H         -57.4070  -37.1078   28.1270 H         1 MOL     0.0316
     24 H         -57.1201  -36.5320   29.7647 H         1 MOL     0.0316
     25 H         -57.6919  -37.8269   31.6261 H         1 MOL     0.0620
     26 H         -59.1247  -39.4893   32.5682 H         1 MOL     0.0621
     27 H         -59.9386  -40.9633   28.7614 H         1 MOL     0.0621
     28 H         -58.4937  -39.2878   27.8151 H         1 MOL     0.0620
     29 H         -60.9205  -41.0964   32.2442 H         1 MOL     0.0406
     30 H         -61.3171  -41.9019   29.3730 H         1 MOL     0.0239
     31 H         -62.2538  -40.7031   30.2328 H         1 MOL     0.0239
     32 H         -62.3300  -42.3811   30.7146 H         1 MOL     0.0239
@<TRIPOS>BOND
     1    1    2 1 
     2    1   16 1 
     3    1   17 1 
     4    1   18 1 
     5    2    3 1 
     6    2    4 1 
     7    2   19 1 
     8    3   20 1 
     9    3   21 1 
    10    3   22 1 
    11    4    5 1 
    12    4   23 1 
    13    4   24 1 
    14    5    6 ar
    15    5   10 ar
    16    6    7 ar
    17    6   25 1 
    18    7    8 ar
    19    7   26 1 
    20    8    9 ar
    21    8   11 1 
    22    9   10 ar
    23    9   27 1 
    24   10   28 1 
    25   11   12 1 
    26   11   13 1 
    27   11   29 1 
    28   12   30 1 
    29   12   31 1 
    30   12   32 1 
    31   13   14 ar
    32   13   15 ar
@<TRIPOS>SUBSTRUCTURE
1 MOL         1
@<TRIPOS>MOLECULE
query molecule
   32    32     1     0     0
SMALL
NO_CHARGE

@<TRIPOS>ATOM
      1 C         -47.1445  -70.8501  -14.4137 C.3       1 MOL     0.0072
      2 C         -46.9045  -71.9687  -13.4436 C.3       1 MOL    -0.0128
      3 C         -45.9697  -71.5400  -12.3578 C.3       1 MOL     0.0072
      4 C         -48.2194  -72.4110  -12.8649 C.3       1 MOL     0.0379
      5 C         -48.8923  -71.2987  -12.1505 C.ar      1 MOL    -0.0471
      6 C         -49.8066  -70.5339  -12.8370 C.ar      1 MOL     0.0037
      7 C         -50.4501  -69.4995  -12.2200 C.ar      1 MOL     0.0044
      8 C         -50.1956  -69.2047  -10.9028 C.ar      1 MOL    -0.0391
      9 C         -49.2856  -69.9615  -10.2074 C.ar      1 MOL     0.0044
     10 C         -48.6370  -71.0049  -10.8328 C.ar      1 MOL     0.0037
     11 C         -50.8754  -68.0951  -10.2134 C.3       1 MOL     0.0614
     12 C         -51.2045  -67.0019  -11.2296 C.3       1 MOL     0.0185
     13 C         -52.1320  -68.6447   -9.6247 C.2       1 MOL     0.0489
     14 O         -52.9514  -67.9008   -9.0664 O.co2     1 MOL    -0.5492
     15 O         -52.3642  -69.9875   -9.7122 O.co2     1 MOL    -0.5492
     16 H         -46.2101  -70.5316  -14.8284 H         1 MOL     0.0232
     17 H         -47.6071  -70.0300  -13.9056 H         1 MOL     0.0232
     18 H         -47.7855  -71.1913  -15.1991 H         1 MOL     0.0232
     19 H         -46.4495  -72.7885  -13.9580 H         1 MOL     0.0299
     20 H         -46.3983  -70.7182  -11.8227 H         1 MOL     0.0232
     21 H         -45.0382  -71.2376  -12.7883 H         1 MOL     0.0232
     22 H         -45.8044  -72.3557  -11.6856 H         1 MOL     0.0232
     23 H         -48.0469  -73.2131  -12.1786 H         1 MOL     0.0316
     24 H         -48.8518  -72.7303  -13.6667 H         1 MOL     0.0316
     25 H         -50.0075  -70.7431  -13.8275 H         1 MOL     0.0620
     26 H         -51.1335  -68.9343  -12.7485 H         1 MOL     0.0621
     27 H         -49.0868  -69.7500   -9.2169 H         1 MOL     0.0621
     28 H         -47.9531  -71.5714  -10.3069 H         1 MOL     0.0620
     29 H         -50.2584  -67.6741   -9.4470 H         1 MOL     0.0406
     30 H         -51.8217  -67.4087  -12.0035 H         1 MOL     0.0239
     31 H         -50.2970  -66.6286  -11.6568 H         1 MOL     0.0239
     32 H         -51.7231  -66.2046  -10.7402 H         1 MOL     0.0239
@<TRIPOS>BOND
     1    1    2 1 
     2    1   16 1 
     3    1   17 1 
     4    1   18 1 
     5    2    3 1 
     6    2    4 1 
     7    2   19 1 
     8    3   20 1 
     9    3   21 1 
    10    3   22 1 
    11    4    5 1 
    12    4   23 1 
    13    4   24 1 
    14    5    6 ar
    15    5   10 ar
    16    6    7 ar
    17    6   25 1 
    18    7    8 ar
    19    7   26 1 
    20    8    9 ar
    21    8   11 1 
    22    9   10 ar
    23    9   27 1 
    24   10   28 1 
    25   11   12 1 
    26   11   13 1 
    27   11   29 1 
    28   12   30 1 
    29   12   31 1 
    30   12   32 1 
    31   13   14 ar
    32   13   15 ar
@<TRIPOS>SUBSTRUCTURE
1 MOL         1
@<TRIPOS>MOLECULE
query molecule
   32    32     1     0     0
SMALL
NO_CHARGE

@<TRIPOS>ATOM
      1 C         -62.1697  -51.0191   30.4736 C.3       1 MOL     0.0072
      2 C         -61.5716  -52.3844   30.3053 C.3       1 MOL    -0.0128
      3 C         -61.9342  -53.2695   31.4549 C.3       1 MOL     0.0072
      4 C         -62.0514  -52.9773   29.0099 C.3       1 MOL     0.0379
      5 C         -63.5294  -52.9107   28.9045 C.ar      1 MOL    -0.0471
      6 C         -64.2659  -52.7795   30.0589 C.ar      1 MOL     0.0037
      7 C         -65.6290  -52.7145   30.0100 C.ar      1 MOL     0.0044
      8 C         -66.2887  -52.7788   28.8070 C.ar      1 MOL    -0.0391
      9 C         -65.5642  -52.9091   27.6482 C.ar      1 MOL     0.0044
     10 C         -64.1882  -52.9750   27.7004 C.ar      1 MOL     0.0037
     11 C         -67.7575  -52.7110   28.7258 C.3       1 MOL     0.0614
     12 C         -68.3583  -53.7834   29.6340 C.3       1 MOL     0.0185
     13 C         -68.1635  -51.3536   29.1951 C.2       1 MOL     0.0489
     14 O         -67.3129  -50.4951   29.4709 O.co2     1 MOL    -0.5492
     15 O         -69.4944  -51.0726   29.3159 O.co2     1 MOL    -0.5492
     16 H         -61.8307  -50.5929   31.3955 H         1 MOL     0.0232
     17 H         -63.2368  -51.0961   30.4874 H         1 MOL     0.0232
     18 H         -61.8670  -50.3949   29.6594 H         1 MOL     0.0232
     19 H         -60.5057  -52.3009   30.2841 H         1 MOL     0.0299
     20 H         -62.9982  -53.3731   31.5029 H         1 MOL     0.0232
     21 H         -61.5772  -52.8355   32.3652 H         1 MOL     0.0232
     22 H         -61.4880  -54.2324   31.3194 H         1 MOL     0.0232
     23 H         -61.7434  -54.0004   28.9588 H         1 MOL     0.0316
     24 H         -61.6286  -52.4155   28.2034 H         1 MOL     0.0316
     25 H         -63.7840  -52.7306   30.9703 H         1 MOL     0.0620
     26 H         -66.1680  -52.6163   30.8850 H         1 MOL     0.0621
     27 H         -66.0489  -52.9576   26.7382 H         1 MOL     0.0621
     28 H         -63.6469  -53.0734   26.8272 H         1 MOL     0.0620
     29 H         -68.1022  -52.8778   27.7265 H         1 MOL     0.0406
     30 H         -68.0219  -53.6295   30.6382 H         1 MOL     0.0239
     31 H         -68.0459  -54.7503   29.2977 H         1 MOL     0.0239
     32 H         -69.4257  -53.7216   29.6008 H         1 MOL     0.0239
@<TRIPOS>BOND
     1    1    2 1 
     2    1   16 1 
     3    1   17 1 
     4    1   18 1 
     5    2    3 1 
     6    2    4 1 
     7    2   19 1 
     8    3   20 1 
     9    3   21 1 
    10    3   22 1 
    11    4    5 1 
    12    4   23 1 
    13    4   24 1 
    14    5    6 ar
    15    5   10 ar
    16    6    7 ar
    17    6   25 1 
    18    7    8 ar
    19    7   26 1 
    20    8    9 ar
    21    8   11 1 
    22    9   10 ar
    23    9   27 1 
    24   10   28 1 
    25   11   12 1 
    26   11   13 1 
    27   11   29 1 
    28   12   30 1 
    29   12   31 1 
    30   12   32 1 
    31   13   14 ar
    32   13   15 ar
@<TRIPOS>SUBSTRUCTURE
1 MOL         1
@<TRIPOS>MOLECULE
query molecule
   32    32     1     0     0
SMALL
NO_CHARGE

@<TRIPOS>ATOM
      1 C         -16.6990  -63.7046  -22.5215 C.3       1 MOL     0.0072
      2 C         -17.2460  -62.3400  -22.2237 C.3       1 MOL    -0.0128
      3 C         -17.8482  -61.7292  -23.4488 C.3       1 MOL     0.0072
      4 C         -18.2698  -62.4467  -21.1284 C.3       1 MOL     0.0379
      5 C         -19.4456  -63.2369  -21.5683 C.ar      1 MOL    -0.0471
      6 C         -20.5219  -62.5703  -22.1064 C.ar      1 MOL     0.0037
      7 C         -21.6260  -63.2565  -22.5246 C.ar      1 MOL     0.0044
      8 C         -21.6810  -64.6246  -22.4153 C.ar      1 MOL    -0.0391
      9 C         -20.6126  -65.3006  -21.8804 C.ar      1 MOL     0.0044
     10 C         -19.4994  -64.6054  -21.4586 C.ar      1 MOL     0.0037
     11 C         -22.8591  -65.3891  -22.8585 C.3       1 MOL     0.0614
     12 C         -24.0415  -64.4345  -23.0228 C.3       1 MOL     0.0185
     13 C         -22.5141  -66.0105  -24.1709 C.2       1 MOL     0.0489
     14 O         -22.8645  -67.1692  -24.4378 O.co2     1 MOL    -0.5492
     15 O         -21.8023  -65.2771  -25.0765 O.co2     1 MOL    -0.5492
     16 H         -15.9692  -63.6334  -23.3017 H         1 MOL     0.0232
     17 H         -17.4947  -64.3474  -22.8353 H         1 MOL     0.0232
     18 H         -16.2422  -64.1050  -21.6411 H         1 MOL     0.0232
     19 H         -16.4483  -61.7040  -21.9031 H         1 MOL     0.0299
     20 H         -18.6524  -62.3446  -23.7951 H         1 MOL     0.0232
     21 H         -17.1030  -61.6539  -24.2127 H         1 MOL     0.0232
     22 H         -18.2206  -60.7537  -23.2158 H         1 MOL     0.0232
     23 H         -18.5921  -61.4642  -20.8545 H         1 MOL     0.0316
     24 H         -17.8215  -62.9429  -20.2932 H         1 MOL     0.0316
     25 H         -20.4952  -61.5423  -22.1941 H         1 MOL     0.0620
     26 H         -22.4260  -62.7422  -22.9261 H         1 MOL     0.0621
     27 H         -20.6421  -66.3287  -21.7942 H         1 MOL     0.0621
     28 H         -18.6983  -65.1170  -21.0566 H         1 MOL     0.0620
     29 H         -23.1258  -66.1436  -22.1480 H         1 MOL     0.0406
     30 H         -23.7891  -63.6731  -23.7312 H         1 MOL     0.0239
     31 H         -24.2676  -63.9827  -22.0792 H         1 MOL     0.0239
     32 H         -24.8936  -64.9792  -23.3710 H         1 MOL     0.0239
@<TRIPOS>BOND
     1    1    2 1 
     2    1   16 1 
     3    1   17 1 
     4    1   18 1 
     5    2    3 1 
     6    2    4 1 
     7    2   19 1 
     8    3   20 1 
     9    3   21 1 
    10    3   22 1 
    11    4    5 1 
    12    4   23 1 
    13    4   24 1 
    14    5    6 ar
    15    5   10 ar
    16    6    7 ar
    17    6   25 1 
    18    7    8 ar
    19    7   26 1 
    20    8    9 ar
    21    8   11 1 
    22    9   10 ar
    23    9   27 1 
    24   10   28 1 
    25   11   12 1 
    26   11   13 1 
    27   11   29 1 
    28   12   30 1 
    29   12   31 1 
    30   12   32 1 
    31   13   14 ar
    32   13   15 ar
@<TRIPOS>SUBSTRUCTURE
1 MOL         1
@<TRIPOS>MOLECULE
query molecule
   32    32     1     0     0
SMALL
NO_CHARGE

@<TRIPOS>ATOM
      1 C         -69.1536  -44.0032   -2.4990 C.3       1 MOL     0.0072
      2 C         -67.6682  -44.0315   -2.7058 C.3       1 MOL    -0.0128
      3 C         -67.2944  -45.0443   -3.7407 C.3       1 MOL     0.0072
      4 C         -67.2002  -42.6623   -3.1127 C.3       1 MOL     0.0379
      5 C         -68.0428  -42.1089   -4.2009 C.ar      1 MOL    -0.0471
      6 C         -68.2778  -40.7537   -4.2262 C.ar      1 MOL     0.0037
      7 C         -69.0476  -40.2002   -5.2089 C.ar      1 MOL     0.0044
      8 C         -69.6009  -40.9870   -6.1894 C.ar      1 MOL    -0.0391
      9 C         -69.3728  -42.3407   -6.1746 C.ar      1 MOL     0.0044
     10 C         -68.5955  -42.8970   -5.1813 C.ar      1 MOL     0.0037
     11 C         -70.4348  -40.4160   -7.2605 C.3       1 MOL     0.0614
     12 C         -70.7708  -38.9660   -6.9130 C.3       1 MOL     0.0185
     13 C         -69.6351  -40.4708   -8.5194 C.2       1 MOL     0.0489
     14 O         -70.0007  -39.8573   -9.5325 O.co2     1 MOL    -0.5492
     15 O         -68.4884  -41.2122   -8.5358 O.co2     1 MOL    -0.5492
     16 H         -69.4916  -44.9769   -2.2091 H         1 MOL     0.0232
     17 H         -69.6354  -43.7151   -3.4099 H         1 MOL     0.0232
     18 H         -69.3928  -43.2990   -1.7302 H         1 MOL     0.0232
     19 H         -67.1914  -44.3121   -1.7906 H         1 MOL     0.0299
     20 H         -67.7577  -44.7902   -4.6714 H         1 MOL     0.0232
     21 H         -67.6279  -46.0119   -3.4293 H         1 MOL     0.0232
     22 H         -66.2315  -45.0550   -3.8628 H         1 MOL     0.0232
     23 H         -66.1880  -42.7259   -3.4528 H         1 MOL     0.0316
     24 H         -67.2730  -42.0138   -2.2648 H         1 MOL     0.0316
     25 H         -67.8692  -40.1500   -3.4956 H         1 MOL     0.0620
     26 H         -69.2152  -39.1815   -5.2144 H         1 MOL     0.0621
     27 H         -69.7826  -42.9419   -6.9067 H         1 MOL     0.0621
     28 H         -68.4267  -43.9151   -5.1732 H         1 MOL     0.0620
     29 H         -71.3492  -40.9598   -7.3764 H         1 MOL     0.0406
     30 H         -69.8648  -38.4090   -6.7936 H         1 MOL     0.0239
     31 H         -71.3287  -38.9391   -6.0001 H         1 MOL     0.0239
     32 H         -71.3537  -38.5367   -7.7004 H         1 MOL     0.0239
@<TRIPOS>BOND
     1    1    2 1 
     2    1   16 1 
     3    1   17 1 
     4    1   18 1 
     5    2    3 1 
     6    2    4 1 
     7    2   19 1 
     8    3   20 1 
     9    3   21 1 
    10    3   22 1 
    11    4    5 1 
    12    4   23 1 
    13    4   24 1 
    14    5    6 ar
    15    5   10 ar
    16    6    7 ar
    17    6   25 1 
    18    7    8 ar
    19    7   26 1 
    20    8    9 ar
    21    8   11 1 
    22    9   10 ar
    23    9   27 1 
    24   10   28 1 
    25   11   12 1 
    26   11   13 1 
    27   11   29 1 
    28   12   30 1 
    29   12   31 1 
    30   12   32 1 
    31   13   14 ar
    32   13   15 ar
@<TRIPOS>SUBSTRUCTURE
1 MOL         1
@<TRIPOS>MOLECULE
query molecule
   32    32     1     0     0
SMALL
NO_CHARGE

@<TRIPOS>ATOM
      1 C          -5.7282  -49.0227  -10.6892 C.3       1 MOL     0.0072
      2 C          -4.8362  -47.8294  -10.5147 C.3       1 MOL    -0.0128
      3 C          -3.5715  -48.2087   -9.8125 C.3       1 MOL     0.0072
      4 C          -4.5350  -47.2368  -11.8629 C.3       1 MOL     0.0379
      5 C          -5.0125  -48.1192  -12.9555 C.ar      1 MOL    -0.0471
      6 C          -6.3017  -47.9648  -13.4097 C.ar      1 MOL     0.0037
      7 C          -6.7841  -48.7550  -14.4135 C.ar      1 MOL     0.0044
      8 C          -5.9904  -49.7179  -14.9873 C.ar      1 MOL    -0.0391
      9 C          -4.7019  -49.8808  -14.5425 C.ar      1 MOL     0.0044
     10 C          -4.2174  -49.0821  -13.5288 C.ar      1 MOL     0.0037
     11 C          -6.4854  -50.5834  -16.0711 C.3       1 MOL     0.0614
     12 C          -7.6788  -49.9069  -16.7452 C.3       1 MOL     0.0185
     13 C          -5.3694  -50.7497  -17.0480 C.2       1 MOL     0.0489
     14 O          -4.2230  -51.0225  -16.6637 O.co2     1 MOL    -0.5492
     15 O          -5.6346  -50.5952  -18.3786 O.co2     1 MOL    -0.5492
     16 H          -5.9453  -49.4483   -9.7311 H         1 MOL     0.0232
     17 H          -5.2355  -49.7505  -11.2993 H         1 MOL     0.0232
     18 H          -6.6398  -48.7200  -11.1600 H         1 MOL     0.0232
     19 H          -5.3365  -47.1020   -9.9111 H         1 MOL     0.0299
     20 H          -3.0463  -48.9378  -10.3938 H         1 MOL     0.0232
     21 H          -3.8060  -48.6198   -8.8531 H         1 MOL     0.0232
     22 H          -2.9573  -47.3415   -9.6890 H         1 MOL     0.0232
     23 H          -3.4779  -47.1042  -11.9579 H         1 MOL     0.0316
     24 H          -5.0413  -46.2974  -11.9405 H         1 MOL     0.0316
     25 H          -6.9101  -47.2458  -12.9877 H         1 MOL     0.0620
     26 H          -7.7540  -48.6272  -14.7435 H         1 MOL     0.0621
     27 H          -4.0957  -50.6006  -14.9667 H         1 MOL     0.0621
     28 H          -3.2483  -49.2078  -13.1967 H         1 MOL     0.0620
     29 H          -6.7991  -51.5363  -15.6984 H         1 MOL     0.0406
     30 H          -7.3800  -48.9512  -17.1231 H         1 MOL     0.0239
     31 H          -8.4649  -49.7777  -16.0305 H         1 MOL     0.0239
     32 H          -8.0262  -50.5180  -17.5515 H         1 MOL     0.0239
@<TRIPOS>BOND
     1    1    2 1 
     2    1   16 1 
     3    1   17 1 
     4    1   18 1 
     5    2    3 1 
     6    2    4 1 
     7    2   19 1 
     8    3   20 1 
     9    3   21 1 
    10    3   22 1 
    11    4    5 1 
    12    4   23 1 
    13    4   24 1 
    14    5    6 ar
    15    5   10 ar
    16    6    7 ar
    17    6   25 1 
    18    7    8 ar
    19    7   26 1 
    20    8    9 ar
    21    8   11 1 
    22    9   10 ar
    23    9   27 1 
    24   10   28 1 
    25   11   12 1 
    26   11   13 1 
    27   11   29 1 
    28   12   30 1 
    29   12   31 1 
    30   12   32 1 
    31   13   14 ar
    32   13   15 ar
@<TRIPOS>SUBSTRUCTURE
1 MOL         1
@<TRIPOS>MOLECULE
query molecule
   32    32     1     0     0
SMALL
NO_CHARGE

@<TRIPOS>ATOM
      1 C         -30.6838  -72.7391   16.2357 C.3       1 MOL     0.0072
      2 C         -30.5130  -74.1282   16.7753 C.3       1 MOL    -0.0128
      3 C         -30.1810  -75.0882   15.6777 C.3       1 MOL     0.0072
      4 C         -29.4308  -74.1232   17.8185 C.3       1 MOL     0.0379
      5 C         -28.5764  -75.3309   17.7108 C.ar      1 MOL    -0.0471
      6 C         -27.2675  -75.1775   17.3164 C.ar      1 MOL     0.0037
      7 C         -26.4443  -76.2611   17.2032 C.ar      1 MOL     0.0044
      8 C         -26.9088  -77.5233   17.4813 C.ar      1 MOL    -0.0391
      9 C         -28.2131  -77.6886   17.8764 C.ar      1 MOL     0.0044
     10 C         -29.0422  -76.5931   17.9895 C.ar      1 MOL     0.0037
     11 C         -26.0425  -78.7088   17.3674 C.3       1 MOL     0.0614
     12 C         -25.2944  -78.6550   16.0357 C.3       1 MOL     0.0185
     13 C         -25.0751  -78.6594   18.5028 C.2       1 MOL     0.0489
     14 O         -24.6850  -77.5751   18.9595 O.co2     1 MOL    -0.5492
     15 O         -24.6251  -79.8351   19.0322 O.co2     1 MOL    -0.5492
     16 H         -31.4538  -72.7379   15.4918 H         1 MOL     0.0232
     17 H         -29.7644  -72.4107   15.7977 H         1 MOL     0.0232
     18 H         -30.9560  -72.0788   17.0320 H         1 MOL     0.0232
     19 H         -31.4320  -74.4483   17.2188 H         1 MOL     0.0299
     20 H         -29.2631  -74.7939   15.2127 H         1 MOL     0.0232
     21 H         -30.9658  -75.0837   14.9507 H         1 MOL     0.0232
     22 H         -30.0755  -76.0725   16.0834 H         1 MOL     0.0232
     23 H         -29.8809  -74.0992   18.7886 H         1 MOL     0.0316
     24 H         -28.8177  -73.2597   17.6659 H         1 MOL     0.0316
     25 H         -26.9046  -74.2351   17.1033 H         1 MOL     0.0620
     26 H         -25.4644  -76.1299   16.9057 H         1 MOL     0.0621
     27 H         -28.5732  -78.6323   18.0890 H         1 MOL     0.0621
     28 H         -30.0223  -76.7213   18.2864 H         1 MOL     0.0620
     29 H         -26.6119  -79.6142   17.4026 H         1 MOL     0.0406
     30 H         -24.7199  -77.7534   15.9858 H         1 MOL     0.0239
     31 H         -25.9994  -78.6734   15.2306 H         1 MOL     0.0239
     32 H         -24.6425  -79.4995   15.9587 H         1 MOL     0.0239
@<TRIPOS>BOND
     1    1    2 1 
     2    1   16 1 
     3    1   17 1 
     4    1   18 1 
     5    2    3 1 
     6    2    4 1 
     7    2   19 1 
     8    3   20 1 
     9    3   21 1 
    10    3   22 1 
    11    4    5 1 
    12    4   23 1 
    13    4   24 1 
    14    5    6 ar
    15    5   10 ar
    16    6    7 ar
    17    6   25 1 
    18    7    8 ar
    19    7   26 1 
    20    8    9 ar
    21    8   11 1 
    22    9   10 ar
    23    9   27 1 
    24   10   28 1 
    25   11   12 1 
    26   11   13 1 
    27   11   29 1 
    28   12   30 1 
    29   12   31 1 
    30   12   32 1 
    31   13   14 ar
    32   13   15 ar
@<TRIPOS>SUBSTRUCTURE
1 MOL         1
@<TRIPOS>MOLECULE
query molecule
   32    32     1     0     0
SMALL
NO_CHARGE

@<TRIPOS>ATOM
      1 C         -38.4959  -69.4631   19.0671 C.3       1 MOL     0.0072
      2 C         -38.5305  -68.2993   20.0128 C.3       1 MOL    -0.0128
      3 C         -37.1563  -67.7524   20.2339 C.3       1 MOL     0.0072
      4 C         -39.4386  -67.2382   19.4568 C.3       1 MOL     0.0379
      5 C         -40.8620  -67.5529   19.7308 C.ar      1 MOL    -0.0471
      6 C         -41.3657  -67.2848   20.9825 C.ar      1 MOL     0.0037
      7 C         -42.6701  -67.5583   21.2799 C.ar      1 MOL     0.0044
      8 C         -43.5021  -68.1060   20.3343 C.ar      1 MOL    -0.0391
      9 C         -43.0107  -68.3773   19.0815 C.ar      1 MOL     0.0044
     10 C         -41.6934  -68.1006   18.7839 C.ar      1 MOL     0.0037
     11 C         -44.9126  -68.4106   20.6284 C.3       1 MOL     0.0614
     12 C         -44.9926  -69.1863   21.9430 C.3       1 MOL     0.0185
     13 C         -45.6285  -67.1073   20.7562 C.2       1 MOL     0.0489
     14 O         -46.4156  -66.9030   21.6917 O.co2     1 MOL    -0.5492
     15 O         -45.4002  -66.1395   19.8203 O.co2     1 MOL    -0.5492
     16 H         -37.8498  -70.2216   19.4591 H         1 MOL     0.0232
     17 H         -38.1291  -69.1391   18.1156 H         1 MOL     0.0232
     18 H         -39.4831  -69.8591   18.9534 H         1 MOL     0.0232
     19 H         -38.9052  -68.6267   20.9593 H         1 MOL     0.0299
     20 H         -36.7529  -67.4151   19.3018 H         1 MOL     0.0232
     21 H         -36.5283  -68.5188   20.6372 H         1 MOL     0.0232
     22 H         -37.2039  -66.9323   20.9193 H         1 MOL     0.0232
     23 H         -39.2927  -67.1728   18.3991 H         1 MOL     0.0316
     24 H         -39.2005  -66.3078   19.9285 H         1 MOL     0.0316
     25 H         -40.7521  -66.8739   21.7035 H         1 MOL     0.0620
     26 H         -43.0335  -67.3517   22.2239 H         1 MOL     0.0621
     27 H         -43.6268  -68.7880   18.3623 H         1 MOL     0.0621
     28 H         -41.3274  -68.3065   17.8411 H         1 MOL     0.0620
     29 H         -45.3543  -69.0037   19.8548 H         1 MOL     0.0406
     30 H         -44.5538  -68.6051   22.7271 H         1 MOL     0.0239
     31 H         -44.4613  -70.1101   21.8438 H         1 MOL     0.0239
     32 H         -46.0170  -69.3871   22.1765 H         1 MOL     0.0239
@<TRIPOS>BOND
     1    1    2 1 
     2    1   16 1 
     3    1   17 1 
     4    1   18 1 
     5    2    3 1 
     6    2    4 1 
     7    2   19 1 
     8    3   20 1 
     9    3   21 1 
    10    3   22 1 
    11    4    5 1 
    12    4   23 1 
    13    4   24 1 
    14    5    6 ar
    15    5   10 ar
    16    6    7 ar
    17    6   25 1 
    18    7    8 ar
    19    7   26 1 
    20    8    9 ar
    21    8   11 1 
    22    9   10 ar
    23    9   27 1 
    24   10   28 1 
    25   11   12 1 
    26   11   13 1 
    27   11   29 1 
    28   12   30 1 
    29   12   31 1 
    30   12   32 1 
    31   13   14 ar
    32   13   15 ar
@<TRIPOS>SUBSTRUCTURE
1 MOL         1
@<TRIPOS>MOLECULE
query molecule
   32    32     1     0     0
SMALL
NO_CHARGE

@<TRIPOS>ATOM
      1 C         -14.3201  -41.9858  -20.4383 C.3       1 MOL     0.0072
      2 C         -14.3915  -43.1827  -21.3397 C.3       1 MOL    -0.0128
      3 C         -15.2386  -44.2556  -20.7333 C.3       1 MOL     0.0072
      4 C         -14.9435  -42.7639  -22.6737 C.3       1 MOL     0.0379
      5 C         -13.8542  -42.4514  -23.6307 C.ar      1 MOL    -0.0471
      6 C         -13.5581  -41.1318  -23.8820 C.ar      1 MOL     0.0037
      7 C         -12.5635  -40.7969  -24.7558 C.ar      1 MOL     0.0044
      8 C         -11.8414  -41.7721  -25.3992 C.ar      1 MOL    -0.0391
      9 C         -12.1276  -43.0925  -25.1559 C.ar      1 MOL     0.0044
     10 C         -13.1323  -43.4279  -24.2736 C.ar      1 MOL     0.0037
     11 C         -10.7638  -41.4388  -26.3460 C.3       1 MOL     0.0614
     12 C         -11.1618  -40.1933  -27.1377 C.3       1 MOL     0.0185
     13 C          -9.5372  -41.1658  -25.5408 C.2       1 MOL     0.0489
     14 O          -9.6130  -40.9302  -24.3262 O.co2     1 MOL    -0.5492
     15 O          -8.3245  -41.1801  -26.1684 O.co2     1 MOL    -0.5492
     16 H         -13.9275  -42.2796  -19.4865 H         1 MOL     0.0232
     17 H         -15.3006  -41.5774  -20.3090 H         1 MOL     0.0232
     18 H         -13.6807  -41.2483  -20.8758 H         1 MOL     0.0232
     19 H         -13.4083  -43.5820  -21.4720 H         1 MOL     0.0299
     20 H         -16.2322  -43.8855  -20.5881 H         1 MOL     0.0232
     21 H         -14.8253  -44.5457  -19.7902 H         1 MOL     0.0232
     22 H         -15.2655  -45.1021  -21.3870 H         1 MOL     0.0232
     23 H         -15.5529  -41.8947  -22.5422 H         1 MOL     0.0316
     24 H         -15.5209  -43.5728  -23.0700 H         1 MOL     0.0316
     25 H         -14.0928  -40.3880  -23.4064 H         1 MOL     0.0620
     26 H         -12.3531  -39.8020  -24.9342 H         1 MOL     0.0621
     27 H         -11.5910  -43.8341  -25.6328 H         1 MOL     0.0621
     28 H         -13.3450  -44.4216  -24.0936 H         1 MOL     0.0620
     29 H         -10.5868  -42.2387  -27.0346 H         1 MOL     0.0406
     30 H         -11.3427  -39.3838  -26.4615 H         1 MOL     0.0239
     31 H         -12.0516  -40.3965  -27.6967 H         1 MOL     0.0239
     32 H         -10.3713  -39.9297  -27.8084 H         1 MOL     0.0239
@<TRIPOS>BOND
     1    1    2 1 
     2    1   16 1 
     3    1   17 1 
     4    1   18 1 
     5    2    3 1 
     6    2    4 1 
     7    2   19 1 
     8    3   20 1 
     9    3   21 1 
    10    3   22 1 
    11    4    5 1 
    12    4   23 1 
    13    4   24 1 
    14    5    6 ar
    15    5   10 ar
    16    6    7 ar
    17    6   25 1 
    18    7    8 ar
    19    7   26 1 
    20    8    9 ar
    21    8   11 1 
    22    9   10 ar
    23    9   27 1 
    24   10   28 1 
    25   11   12 1 
    26   11   13 1 
    27   11   29 1 
    28   12   30 1 
    29   12   31 1 
    30   12   32 1 
    31   13   14 ar
    32   13   15 ar
@<TRIPOS>SUBSTRUCTURE
1 MOL         1
@<TRIPOS>MOLECULE
query molecule
   32    32     1     0     0
SMALL
NO_CHARGE

@<TRIPOS>ATOM
      1 C         -31.3212  -31.3366   29.3174 C.3       1 MOL     0.0072
      2 C         -32.0868  -32.1947   28.3544 C.3       1 MOL    -0.0128
      3 C         -31.2562  -32.5181   27.1536 C.3       1 MOL     0.0072
      4 C         -32.5204  -33.4537   29.0519 C.3       1 MOL     0.0379
      5 C         -33.9211  -33.8015   28.7093 C.ar      1 MOL    -0.0471
      6 C         -34.9191  -33.4547   29.5902 C.ar      1 MOL     0.0037
      7 C         -36.2228  -33.7549   29.3165 C.ar      1 MOL     0.0044
      8 C         -36.5605  -34.4085   28.1566 C.ar      1 MOL    -0.0391
      9 C         -35.5730  -34.7591   27.2697 C.ar      1 MOL     0.0044
     10 C         -34.2576  -34.4552   27.5486 C.ar      1 MOL     0.0037
     11 C         -37.9582  -34.7442   27.8368 C.3       1 MOL     0.0614
     12 C         -38.3214  -34.1346   26.4830 C.3       1 MOL     0.0185
     13 C         -38.0512  -36.2323   27.7720 C.2       1 MOL     0.0489
     14 O         -38.2387  -36.8116   26.6922 O.co2     1 MOL    -0.5492
     15 O         -37.9257  -36.9480   28.9282 O.co2     1 MOL    -0.5492
     16 H         -31.0101  -30.4384   28.8246 H         1 MOL     0.0232
     17 H         -30.4607  -31.8695   29.6641 H         1 MOL     0.0232
     18 H         -31.9470  -31.0889   30.1488 H         1 MOL     0.0232
     19 H         -32.9498  -31.6606   28.0172 H         1 MOL     0.0299
     20 H         -30.3821  -33.0547   27.4591 H         1 MOL     0.0232
     21 H         -30.9651  -31.6111   26.6667 H         1 MOL     0.0232
     22 H         -31.8255  -33.1200   26.4766 H         1 MOL     0.0232
     23 H         -32.4447  -33.3109   30.1093 H         1 MOL     0.0316
     24 H         -31.8851  -34.2533   28.7329 H         1 MOL     0.0316
     25 H         -34.6804  -32.9639   30.4662 H         1 MOL     0.0620
     26 H         -36.9607  -33.4883   29.9875 H         1 MOL     0.0621
     27 H         -35.8148  -35.2497   26.3943 H         1 MOL     0.0621
     28 H         -33.5179  -34.7208   26.8797 H         1 MOL     0.0620
     29 H         -38.6314  -34.3610   28.5752 H         1 MOL     0.0406
     30 H         -37.6556  -34.5088   25.7334 H         1 MOL     0.0239
     31 H         -38.2341  -33.0693   26.5377 H         1 MOL     0.0239
     32 H         -39.3273  -34.3978   26.2320 H         1 MOL     0.0239
@<TRIPOS>BOND
     1    1    2 1 
     2    1   16 1 
     3    1   17 1 
     4    1   18 1 
     5    2    3 1 
     6    2    4 1 
     7    2   19 1 
     8    3   20 1 
     9    3   21 1 
    10    3   22 1 
    11    4    5 1 
    12    4   23 1 
    13    4   24 1 
    14    5    6 ar
    15    5   10 ar
    16    6    7 ar
    17    6   25 1 
    18    7    8 ar
    19    7   26 1 
    20    8    9 ar
    21    8   11 1 
    22    9   10 ar
    23    9   27 1 
    24   10   28 1 
    25   11   12 1 
    26   11   13 1 
    27   11   29 1 
    28   12   30 1 
    29   12   31 1 
    30   12   32 1 
    31   13   14 ar
    32   13   15 ar
@<TRIPOS>SUBSTRUCTURE
1 MOL         1
@<TRIPOS>MOLECULE
query molecule
   32    32     1     0     0
SMALL
NO_CHARGE

@<TRIPOS>ATOM
      1 C         -25.2727  -72.8799   14.8376 C.3       1 MOL     0.0072
      2 C         -25.3907  -73.5730   13.5126 C.3       1 MOL    -0.0128
      3 C         -24.6995  -72.7925   12.4404 C.3       1 MOL     0.0072
      4 C         -24.8046  -74.9528   13.6232 C.3       1 MOL     0.0379
      5 C         -25.8669  -75.9880   13.6269 C.ar      1 MOL    -0.0471
      6 C         -26.8129  -75.9561   14.6251 C.ar      1 MOL     0.0037
      7 C         -27.8091  -76.8890   14.6685 C.ar      1 MOL     0.0044
      8 C         -27.8840  -77.8758   13.7161 C.ar      1 MOL    -0.0391
      9 C         -26.9458  -77.9174   12.7148 C.ar      1 MOL     0.0044
     10 C         -25.9409  -76.9746   12.6734 C.ar      1 MOL     0.0037
     11 C         -28.9477  -78.8940   13.7394 C.3       1 MOL     0.0614
     12 C         -28.9280  -79.6065   15.0915 C.3       1 MOL     0.0185
     13 C         -30.2456  -78.1811   13.5529 C.2       1 MOL     0.0489
     14 O         -30.5752  -77.7399   12.4424 O.co2     1 MOL    -0.5492
     15 O         -31.0673  -78.0226   14.6320 O.co2     1 MOL    -0.5492
     16 H         -25.6888  -71.8962   14.7634 H         1 MOL     0.0232
     17 H         -24.2413  -72.8108   15.1136 H         1 MOL     0.0232
     18 H         -25.8046  -73.4373   15.5796 H         1 MOL     0.0232
     19 H         -26.4235  -73.6465   13.2452 H         1 MOL     0.0299
     20 H         -23.6604  -72.7013   12.6798 H         1 MOL     0.0232
     21 H         -25.1358  -71.8181   12.3714 H         1 MOL     0.0232
     22 H         -24.8065  -73.2989   11.5041 H         1 MOL     0.0232
     23 H         -24.2455  -75.0229   14.5325 H         1 MOL     0.0316
     24 H         -24.1713  -75.1204   12.7773 H         1 MOL     0.0316
     25 H         -26.7690  -75.2208   15.3481 H         1 MOL     0.0620
     26 H         -28.5117  -76.8520   15.4241 H         1 MOL     0.0621
     27 H         -26.9924  -78.6538   11.9930 H         1 MOL     0.0621
     28 H         -25.2370  -77.0094   11.9195 H         1 MOL     0.0620
     29 H         -28.8089  -79.6225   12.9678 H         1 MOL     0.0406
     30 H         -29.0655  -78.8897   15.8741 H         1 MOL     0.0239
     31 H         -27.9865  -80.0988   15.2204 H         1 MOL     0.0239
     32 H         -29.7161  -80.3289   15.1252 H         1 MOL     0.0239
@<TRIPOS>BOND
     1    1    2 1 
     2    1   16 1 
     3    1   17 1 
     4    1   18 1 
     5    2    3 1 
     6    2    4 1 
     7    2   19 1 
     8    3   20 1 
     9    3   21 1 
    10    3   22 1 
    11    4    5 1 
    12    4   23 1 
    13    4   24 1 
    14    5    6 ar
    15    5   10 ar
    16    6    7 ar
    17    6   25 1 
    18    7    8 ar
    19    7   26 1 
    20    8    9 ar
    21    8   11 1 
    22    9   10 ar
    23    9   27 1 
    24   10   28 1 
    25   11   12 1 
    26   11   13 1 
    27   11   29 1 
    28   12   30 1 
    29   12   31 1 
    30   12   32 1 
    31   13   14 ar
    32   13   15 ar
@<TRIPOS>SUBSTRUCTURE
1 MOL         1
@<TRIPOS>MOLECULE
query molecule
   32    32     1     0     0
SMALL
NO_CHARGE

@<TRIPOS>ATOM
      1 C          -7.8061  -70.4058   26.6924 C.3       1 MOL     0.0072
      2 C          -9.1729  -70.6071   26.1080 C.3       1 MOL    -0.0128
      3 C          -9.6409  -72.0114   26.3207 C.3       1 MOL     0.0072
      4 C         -10.1273  -69.6308   26.7369 C.3       1 MOL     0.0379
      5 C         -10.6931  -68.7060   25.7245 C.ar      1 MOL    -0.0471
      6 C         -10.7372  -67.3618   26.0135 C.ar      1 MOL     0.0037
      7 C         -11.2497  -66.4736   25.1117 C.ar      1 MOL     0.0044
      8 C         -11.7301  -66.9069   23.9001 C.ar      1 MOL    -0.0391
      9 C         -11.6907  -68.2460   23.6005 C.ar      1 MOL     0.0044
     10 C         -11.1732  -69.1407   24.5127 C.ar      1 MOL     0.0037
     11 C         -12.2879  -65.9706   22.9097 C.3       1 MOL     0.0614
     12 C         -12.0033  -66.5012   21.5048 C.3       1 MOL     0.0185
     13 C         -13.7601  -65.9038   23.1454 C.2       1 MOL     0.0489
     14 O         -14.4846  -66.8855   22.9266 O.co2     1 MOL    -0.5492
     15 O         -14.2976  -64.7369   23.6084 O.co2     1 MOL    -0.5492
     16 H          -7.1227  -71.0996   26.2473 H         1 MOL     0.0232
     17 H          -7.8422  -70.5691   27.7492 H         1 MOL     0.0232
     18 H          -7.4785  -69.4067   26.4962 H         1 MOL     0.0232
     19 H          -9.1329  -70.4350   25.0533 H         1 MOL     0.0299
     20 H          -9.6917  -72.2149   27.3702 H         1 MOL     0.0232
     21 H          -8.9543  -72.6897   25.8593 H         1 MOL     0.0232
     22 H         -10.6109  -72.1346   25.8864 H         1 MOL     0.0232
     23 H          -9.6068  -69.0614   27.4778 H         1 MOL     0.0316
     24 H         -10.9311  -70.1808   27.1799 H         1 MOL     0.0316
     25 H         -10.3805  -67.0216   26.9203 H         1 MOL     0.0620
     26 H         -11.2763  -65.4678   25.3432 H         1 MOL     0.0621
     27 H         -12.0480  -68.5833   22.6927 H         1 MOL     0.0621
     28 H         -11.1457  -70.1467   24.2841 H         1 MOL     0.0620
     29 H         -11.8516  -64.9978   23.0020 H         1 MOL     0.0406
     30 H         -12.4339  -67.4750   21.3976 H         1 MOL     0.0239
     31 H         -10.9453  -66.5608   21.3547 H         1 MOL     0.0239
     32 H         -12.4298  -65.8395   20.7807 H         1 MOL     0.0239
@<TRIPOS>BOND
     1    1    2 1 
     2    1   16 1 
     3    1   17 1 
     4    1   18 1 
     5    2    3 1 
     6    2    4 1 
     7    2   19 1 
     8    3   20 1 
     9    3   21 1 
    10    3   22 1 
    11    4    5 1 
    12    4   23 1 
    13    4   24 1 
    14    5    6 ar
    15    5   10 ar
    16    6    7 ar
    17    6   25 1 
    18    7    8 ar
    19    7   26 1 
    20    8    9 ar
    21    8   11 1 
    22    9   10 ar
    23    9   27 1 
    24   10   28 1 
    25   11   12 1 
    26   11   13 1 
    27   11   29 1 
    28   12   30 1 
    29   12   31 1 
    30   12   32 1 
    31   13   14 ar
    32   13   15 ar
@<TRIPOS>SUBSTRUCTURE
1 MOL         1
@<TRIPOS>MOLECULE
query molecule
   32    32     1     0     0
SMALL
NO_CHARGE

@<TRIPOS>ATOM
      1 C         -26.5479  -24.4253  -23.4999 C.3       1 MOL     0.0072
      2 C         -25.4003  -25.3229  -23.8567 C.3       1 MOL    -0.0128
      3 C         -24.0965  -24.6075  -23.6992 C.3       1 MOL     0.0072
      4 C         -25.4407  -26.5464  -22.9844 C.3       1 MOL     0.0379
      5 C         -26.1663  -27.6558  -23.6498 C.ar      1 MOL    -0.0471
      6 C         -27.4567  -27.9265  -23.2575 C.ar      1 MOL     0.0037
      7 C         -28.1630  -28.9385  -23.8420 C.ar      1 MOL     0.0044
      8 C         -27.5972  -29.7041  -24.8322 C.ar      1 MOL    -0.0391
      9 C         -26.3102  -29.4428  -25.2323 C.ar      1 MOL     0.0044
     10 C         -25.5992  -28.4208  -24.6404 C.ar      1 MOL     0.0037
     11 C         -28.3363  -30.8012  -25.4792 C.3       1 MOL     0.0614
     12 C         -28.8064  -31.7862  -24.4092 C.3       1 MOL     0.0185
     13 C         -29.5113  -30.1943  -26.1710 C.2       1 MOL     0.0489
     14 O         -29.3588  -29.4579  -27.1563 O.co2     1 MOL    -0.5492
     15 O         -30.7630  -30.4657  -25.6972 O.co2     1 MOL    -0.5492
     16 H         -26.5230  -23.5520  -24.1189 H         1 MOL     0.0232
     17 H         -26.4693  -24.1366  -22.4727 H         1 MOL     0.0232
     18 H         -27.4691  -24.9464  -23.6551 H         1 MOL     0.0232
     19 H         -25.4880  -25.6148  -24.8818 H         1 MOL     0.0299
     20 H         -23.9788  -24.3017  -22.6805 H         1 MOL     0.0232
     21 H         -24.0837  -23.7460  -24.3334 H         1 MOL     0.0232
     22 H         -23.2946  -25.2621  -23.9698 H         1 MOL     0.0232
     23 H         -25.9362  -26.3054  -22.0675 H         1 MOL     0.0316
     24 H         -24.4357  -26.8626  -22.7981 H         1 MOL     0.0316
     25 H         -27.8948  -27.3601  -22.5142 H         1 MOL     0.0620
     26 H         -29.1305  -29.1297  -23.5366 H         1 MOL     0.0621
     27 H         -25.8748  -30.0108  -25.9761 H         1 MOL     0.0621
     28 H         -24.6318  -28.2277  -24.9435 H         1 MOL     0.0620
     29 H         -27.7220  -31.3266  -26.1804 H         1 MOL     0.0406
     30 H         -29.4226  -31.2744  -23.6995 H         1 MOL     0.0239
     31 H         -27.9559  -32.2010  -23.9092 H         1 MOL     0.0239
     32 H         -29.3678  -32.5717  -24.8698 H         1 MOL     0.0239
@<TRIPOS>BOND
     1    1    2 1 
     2    1   16 1 
     3    1   17 1 
     4    1   18 1 
     5    2    3 1 
     6    2    4 1 
     7    2   19 1 
     8    3   20 1 
     9    3   21 1 
    10    3   22 1 
    11    4    5 1 
    12    4   23 1 
    13    4   24 1 
    14    5    6 ar
    15    5   10 ar
    16    6    7 ar
    17    6   25 1 
    18    7    8 ar
    19    7   26 1 
    20    8    9 ar
    21    8   11 1 
    22    9   10 ar
    23    9   27 1 
    24   10   28 1 
    25   11   12 1 
    26   11   13 1 
    27   11   29 1 
    28   12   30 1 
    29   12   31 1 
    30   12   32 1 
    31   13   14 ar
    32   13   15 ar
@<TRIPOS>SUBSTRUCTURE
1 MOL         1
@<TRIPOS>MOLECULE
query molecule
   32    32     1     0     0
SMALL
NO_CHARGE

@<TRIPOS>ATOM
      1 C           0.7834  -50.1825    7.7721 C.3       1 MOL     0.0072
      2 C           0.1380  -49.4171    8.8891 C.3       1 MOL    -0.0128
      3 C           1.1646  -48.9220    9.8574 C.3       1 MOL     0.0072
      4 C          -0.6433  -48.2690    8.3139 C.3       1 MOL     0.0379
      5 C          -2.1027  -48.5255    8.3827 C.ar      1 MOL    -0.0471
      6 C          -2.9200  -47.5424    8.8905 C.ar      1 MOL     0.0037
      7 C          -4.2694  -47.7346    8.9732 C.ar      1 MOL     0.0044
      8 C          -4.8344  -48.9130    8.5506 C.ar      1 MOL    -0.0391
      9 C          -4.0287  -49.9011    8.0414 C.ar      1 MOL     0.0044
     10 C          -2.6667  -49.7047    7.9594 C.ar      1 MOL     0.0037
     11 C          -6.2863  -49.1463    8.6284 C.3       1 MOL     0.0614
     12 C          -6.8748  -49.1084    7.2183 C.3       1 MOL     0.0185
     13 C          -6.4849  -50.4966    9.2322 C.2       1 MOL     0.0489
     14 O          -5.5166  -51.2241    9.4960 O.co2     1 MOL    -0.5492
     15 O          -7.7578  -50.9186    9.4900 O.co2     1 MOL    -0.5492
     16 H           1.3415  -51.0015    8.1774 H         1 MOL     0.0232
     17 H           1.4416  -49.5361    7.2301 H         1 MOL     0.0232
     18 H           0.0279  -50.5567    7.1138 H         1 MOL     0.0232
     19 H          -0.5245  -50.0654    9.4224 H         1 MOL     0.0299
     20 H           1.8447  -48.2683    9.3521 H         1 MOL     0.0232
     21 H           1.7034  -49.7531   10.2616 H         1 MOL     0.0232
     22 H           0.6813  -48.3901   10.6499 H         1 MOL     0.0232
     23 H          -0.3607  -48.1317    7.2914 H         1 MOL     0.0316
     24 H          -0.4263  -47.3914    8.8862 H         1 MOL     0.0316
     25 H          -2.5096  -46.6519    9.2127 H         1 MOL     0.0620
     26 H          -4.8697  -46.9874    9.3569 H         1 MOL     0.0621
     27 H          -4.4420  -50.7905    7.7198 H         1 MOL     0.0621
     28 H          -2.0641  -50.4500    7.5765 H         1 MOL     0.0620
     29 H          -6.7715  -48.3986    9.2208 H         1 MOL     0.0406
     30 H          -6.3985  -49.8516    6.6132 H         1 MOL     0.0239
     31 H          -6.7107  -48.1414    6.7902 H         1 MOL     0.0239
     32 H          -7.9253  -49.3045    7.2651 H         1 MOL     0.0239
@<TRIPOS>BOND
     1    1    2 1 
     2    1   16 1 
     3    1   17 1 
     4    1   18 1 
     5    2    3 1 
     6    2    4 1 
     7    2   19 1 
     8    3   20 1 
     9    3   21 1 
    10    3   22 1 
    11    4    5 1 
    12    4   23 1 
    13    4   24 1 
    14    5    6 ar
    15    5   10 ar
    16    6    7 ar
    17    6   25 1 
    18    7    8 ar
    19    7   26 1 
    20    8    9 ar
    21    8   11 1 
    22    9   10 ar
    23    9   27 1 
    24   10   28 1 
    25   11   12 1 
    26   11   13 1 
    27   11   29 1 
    28   12   30 1 
    29   12   31 1 
    30   12   32 1 
    31   13   14 ar
    32   13   15 ar
@<TRIPOS>SUBSTRUCTURE
1 MOL         1
@<TRIPOS>MOLECULE
query molecule
   32    32     1     0     0
SMALL
NO_CHARGE

@<TRIPOS>ATOM
      1 C         -28.5190  -53.8229  -13.1430 C.3       1 MOL     0.0072
      2 C         -28.1999  -54.7961  -14.2390 C.3       1 MOL    -0.0128
      3 C         -28.6820  -56.1679  -13.8894 C.3       1 MOL     0.0072
      4 C         -28.8322  -54.3237  -15.5183 C.3       1 MOL     0.0379
      5 C         -30.1706  -54.9331  -15.7121 C.ar      1 MOL    -0.0471
      6 C         -31.1580  -54.6570  -14.7949 C.ar      1 MOL     0.0037
      7 C         -32.4050  -55.1961  -14.9329 C.ar      1 MOL     0.0044
      8 C         -32.6953  -56.0235  -15.9901 C.ar      1 MOL    -0.0391
      9 C         -31.7180  -56.3057  -16.9120 C.ar      1 MOL     0.0044
     10 C         -30.4598  -55.7606  -16.7702 C.ar      1 MOL     0.0037
     11 C         -34.0315  -56.6180  -16.1627 C.3       1 MOL     0.0614
     12 C         -33.9442  -58.1239  -15.9159 C.3       1 MOL     0.0185
     13 C         -34.9308  -55.9832  -15.1548 C.2       1 MOL     0.0489
     14 O         -34.7069  -56.0976  -13.9410 O.co2     1 MOL    -0.5492
     15 O         -36.0096  -55.2711  -15.5951 O.co2     1 MOL    -0.5492
     16 H         -28.0707  -54.1556  -12.2295 H         1 MOL     0.0232
     17 H         -29.5799  -53.7615  -13.0179 H         1 MOL     0.0232
     18 H         -28.1331  -52.8588  -13.3994 H         1 MOL     0.0232
     19 H         -27.1393  -54.8476  -14.3653 H         1 MOL     0.0299
     20 H         -29.7437  -56.1492  -13.7562 H         1 MOL     0.0232
     21 H         -28.2149  -56.4894  -12.9822 H         1 MOL     0.0232
     22 H         -28.4336  -56.8461  -14.6787 H         1 MOL     0.0232
     23 H         -28.2029  -54.5946  -16.3398 H         1 MOL     0.0316
     24 H         -28.9481  -53.2613  -15.4664 H         1 MOL     0.0316
     25 H         -30.9543  -54.0375  -13.9949 H         1 MOL     0.0620
     26 H         -33.1356  -54.9797  -14.2362 H         1 MOL     0.0621
     27 H         -31.9247  -56.9254  -17.7111 H         1 MOL     0.0621
     28 H         -29.7276  -55.9754  -17.4650 H         1 MOL     0.0620
     29 H         -34.4073  -56.4555  -17.1515 H         1 MOL     0.0406
     30 H         -33.5692  -58.3023  -14.9296 H         1 MOL     0.0239
     31 H         -33.2835  -58.5642  -16.6335 H         1 MOL     0.0239
     32 H         -34.9171  -58.5579  -16.0129 H         1 MOL     0.0239
@<TRIPOS>BOND
     1    1    2 1 
     2    1   16 1 
     3    1   17 1 
     4    1   18 1 
     5    2    3 1 
     6    2    4 1 
     7    2   19 1 
     8    3   20 1 
     9    3   21 1 
    10    3   22 1 
    11    4    5 1 
    12    4   23 1 
    13    4   24 1 
    14    5    6 ar
    15    5   10 ar
    16    6    7 ar
    17    6   25 1 
    18    7    8 ar
    19    7   26 1 
    20    8    9 ar
    21    8   11 1 
    22    9   10 ar
    23    9   27 1 
    24   10   28 1 
    25   11   12 1 
    26   11   13 1 
    27   11   29 1 
    28   12   30 1 
    29   12   31 1 
    30   12   32 1 
    31   13   14 ar
    32   13   15 ar
@<TRIPOS>SUBSTRUCTURE
1 MOL         1
@<TRIPOS>MOLECULE
query molecule
   32    32     1     0     0
SMALL
NO_CHARGE

@<TRIPOS>ATOM
      1 C         -54.7249  -71.3135  -21.1792 C.3       1 MOL     0.0072
      2 C         -53.6831  -70.8781  -20.1917 C.3       1 MOL    -0.0128
      3 C         -54.2135  -69.8023  -19.2984 C.3       1 MOL     0.0072
      4 C         -53.2417  -72.0663  -19.3836 C.3       1 MOL     0.0379
      5 C         -51.8745  -72.4965  -19.7654 C.ar      1 MOL    -0.0471
      6 C         -50.8267  -71.6343  -19.5398 C.ar      1 MOL     0.0037
      7 C         -49.5511  -71.9879  -19.8755 C.ar      1 MOL     0.0044
      8 C         -49.2920  -73.2110  -20.4443 C.ar      1 MOL    -0.0391
      9 C         -50.3298  -74.0800  -20.6736 C.ar      1 MOL     0.0044
     10 C         -51.6166  -73.7204  -20.3342 C.ar      1 MOL     0.0037
     11 C         -47.9262  -73.6174  -20.8158 C.3       1 MOL     0.0614
     12 C         -47.3282  -72.5653  -21.7494 C.3       1 MOL     0.0185
     13 C         -47.1311  -73.6975  -19.5553 C.2       1 MOL     0.0489
     14 O         -46.0886  -73.0411  -19.4179 O.co2     1 MOL    -0.5492
     15 O         -47.5742  -74.5103  -18.5513 O.co2     1 MOL    -0.5492
     16 H         -55.0425  -70.4700  -21.7571 H         1 MOL     0.0232
     17 H         -55.5634  -71.7235  -20.6562 H         1 MOL     0.0232
     18 H         -54.3114  -72.0558  -21.8290 H         1 MOL     0.0232
     19 H         -52.8443  -70.4767  -20.7198 H         1 MOL     0.0299
     20 H         -55.0566  -70.1745  -18.7544 H         1 MOL     0.0232
     21 H         -54.5139  -68.9634  -19.8905 H         1 MOL     0.0232
     22 H         -53.4511  -69.4999  -18.6114 H         1 MOL     0.0232
     23 H         -53.9218  -72.8748  -19.5512 H         1 MOL     0.0316
     24 H         -53.2333  -71.7886  -18.3503 H         1 MOL     0.0316
     25 H         -51.0062  -70.7116  -19.1137 H         1 MOL     0.0620
     26 H         -48.7751  -71.3299  -19.7002 H         1 MOL     0.0621
     27 H         -50.1471  -75.0022  -21.0997 H         1 MOL     0.0621
     28 H         -52.3942  -74.3761  -20.5086 H         1 MOL     0.0620
     29 H         -47.9223  -74.5619  -21.3190 H         1 MOL     0.0406
     30 H         -47.3257  -71.6140  -21.2593 H         1 MOL     0.0239
     31 H         -47.9169  -72.5053  -22.6412 H         1 MOL     0.0239
     32 H         -46.3258  -72.8408  -22.0013 H         1 MOL     0.0239
@<TRIPOS>BOND
     1    1    2 1 
     2    1   16 1 
     3    1   17 1 
     4    1   18 1 
     5    2    3 1 
     6    2    4 1 
     7    2   19 1 
     8    3   20 1 
     9    3   21 1 
    10    3   22 1 
    11    4    5 1 
    12    4   23 1 
    13    4   24 1 
    14    5    6 ar
    15    5   10 ar
    16    6    7 ar
    17    6   25 1 
    18    7    8 ar
    19    7   26 1 
    20    8    9 ar
    21    8   11 1 
    22    9   10 ar
    23    9   27 1 
    24   10   28 1 
    25   11   12 1 
    26   11   13 1 
    27   11   29 1 
    28   12   30 1 
    29   12   31 1 
    30   12   32 1 
    31   13   14 ar
    32   13   15 ar
@<TRIPOS>SUBSTRUCTURE
1 MOL         1
@<TRIPOS>MOLECULE
query molecule
   32    32     1     0     0
SMALL
NO_CHARGE

@<TRIPOS>ATOM
      1 C          -5.9501  -71.4941   21.5461 C.3       1 MOL     0.0072
      2 C          -5.8503  -69.9976   21.5678 C.3       1 MOL    -0.0128
      3 C          -7.2075  -69.3728   21.5030 C.3       1 MOL     0.0072
      4 C          -5.1301  -69.5689   22.8157 C.3       1 MOL     0.0379
      5 C          -5.9456  -69.8384   24.0250 C.ar      1 MOL    -0.0471
      6 C          -6.6961  -68.8140   24.5539 C.ar      1 MOL     0.0037
      7 C          -7.4618  -69.0160   25.6664 C.ar      1 MOL     0.0044
      8 C          -7.4960  -70.2459   26.2769 C.ar      1 MOL    -0.0391
      9 C          -6.7516  -71.2760   25.7577 C.ar      1 MOL     0.0044
     10 C          -5.9791  -71.0692   24.6348 C.ar      1 MOL     0.0037
     11 C          -8.3130  -70.4911   27.4774 C.3       1 MOL     0.0614
     12 C          -9.0183  -71.8395   27.3351 C.3       1 MOL     0.0185
     13 C          -7.3845  -70.5174   28.6455 C.2       1 MOL     0.0489
     14 O          -6.1622  -70.3816   28.4899 O.co2     1 MOL    -0.5492
     15 O          -7.9073  -70.6947   29.8946 O.co2     1 MOL    -0.5492
     16 H          -6.4628  -71.8041   20.6587 H         1 MOL     0.0232
     17 H          -6.4919  -71.8282   22.4061 H         1 MOL     0.0232
     18 H          -4.9675  -71.9167   21.5565 H         1 MOL     0.0232
     19 H          -5.3012  -69.6695   20.7108 H         1 MOL     0.0299
     20 H          -7.7832  -69.6828   22.3502 H         1 MOL     0.0232
     21 H          -7.6999  -69.6827   20.6052 H         1 MOL     0.0232
     22 H          -7.1112  -68.3073   21.5080 H         1 MOL     0.0232
     23 H          -4.9262  -68.5203   22.7586 H         1 MOL     0.0316
     24 H          -4.2200  -70.1265   22.8897 H         1 MOL     0.0316
     25 H          -6.6799  -67.8841   24.1063 H         1 MOL     0.0620
     26 H          -8.0195  -68.2373   26.0517 H         1 MOL     0.0621
     27 H          -6.7700  -72.2049   26.2074 H         1 MOL     0.0621
     28 H          -5.4204  -71.8458   24.2476 H         1 MOL     0.0620
     29 H          -9.0542  -69.7303   27.6081 H         1 MOL     0.0406
     30 H          -8.2887  -72.6113   27.2031 H         1 MOL     0.0239
     31 H          -9.6674  -71.8134   26.4845 H         1 MOL     0.0239
     32 H          -9.5921  -72.0364   28.2161 H         1 MOL     0.0239
@<TRIPOS>BOND
     1    1    2 1 
     2    1   16 1 
     3    1   17 1 
     4    1   18 1 
     5    2    3 1 
     6    2    4 1 
     7    2   19 1 
     8    3   20 1 
     9    3   21 1 
    10    3   22 1 
    11    4    5 1 
    12    4   23 1 
    13    4   24 1 
    14    5    6 ar
    15    5   10 ar
    16    6    7 ar
    17    6   25 1 
    18    7    8 ar
    19    7   26 1 
    20    8    9 ar
    21    8   11 1 
    22    9   10 ar
    23    9   27 1 
    24   10   28 1 
    25   11   12 1 
    26   11   13 1 
    27   11   29 1 
    28   12   30 1 
    29   12   31 1 
    30   12   32 1 
    31   13   14 ar
    32   13   15 ar
@<TRIPOS>SUBSTRUCTURE
1 MOL         1
@<TRIPOS>MOLECULE
query molecule
   32    32     1     0     0
SMALL
NO_CHARGE

@<TRIPOS>ATOM
      1 C         -62.2404  -36.8110   -3.0199 C.3       1 MOL     0.0072
      2 C         -62.3823  -36.0526   -4.3063 C.3       1 MOL    -0.0128
      3 C         -63.5706  -35.1458   -4.2609 C.3       1 MOL     0.0072
      4 C         -61.1262  -35.2658   -4.5567 C.3       1 MOL     0.0379
      5 C         -60.6611  -35.4291   -5.9557 C.ar      1 MOL    -0.0471
      6 C         -60.0789  -34.3532   -6.5850 C.ar      1 MOL     0.0037
      7 C         -59.6362  -34.4574   -7.8726 C.ar      1 MOL     0.0044
      8 C         -59.7643  -35.6384   -8.5620 C.ar      1 MOL    -0.0391
      9 C         -60.3432  -36.7190   -7.9440 C.ar      1 MOL     0.0044
     10 C         -60.7897  -36.6112   -6.6443 C.ar      1 MOL     0.0037
     11 C         -59.2955  -35.7779   -9.9510 C.3       1 MOL     0.0614
     12 C         -60.1082  -34.8454  -10.8489 C.3       1 MOL     0.0185
     13 C         -57.8555  -35.3861   -9.9724 C.2       1 MOL     0.0489
     14 O         -57.3659  -34.8164  -10.9584 O.co2     1 MOL    -0.5492
     15 O         -57.0833  -35.6675   -8.8819 O.co2     1 MOL    -0.5492
     16 H         -63.1333  -37.3729   -2.8373 H         1 MOL     0.0232
     17 H         -62.0812  -36.1233   -2.2158 H         1 MOL     0.0232
     18 H         -61.4071  -37.4780   -3.0899 H         1 MOL     0.0232
     19 H         -62.5332  -36.7448   -5.1074 H         1 MOL     0.0299
     20 H         -63.4492  -34.4389   -3.4666 H         1 MOL     0.0232
     21 H         -64.4542  -35.7244   -4.0907 H         1 MOL     0.0232
     22 H         -63.6585  -34.6249   -5.1912 H         1 MOL     0.0232
     23 H         -60.3612  -35.6084   -3.8922 H         1 MOL     0.0316
     24 H         -61.3361  -34.2303   -4.3882 H         1 MOL     0.0316
     25 H         -59.9765  -33.4591   -6.0798 H         1 MOL     0.0620
     26 H         -59.2016  -33.6410   -8.3315 H         1 MOL     0.0621
     27 H         -60.4440  -37.6120   -8.4518 H         1 MOL     0.0621
     28 H         -61.2247  -37.4255   -6.1832 H         1 MOL     0.0620
     29 H         -59.4136  -36.7810  -10.3049 H         1 MOL     0.0406
     30 H         -59.9999  -33.8373  -10.5066 H         1 MOL     0.0239
     31 H         -61.1404  -35.1258  -10.8112 H         1 MOL     0.0239
     32 H         -59.7541  -34.9217  -11.8553 H         1 MOL     0.0239
@<TRIPOS>BOND
     1    1    2 1 
     2    1   16 1 
     3    1   17 1 
     4    1   18 1 
     5    2    3 1 
     6    2    4 1 
     7    2   19 1 
     8    3   20 1 
     9    3   21 1 
    10    3   22 1 
    11    4    5 1 
    12    4   23 1 
    13    4   24 1 
    14    5    6 ar
    15    5   10 ar
    16    6    7 ar
    17    6   25 1 
    18    7    8 ar
    19    7   26 1 
    20    8    9 ar
    21    8   11 1 
    22    9   10 ar
    23    9   27 1 
    24   10   28 1 
    25   11   12 1 
    26   11   13 1 
    27   11   29 1 
    28   12   30 1 
    29   12   31 1 
    30   12   32 1 
    31   13   14 ar
    32   13   15 ar
@<TRIPOS>SUBSTRUCTURE
1 MOL         1
@<TRIPOS>MOLECULE
query molecule
   32    32     1     0     0
SMALL
NO_CHARGE

@<TRIPOS>ATOM
      1 C         -15.7101  -72.4612    9.5653 C.3       1 MOL     0.0072
      2 C         -16.4757  -72.7035    8.2984 C.3       1 MOL    -0.0128
      3 C         -15.7068  -72.2180    7.1111 C.3       1 MOL     0.0072
      4 C         -16.7704  -74.1722    8.1728 C.3       1 MOL     0.0379
      5 C         -18.2316  -74.4266    8.1570 C.ar      1 MOL    -0.0471
      6 C         -18.9879  -73.9828    9.2168 C.ar      1 MOL     0.0037
      7 C         -20.3367  -74.1949    9.2451 C.ar      1 MOL     0.0044
      8 C         -20.9617  -74.8550    8.2155 C.ar      1 MOL    -0.0391
      9 C         -20.2172  -75.3020    7.1522 C.ar      1 MOL     0.0044
     10 C         -18.8558  -75.0870    7.1263 C.ar      1 MOL     0.0037
     11 C         -22.4143  -75.0969    8.2207 C.3       1 MOL     0.0614
     12 C         -23.1181  -73.9281    7.5316 C.3       1 MOL     0.0185
     13 C         -22.6544  -76.3602    7.4632 C.2       1 MOL     0.0489
     14 O         -22.8740  -76.3386    6.2434 O.co2     1 MOL    -0.5492
     15 O         -22.6278  -77.5458    8.1404 O.co2     1 MOL    -0.5492
     16 H         -15.4977  -71.4160    9.6589 H         1 MOL     0.0232
     17 H         -14.7923  -73.0105    9.5384 H         1 MOL     0.0232
     18 H         -16.2946  -72.7827   10.4015 H         1 MOL     0.0232
     19 H         -17.3953  -72.1588    8.3338 H         1 MOL     0.0299
     20 H         -14.7781  -72.7460    7.0479 H         1 MOL     0.0232
     21 H         -15.5147  -71.1707    7.2148 H         1 MOL     0.0232
     22 H         -16.2760  -72.3902    6.2217 H         1 MOL     0.0232
     23 H         -16.3351  -74.6879    9.0027 H         1 MOL     0.0316
     24 H         -16.3554  -74.5231    7.2511 H         1 MOL     0.0316
     25 H         -18.5320  -73.4858    9.9980 H         1 MOL     0.0620
     26 H         -20.8908  -73.8560   10.0475 H         1 MOL     0.0621
     27 H         -20.6760  -75.7985    6.3723 H         1 MOL     0.0621
     28 H         -18.2993  -75.4248    6.3255 H         1 MOL     0.0620
     29 H         -22.7930  -75.1832    9.2180 H         1 MOL     0.0406
     30 H         -22.7490  -73.8291    6.5320 H         1 MOL     0.0239
     31 H         -22.9240  -73.0262    8.0742 H         1 MOL     0.0239
     32 H         -24.1718  -74.1106    7.5077 H         1 MOL     0.0239
@<TRIPOS>BOND
     1    1    2 1 
     2    1   16 1 
     3    1   17 1 
     4    1   18 1 
     5    2    3 1 
     6    2    4 1 
     7    2   19 1 
     8    3   20 1 
     9    3   21 1 
    10    3   22 1 
    11    4    5 1 
    12    4   23 1 
    13    4   24 1 
    14    5    6 ar
    15    5   10 ar
    16    6    7 ar
    17    6   25 1 
    18    7    8 ar
    19    7   26 1 
    20    8    9 ar
    21    8   11 1 
    22    9   10 ar
    23    9   27 1 
    24   10   28 1 
    25   11   12 1 
    26   11   13 1 
    27   11   29 1 
    28   12   30 1 
    29   12   31 1 
    30   12   32 1 
    31   13   14 ar
    32   13   15 ar
@<TRIPOS>SUBSTRUCTURE
1 MOL         1
@<TRIPOS>MOLECULE
query molecule
   32    32     1     0     0
SMALL
NO_CHARGE

@<TRIPOS>ATOM
      1 C         -70.5354  -81.4168  -19.2813 C.3       1 MOL     0.0072
      2 C         -71.0825  -80.3970  -18.3271 C.3       1 MOL    -0.0128
      3 C         -71.2468  -79.0721  -19.0009 C.3       1 MOL     0.0072
      4 C         -72.3987  -80.8822  -17.7870 C.3       1 MOL     0.0379
      5 C         -72.2245  -81.5611  -16.4797 C.ar      1 MOL    -0.0471
      6 C         -72.0346  -80.7885  -15.3575 C.ar      1 MOL     0.0037
      7 C         -71.8696  -81.3702  -14.1331 C.ar      1 MOL     0.0044
      8 C         -71.8904  -82.7371  -14.0006 C.ar      1 MOL    -0.0391
      9 C         -72.0798  -83.5184  -15.1135 C.ar      1 MOL     0.0044
     10 C         -72.2458  -82.9287  -16.3484 C.ar      1 MOL     0.0037
     11 C         -71.7151  -83.3901  -12.6924 C.3       1 MOL     0.0614
     12 C         -70.5916  -82.6882  -11.9300 C.3       1 MOL     0.0185
     13 C         -73.0038  -83.2501  -11.9527 C.2       1 MOL     0.0489
     14 O         -73.5569  -82.1463  -11.8419 O.co2     1 MOL    -0.5492
     15 O         -73.5655  -84.3642  -11.3976 O.co2     1 MOL    -0.5492
     16 H         -69.5976  -81.0751  -19.6689 H         1 MOL     0.0232
     17 H         -71.2246  -81.5570  -20.0877 H         1 MOL     0.0232
     18 H         -70.3927  -82.3443  -18.7680 H         1 MOL     0.0232
     19 H         -70.3938  -80.2665  -17.5193 H         1 MOL     0.0299
     20 H         -71.9327  -79.1699  -19.8166 H         1 MOL     0.0232
     21 H         -70.2993  -78.7401  -19.3704 H         1 MOL     0.0232
     22 H         -71.6265  -78.3589  -18.2996 H         1 MOL     0.0232
     23 H         -72.8295  -81.5705  -18.4833 H         1 MOL     0.0316
     24 H         -73.0394  -80.0369  -17.6469 H         1 MOL     0.0316
     25 H         -72.0159  -79.7600  -15.4418 H         1 MOL     0.0620
     26 H         -71.7278  -80.7770  -13.3001 H         1 MOL     0.0621
     27 H         -72.0983  -84.5467  -15.0261 H         1 MOL     0.0621
     28 H         -72.3874  -83.5193  -17.1829 H         1 MOL     0.0620
     29 H         -71.4593  -84.4235  -12.8021 H         1 MOL     0.0406
     30 H         -70.8335  -81.6523  -11.8127 H         1 MOL     0.0239
     31 H         -69.6774  -82.7808  -12.4788 H         1 MOL     0.0239
     32 H         -70.4775  -83.1403  -10.9673 H         1 MOL     0.0239
@<TRIPOS>BOND
     1    1    2 1 
     2    1   16 1 
     3    1   17 1 
     4    1   18 1 
     5    2    3 1 
     6    2    4 1 
     7    2   19 1 
     8    3   20 1 
     9    3   21 1 
    10    3   22 1 
    11    4    5 1 
    12    4   23 1 
    13    4   24 1 
    14    5    6 ar
    15    5   10 ar
    16    6    7 ar
    17    6   25 1 
    18    7    8 ar
    19    7   26 1 
    20    8    9 ar
    21    8   11 1 
    22    9   10 ar
    23    9   27 1 
    24   10   28 1 
    25   11   12 1 
    26   11   13 1 
    27   11   29 1 
    28   12   30 1 
    29   12   31 1 
    30   12   32 1 
    31   13   14 ar
    32   13   15 ar
@<TRIPOS>SUBSTRUCTURE
1 MOL         1
@<TRIPOS>MOLECULE
query molecule
   32    32     1     0     0
SMALL
NO_CHARGE

@<TRIPOS>ATOM
      1 C          -2.4002  -45.1229   17.8812 C.3       1 MOL     0.0072
      2 C          -1.9433  -43.7513   17.4814 C.3       1 MOL    -0.0128
      3 C          -0.5079  -43.7698   17.0622 C.3       1 MOL     0.0072
      4 C          -2.8137  -43.2470   16.3644 C.3       1 MOL     0.0379
      5 C          -4.0140  -42.5529   16.8913 C.ar      1 MOL    -0.0471
      6 C          -3.8407  -41.3904   17.6060 C.ar      1 MOL     0.0037
      7 C          -4.9168  -40.7176   18.1103 C.ar      1 MOL     0.0044
      8 C          -6.1912  -41.1900   17.9125 C.ar      1 MOL    -0.0391
      9 C          -6.3765  -42.3489   17.2003 C.ar      1 MOL     0.0044
     10 C          -5.2885  -43.0263   16.6926 C.ar      1 MOL     0.0037
     11 C          -7.3689  -40.4843   18.4452 C.3       1 MOL     0.0614
     12 C          -7.1663  -40.2306   19.9387 C.3       1 MOL     0.0185
     13 C          -7.4752  -39.1879   17.7134 C.2       1 MOL     0.0489
     14 O          -7.1443  -39.1009   16.5220 O.co2     1 MOL    -0.5492
     15 O          -7.9455  -38.0942   18.3824 O.co2     1 MOL    -0.5492
     16 H          -1.7827  -45.4863   18.6768 H         1 MOL     0.0232
     17 H          -2.3258  -45.7827   17.0422 H         1 MOL     0.0232
     18 H          -3.4168  -45.0775   18.2109 H         1 MOL     0.0232
     19 H          -2.0273  -43.0943   18.3210 H         1 MOL     0.0299
     20 H          -0.3909  -44.4208   16.2208 H         1 MOL     0.0232
     21 H           0.0954  -44.1228   17.8721 H         1 MOL     0.0232
     22 H          -0.2013  -42.7808   16.7930 H         1 MOL     0.0232
     23 H          -3.1251  -44.0752   15.7631 H         1 MOL     0.0316
     24 H          -2.2477  -42.5502   15.7823 H         1 MOL     0.0316
     25 H          -2.8888  -41.0237   17.7632 H         1 MOL     0.0620
     26 H          -4.7706  -39.8466   18.6448 H         1 MOL     0.0621
     27 H          -7.3297  -42.7131   17.0445 H         1 MOL     0.0621
     28 H          -5.4317  -43.8975   16.1581 H         1 MOL     0.0620
     29 H          -8.2618  -41.0597   18.3148 H         1 MOL     0.0406
     30 H          -6.2756  -39.6557   20.0850 H         1 MOL     0.0239
     31 H          -7.0742  -41.1668   20.4492 H         1 MOL     0.0239
     32 H          -8.0065  -39.6939   20.3263 H         1 MOL     0.0239
@<TRIPOS>BOND
     1    1    2 1 
     2    1   16 1 
     3    1   17 1 
     4    1   18 1 
     5    2    3 1 
     6    2    4 1 
     7    2   19 1 
     8    3   20 1 
     9    3   21 1 
    10    3   22 1 
    11    4    5 1 
    12    4   23 1 
    13    4   24 1 
    14    5    6 ar
    15    5   10 ar
    16    6    7 ar
    17    6   25 1 
    18    7    8 ar
    19    7   26 1 
    20    8    9 ar
    21    8   11 1 
    22    9   10 ar
    23    9   27 1 
    24   10   28 1 
    25   11   12 1 
    26   11   13 1 
    27   11   29 1 
    28   12   30 1 
    29   12   31 1 
    30   12   32 1 
    31   13   14 ar
    32   13   15 ar
@<TRIPOS>SUBSTRUCTURE
1 MOL         1
@<TRIPOS>MOLECULE
query molecule
   32    32     1     0     0
SMALL
NO_CHARGE

@<TRIPOS>ATOM
      1 C         -44.8039  -31.7662  -16.1907 C.3       1 MOL     0.0072
      2 C         -44.6837  -30.4383  -16.8779 C.3       1 MOL    -0.0128
      3 C         -45.7991  -29.5275  -16.4742 C.3       1 MOL     0.0072
      4 C         -43.3530  -29.8263  -16.5402 C.3       1 MOL     0.0379
      5 C         -43.3441  -29.2918  -15.1565 C.ar      1 MOL    -0.0471
      6 C         -43.4425  -27.9316  -14.9763 C.ar      1 MOL     0.0037
      7 C         -43.4381  -27.3949  -13.7206 C.ar      1 MOL     0.0044
      8 C         -43.3354  -28.2040  -12.6154 C.ar      1 MOL    -0.0391
      9 C         -43.2372  -29.5630  -12.7831 C.ar      1 MOL     0.0044
     10 C         -43.2414  -30.1023  -14.0517 C.ar      1 MOL     0.0037
     11 C         -43.3283  -27.6515  -11.2504 C.3       1 MOL     0.0614
     12 C         -42.1108  -28.1901  -10.4996 C.3       1 MOL     0.0185
     13 C         -43.2397  -26.1669  -11.3754 C.2       1 MOL     0.0489
     14 O         -44.0815  -25.5320  -12.0272 O.co2     1 MOL    -0.5492
     15 O         -42.2104  -25.5172  -10.7564 O.co2     1 MOL    -0.5492
     16 H         -45.7508  -32.2059  -16.4283 H         1 MOL     0.0232
     17 H         -44.7304  -31.6283  -15.1322 H         1 MOL     0.0232
     18 H         -44.0177  -32.4112  -16.5224 H         1 MOL     0.0232
     19 H         -44.7498  -30.5827  -17.9354 H         1 MOL     0.0299
     20 H         -45.7599  -29.3630  -15.4175 H         1 MOL     0.0232
     21 H         -46.7359  -29.9761  -16.7302 H         1 MOL     0.0232
     22 H         -45.6996  -28.5925  -16.9845 H         1 MOL     0.0232
     23 H         -43.1518  -29.0286  -17.2239 H         1 MOL     0.0316
     24 H         -42.6026  -30.5853  -16.6149 H         1 MOL     0.0316
     25 H         -43.5196  -27.3111  -15.7973 H         1 MOL     0.0620
     26 H         -43.5125  -26.3721  -13.6014 H         1 MOL     0.0621
     27 H         -43.1604  -30.1811  -11.9600 H         1 MOL     0.0621
     28 H         -43.1669  -31.1243  -14.1738 H         1 MOL     0.0620
     29 H         -44.2109  -27.9277  -10.7120 H         1 MOL     0.0406
     30 H         -41.2192  -27.9215  -11.0270 H         1 MOL     0.0239
     31 H         -42.1775  -29.2561  -10.4320 H         1 MOL     0.0239
     32 H         -42.0846  -27.7710   -9.5158 H         1 MOL     0.0239
@<TRIPOS>BOND
     1    1    2 1 
     2    1   16 1 
     3    1   17 1 
     4    1   18 1 
     5    2    3 1 
     6    2    4 1 
     7    2   19 1 
     8    3   20 1 
     9    3   21 1 
    10    3   22 1 
    11    4    5 1 
    12    4   23 1 
    13    4   24 1 
    14    5    6 ar
    15    5   10 ar
    16    6    7 ar
    17    6   25 1 
    18    7    8 ar
    19    7   26 1 
    20    8    9 ar
    21    8   11 1 
    22    9   10 ar
    23    9   27 1 
    24   10   28 1 
    25   11   12 1 
    26   11   13 1 
    27   11   29 1 
    28   12   30 1 
    29   12   31 1 
    30   12   32 1 
    31   13   14 ar
    32   13   15 ar
@<TRIPOS>SUBSTRUCTURE
1 MOL         1
@<TRIPOS>MOLECULE
query molecule
   32    32     1     0     0
SMALL
NO_CHARGE

@<TRIPOS>ATOM
      1 C         -14.9881  -36.0107   13.9934 C.3       1 MOL     0.0072
      2 C         -14.8519  -34.5436   13.7127 C.3       1 MOL    -0.0128
      3 C         -14.9019  -33.7524   14.9807 C.3       1 MOL     0.0072
      4 C         -13.5587  -34.2977   12.9869 C.3       1 MOL     0.0379
      5 C         -13.1778  -35.4677   12.1585 C.ar      1 MOL    -0.0471
      6 C         -12.1139  -36.2408   12.5619 C.ar      1 MOL     0.0037
      7 C         -11.7274  -37.3272   11.8304 C.ar      1 MOL     0.0044
      8 C         -12.3945  -37.6672   10.6789 C.ar      1 MOL    -0.0391
      9 C         -13.4582  -36.9034   10.2668 C.ar      1 MOL     0.0044
     10 C         -13.8460  -35.8069   11.0068 C.ar      1 MOL     0.0037
     11 C         -11.9987  -38.8334    9.8715 C.3       1 MOL     0.0614
     12 C         -13.2228  -39.7186    9.6386 C.3       1 MOL     0.0185
     13 C         -11.4840  -38.3153    8.5699 C.2       1 MOL     0.0489
     14 O         -10.3114  -38.5184    8.2233 O.co2     1 MOL    -0.5492
     15 O         -12.3314  -37.6101    7.7639 O.co2     1 MOL    -0.5492
     16 H         -15.9082  -36.1906   14.5107 H         1 MOL     0.0232
     17 H         -14.1687  -36.3357   14.5998 H         1 MOL     0.0232
     18 H         -14.9862  -36.5515   13.0705 H         1 MOL     0.0232
     19 H         -15.6687  -34.2257   13.0999 H         1 MOL     0.0299
     20 H         -14.0942  -34.0484   15.6174 H         1 MOL     0.0232
     21 H         -15.8318  -33.9338   15.4776 H         1 MOL     0.0232
     22 H         -14.8148  -32.7101   14.7555 H         1 MOL     0.0232
     23 H         -12.7864  -34.1106   13.7030 H         1 MOL     0.0316
     24 H         -13.6876  -33.4537   12.3421 H         1 MOL     0.0316
     25 H         -11.6026  -35.9971   13.4247 H         1 MOL     0.0620
     26 H         -10.9268  -37.8976   12.1459 H         1 MOL     0.0621
     27 H         -13.9677  -37.1497    9.4036 H         1 MOL     0.0621
     28 H         -14.6458  -35.2348   10.6936 H         1 MOL     0.0620
     29 H         -11.2468  -39.4137   10.3646 H         1 MOL     0.0406
     30 H         -13.9845  -39.1511    9.1457 H         1 MOL     0.0239
     31 H         -13.5924  -40.0693   10.5798 H         1 MOL     0.0239
     32 H         -12.9480  -40.5538    9.0294 H         1 MOL     0.0239
@<TRIPOS>BOND
     1    1    2 1 
     2    1   16 1 
     3    1   17 1 
     4    1   18 1 
     5    2    3 1 
     6    2    4 1 
     7    2   19 1 
     8    3   20 1 
     9    3   21 1 
    10    3   22 1 
    11    4    5 1 
    12    4   23 1 
    13    4   24 1 
    14    5    6 ar
    15    5   10 ar
    16    6    7 ar
    17    6   25 1 
    18    7    8 ar
    19    7   26 1 
    20    8    9 ar
    21    8   11 1 
    22    9   10 ar
    23    9   27 1 
    24   10   28 1 
    25   11   12 1 
    26   11   13 1 
    27   11   29 1 
    28   12   30 1 
    29   12   31 1 
    30   12   32 1 
    31   13   14 ar
    32   13   15 ar
@<TRIPOS>SUBSTRUCTURE
1 MOL         1
@<TRIPOS>MOLECULE
query molecule
   32    32     1     0     0
SMALL
NO_CHARGE

@<TRIPOS>ATOM
      1 C         -59.7420  -74.9881   28.3426 C.3       1 MOL     0.0072
      2 C         -58.5912  -75.7581   27.7657 C.3       1 MOL    -0.0128
      3 C         -57.3545  -75.5582   28.5825 C.3       1 MOL     0.0072
      4 C         -58.9539  -77.2155   27.7037 C.3       1 MOL     0.0379
      5 C         -58.6662  -77.7833   26.3639 C.ar      1 MOL    -0.0471
      6 C         -59.3671  -78.8945   25.9562 C.ar      1 MOL     0.0037
      7 C         -59.1354  -79.4515   24.7311 C.ar      1 MOL     0.0044
      8 C         -58.1983  -78.9117   23.8843 C.ar      1 MOL    -0.0391
      9 C         -57.4932  -77.8024   24.2802 C.ar      1 MOL     0.0044
     10 C         -57.7287  -77.2423   25.5176 C.ar      1 MOL     0.0037
     11 C         -57.9288  -79.4923   22.5581 C.3       1 MOL     0.0614
     12 C         -57.9233  -81.0165   22.6715 C.3       1 MOL     0.0185
     13 C         -59.0272  -79.0484   21.6503 C.2       1 MOL     0.0489
     14 O         -60.1604  -78.8096   22.0922 O.co2     1 MOL    -0.5492
     15 O         -58.7607  -78.9094   20.3182 O.co2     1 MOL    -0.5492
     16 H         -59.4879  -73.9490   28.3888 H         1 MOL     0.0232
     17 H         -59.9539  -75.3475   29.3278 H         1 MOL     0.0232
     18 H         -60.6036  -75.1174   27.7221 H         1 MOL     0.0232
     19 H         -58.3888  -75.4004   26.7784 H         1 MOL     0.0299
     20 H         -57.5257  -75.9077   29.5794 H         1 MOL     0.0232
     21 H         -57.1082  -74.5174   28.6075 H         1 MOL     0.0232
     22 H         -56.5457  -76.1062   28.1466 H         1 MOL     0.0232
     23 H         -59.9972  -77.3250   27.9127 H         1 MOL     0.0316
     24 H         -58.3672  -77.7414   28.4276 H         1 MOL     0.0316
     25 H         -60.0739  -79.3116   26.5822 H         1 MOL     0.0620
     26 H         -59.6693  -80.2856   24.4394 H         1 MOL     0.0621
     27 H         -56.7871  -77.3874   23.6519 H         1 MOL     0.0621
     28 H         -57.1962  -76.4086   25.8119 H         1 MOL     0.0620
     29 H         -56.9803  -79.1749   22.1775 H         1 MOL     0.0406
     30 H         -58.8668  -81.3491   23.0516 H         1 MOL     0.0239
     31 H         -57.1432  -81.3207   23.3381 H         1 MOL     0.0239
     32 H         -57.7552  -81.4452   21.7060 H         1 MOL     0.0239
@<TRIPOS>BOND
     1    1    2 1 
     2    1   16 1 
     3    1   17 1 
     4    1   18 1 
     5    2    3 1 
     6    2    4 1 
     7    2   19 1 
     8    3   20 1 
     9    3   21 1 
    10    3   22 1 
    11    4    5 1 
    12    4   23 1 
    13    4   24 1 
    14    5    6 ar
    15    5   10 ar
    16    6    7 ar
    17    6   25 1 
    18    7    8 ar
    19    7   26 1 
    20    8    9 ar
    21    8   11 1 
    22    9   10 ar
    23    9   27 1 
    24   10   28 1 
    25   11   12 1 
    26   11   13 1 
    27   11   29 1 
    28   12   30 1 
    29   12   31 1 
    30   12   32 1 
    31   13   14 ar
    32   13   15 ar
@<TRIPOS>SUBSTRUCTURE
1 MOL         1
@<TRIPOS>MOLECULE
query molecule
   32    32     1     0     0
SMALL
NO_CHARGE

@<TRIPOS>ATOM
      1 C         -68.5202  -41.8069   -4.2741 C.3       1 MOL     0.0072
      2 C         -67.8166  -40.7772   -3.4406 C.3       1 MOL    -0.0128
      3 C         -66.3529  -41.0718   -3.3546 C.3       1 MOL     0.0072
      4 C         -68.0479  -39.4170   -4.0371 C.3       1 MOL     0.0379
      5 C         -68.9768  -38.6163   -3.2028 C.ar      1 MOL    -0.0471
      6 C         -68.4489  -37.6802   -2.3442 C.ar      1 MOL     0.0037
      7 C         -69.2660  -36.9204   -1.5568 C.ar      1 MOL     0.0044
      8 C         -70.6295  -37.0777   -1.6085 C.ar      1 MOL    -0.0391
      9 C         -71.1677  -38.0084   -2.4620 C.ar      1 MOL     0.0044
     10 C         -70.3407  -38.7744   -3.2555 C.ar      1 MOL     0.0037
     11 C         -71.5332  -36.2716   -0.7705 C.3       1 MOL     0.0614
     12 C         -71.5424  -36.8426    0.6472 C.3       1 MOL     0.0185
     13 C         -70.9997  -34.8778   -0.7598 C.2       1 MOL     0.0489
     14 O         -70.9699  -34.2001   -1.7973 O.co2     1 MOL    -0.5492
     15 O         -70.5428  -34.3598    0.4182 O.co2     1 MOL    -0.5492
     16 H         -68.3579  -42.7778   -3.8528 H         1 MOL     0.0232
     17 H         -68.1349  -41.7823   -5.2720 H         1 MOL     0.0232
     18 H         -69.5687  -41.5958   -4.2906 H         1 MOL     0.0232
     19 H         -68.2108  -40.8005   -2.4467 H         1 MOL     0.0299
     20 H         -65.9281  -41.0556   -4.3367 H         1 MOL     0.0232
     21 H         -66.2089  -42.0389   -2.9203 H         1 MOL     0.0232
     22 H         -65.8745  -40.3326   -2.7470 H         1 MOL     0.0232
     23 H         -68.4667  -39.5310   -5.0148 H         1 MOL     0.0316
     24 H         -67.1097  -38.9050   -4.0862 H         1 MOL     0.0316
     25 H         -67.4261  -37.5514   -2.2940 H         1 MOL     0.0620
     26 H         -68.8548  -36.2221   -0.9172 H         1 MOL     0.0621
     27 H         -72.1910  -38.1349   -2.5102 H         1 MOL     0.0621
     28 H         -70.7490  -39.4735   -3.8956 H         1 MOL     0.0620
     29 H         -72.5338  -36.2843   -1.1500 H         1 MOL     0.0406
     30 H         -70.5470  -36.8366    1.0403 H         1 MOL     0.0239
     31 H         -71.9102  -37.8474    0.6236 H         1 MOL     0.0239
     32 H         -72.1760  -36.2450    1.2681 H         1 MOL     0.0239
@<TRIPOS>BOND
     1    1    2 1 
     2    1   16 1 
     3    1   17 1 
     4    1   18 1 
     5    2    3 1 
     6    2    4 1 
     7    2   19 1 
     8    3   20 1 
     9    3   21 1 
    10    3   22 1 
    11    4    5 1 
    12    4   23 1 
    13    4   24 1 
    14    5    6 ar
    15    5   10 ar
    16    6    7 ar
    17    6   25 1 
    18    7    8 ar
    19    7   26 1 
    20    8    9 ar
    21    8   11 1 
    22    9   10 ar
    23    9   27 1 
    24   10   28 1 
    25   11   12 1 
    26   11   13 1 
    27   11   29 1 
    28   12   30 1 
    29   12   31 1 
    30   12   32 1 
    31   13   14 ar
    32   13   15 ar
@<TRIPOS>SUBSTRUCTURE
1 MOL         1
@<TRIPOS>MOLECULE
query molecule
   32    32     1     0     0
SMALL
NO_CHARGE

@<TRIPOS>ATOM
      1 C         -61.5735  -38.6763   28.2229 C.3       1 MOL     0.0072
      2 C         -61.7034  -37.2325   27.8376 C.3       1 MOL    -0.0128
      3 C         -60.7000  -36.3954   28.5649 C.3       1 MOL     0.0072
      4 C         -61.5240  -37.1001   26.3510 C.3       1 MOL     0.0379
      5 C         -62.5581  -36.2142   25.7628 C.ar      1 MOL    -0.0471
      6 C         -62.2360  -34.8993   25.5187 C.ar      1 MOL     0.0037
      7 C         -63.1562  -34.0472   24.9784 C.ar      1 MOL     0.0044
      8 C         -64.4197  -34.4882   24.6692 C.ar      1 MOL    -0.0391
      9 C         -64.7524  -35.7986   24.9079 C.ar      1 MOL     0.0044
     10 C         -63.8217  -36.6566   25.4538 C.ar      1 MOL     0.0037
     11 C         -65.4310  -33.5907   24.0858 C.3       1 MOL     0.0614
     12 C         -65.9802  -34.2211   22.8064 C.3       1 MOL     0.0185
     13 C         -66.5215  -33.4398   25.0936 C.2       1 MOL     0.0489
     14 O         -66.2764  -33.4859   26.3078 O.co2     1 MOL    -0.5492
     15 O         -67.7998  -33.2495   24.6526 O.co2     1 MOL    -0.5492
     16 H         -61.7003  -38.7753   29.2815 H         1 MOL     0.0232
     17 H         -60.6042  -39.0341   27.9450 H         1 MOL     0.0232
     18 H         -62.3236  -39.2483   27.7187 H         1 MOL     0.0232
     19 H         -62.6763  -36.8822   28.1103 H         1 MOL     0.0299
     20 H         -59.7129  -36.7224   28.3120 H         1 MOL     0.0232
     21 H         -60.8492  -36.4961   29.6195 H         1 MOL     0.0232
     22 H         -60.8188  -35.3700   28.2838 H         1 MOL     0.0232
     23 H         -61.5979  -38.0686   25.9028 H         1 MOL     0.0316
     24 H         -60.5626  -36.6699   26.1631 H         1 MOL     0.0316
     25 H         -61.2907  -34.5534   25.7465 H         1 MOL     0.0620
     26 H         -62.8996  -33.0630   24.8012 H         1 MOL     0.0621
     27 H         -65.6985  -36.1417   24.6788 H         1 MOL     0.0621
     28 H         -64.0756  -37.6409   25.6323 H         1 MOL     0.0620
     29 H         -65.0133  -32.6356   23.8436 H         1 MOL     0.0406
     30 H         -66.4016  -35.1784   23.0331 H         1 MOL     0.0239
     31 H         -65.1859  -34.3398   22.0990 H         1 MOL     0.0239
     32 H         -66.7353  -33.5868   22.3921 H         1 MOL     0.0239
@<TRIPOS>BOND
     1    1    2 1 
     2    1   16 1 
     3    1   17 1 
     4    1   18 1 
     5    2    3 1 
     6    2    4 1 
     7    2   19 1 
     8    3   20 1 
     9    3   21 1 
    10    3   22 1 
    11    4    5 1 
    12    4   23 1 
    13    4   24 1 
    14    5    6 ar
    15    5   10 ar
    16    6    7 ar
    17    6   25 1 
    18    7    8 ar
    19    7   26 1 
    20    8    9 ar
    21    8   11 1 
    22    9   10 ar
    23    9   27 1 
    24   10   28 1 
    25   11   12 1 
    26   11   13 1 
    27   11   29 1 
    28   12   30 1 
    29   12   31 1 
    30   12   32 1 
    31   13   14 ar
    32   13   15 ar
@<TRIPOS>SUBSTRUCTURE
1 MOL         1
@<TRIPOS>MOLECULE
query molecule
   32    32     1     0     0
SMALL
NO_CHARGE

@<TRIPOS>ATOM
      1 C         -59.5768  -24.1628   10.7043 C.3       1 MOL     0.0072
      2 C         -60.2621  -25.4539   10.3674 C.3       1 MOL    -0.0128
      3 C         -59.2905  -26.4403    9.8022 C.3       1 MOL     0.0072
      4 C         -60.9145  -26.0041   11.6048 C.3       1 MOL     0.0379
      5 C         -62.3541  -26.2783   11.3754 C.ar      1 MOL    -0.0471
      6 C         -63.2288  -26.1225   12.4257 C.ar      1 MOL     0.0037
      7 C         -64.5627  -26.3639   12.2609 C.ar      1 MOL     0.0044
      8 C         -65.0545  -26.7665   11.0433 C.ar      1 MOL    -0.0391
      9 C         -64.1911  -26.9248    9.9877 C.ar      1 MOL     0.0044
     10 C         -62.8449  -26.6809   10.1568 C.ar      1 MOL     0.0037
     11 C         -66.4881  -27.0335   10.8382 C.3       1 MOL     0.0614
     12 C         -66.8858  -26.5763    9.4350 C.3       1 MOL     0.0185
     13 C         -66.6869  -28.5063   10.9745 C.2       1 MOL     0.0489
     14 O         -67.8013  -28.9752   11.2479 O.co2     1 MOL    -0.5492
     15 O         -65.6148  -29.3322   10.7919 O.co2     1 MOL    -0.5492
     16 H         -59.1103  -23.7672    9.8256 H         1 MOL     0.0232
     17 H         -58.8339  -24.3382   11.4542 H         1 MOL     0.0232
     18 H         -60.2971  -23.4627   11.0719 H         1 MOL     0.0232
     19 H         -61.0087  -25.2717    9.6237 H         1 MOL     0.0299
     20 H         -58.5284  -26.6440   10.5253 H         1 MOL     0.0232
     21 H         -58.8439  -26.0345    8.9188 H         1 MOL     0.0232
     22 H         -59.8028  -27.3475    9.5589 H         1 MOL     0.0232
     23 H         -60.8165  -25.2924   12.3973 H         1 MOL     0.0316
     24 H         -60.4314  -26.9235   11.8619 H         1 MOL     0.0316
     25 H         -62.8736  -25.8211   13.3467 H         1 MOL     0.0620
     26 H         -65.2067  -26.2427   13.0587 H         1 MOL     0.0621
     27 H         -64.5493  -27.2261    9.0677 H         1 MOL     0.0621
     28 H         -62.1989  -26.8015    9.3611 H         1 MOL     0.0620
     29 H         -67.0896  -26.5091   11.5512 H         1 MOL     0.0406
     30 H         -66.2916  -27.0927    8.7100 H         1 MOL     0.0239
     31 H         -66.7223  -25.5224    9.3445 H         1 MOL     0.0239
     32 H         -67.9203  -26.7925    9.2695 H         1 MOL     0.0239
@<TRIPOS>BOND
     1    1    2 1 
     2    1   16 1 
     3    1   17 1 
     4    1   18 1 
     5    2    3 1 
     6    2    4 1 
     7    2   19 1 
     8    3   20 1 
     9    3   21 1 
    10    3   22 1 
    11    4    5 1 
    12    4   23 1 
    13    4   24 1 
    14    5    6 ar
    15    5   10 ar
    16    6    7 ar
    17    6   25 1 
    18    7    8 ar
    19    7   26 1 
    20    8    9 ar
    21    8   11 1 
    22    9   10 ar
    23    9   27 1 
    24   10   28 1 
    25   11   12 1 
    26   11   13 1 
    27   11   29 1 
    28   12   30 1 
    29   12   31 1 
    30   12   32 1 
    31   13   14 ar
    32   13   15 ar
@<TRIPOS>SUBSTRUCTURE
1 MOL         1
@<TRIPOS>MOLECULE
query molecule
   32    32     1     0     0
SMALL
NO_CHARGE

@<TRIPOS>ATOM
      1 C         -40.6466  -20.8941  -23.9914 C.3       1 MOL     0.0072
      2 C         -39.4512  -21.7947  -24.0912 C.3       1 MOL    -0.0128
      3 C         -39.5830  -22.9587  -23.1615 C.3       1 MOL     0.0072
      4 C         -39.3053  -22.2660  -25.5111 C.3       1 MOL     0.0379
      5 C         -40.4307  -21.7908  -26.3523 C.ar      1 MOL    -0.0471
      6 C         -41.7114  -22.1506  -26.0019 C.ar      1 MOL     0.0037
      7 C         -42.7781  -21.7365  -26.7471 C.ar      1 MOL     0.0044
      8 C         -42.5910  -20.9532  -27.8597 C.ar      1 MOL    -0.0391
      9 C         -41.3175  -20.5873  -28.2187 C.ar      1 MOL     0.0044
     10 C         -40.2423  -21.0070  -27.4650 C.ar      1 MOL     0.0037
     11 C         -43.7235  -20.4927  -28.6808 C.3       1 MOL     0.0614
     12 C         -43.2169  -19.4810  -29.7084 C.3       1 MOL     0.0185
     13 C         -44.2836  -21.6910  -29.3721 C.2       1 MOL     0.0489
     14 O         -43.7195  -22.1745  -30.3643 O.co2     1 MOL    -0.5492
     15 O         -45.4337  -22.2477  -28.8904 O.co2     1 MOL    -0.5492
     16 H         -40.7546  -20.5560  -22.9813 H         1 MOL     0.0232
     17 H         -41.5243  -21.4322  -24.2830 H         1 MOL     0.0232
     18 H         -40.5128  -20.0519  -24.6372 H         1 MOL     0.0232
     19 H         -38.5761  -21.2499  -23.8064 H         1 MOL     0.0299
     20 H         -40.4525  -23.5256  -23.4217 H         1 MOL     0.0232
     21 H         -39.6769  -22.6035  -22.1568 H         1 MOL     0.0232
     22 H         -38.7155  -23.5798  -23.2411 H         1 MOL     0.0232
     23 H         -39.2870  -23.3355  -25.5239 H         1 MOL     0.0316
     24 H         -38.3945  -21.8686  -25.9077 H         1 MOL     0.0316
     25 H         -41.8674  -22.7396  -25.1688 H         1 MOL     0.0620
     26 H         -43.7333  -22.0150  -26.4716 H         1 MOL     0.0621
     27 H         -41.1645  -19.9980  -29.0523 H         1 MOL     0.0621
     28 H         -39.2863  -20.7304  -27.7383 H         1 MOL     0.0620
     29 H         -44.4756  -20.0231  -28.0816 H         1 MOL     0.0406
     30 H         -42.4628  -19.9368  -30.3156 H         1 MOL     0.0239
     31 H         -42.8024  -18.6351  -29.2003 H         1 MOL     0.0239
     32 H         -44.0301  -19.1629  -30.3263 H         1 MOL     0.0239
@<TRIPOS>BOND
     1    1    2 1 
     2    1   16 1 
     3    1   17 1 
     4    1   18 1 
     5    2    3 1 
     6    2    4 1 
     7    2   19 1 
     8    3   20 1 
     9    3   21 1 
    10    3   22 1 
    11    4    5 1 
    12    4   23 1 
    13    4   24 1 
    14    5    6 ar
    15    5   10 ar
    16    6    7 ar
    17    6   25 1 
    18    7    8 ar
    19    7   26 1 
    20    8    9 ar
    21    8   11 1 
    22    9   10 ar
    23    9   27 1 
    24   10   28 1 
    25   11   12 1 
    26   11   13 1 
    27   11   29 1 
    28   12   30 1 
    29   12   31 1 
    30   12   32 1 
    31   13   14 ar
    32   13   15 ar
@<TRIPOS>SUBSTRUCTURE
1 MOL         1
@<TRIPOS>MOLECULE
query molecule
   32    32     1     0     0
SMALL
NO_CHARGE

@<TRIPOS>ATOM
      1 C         -23.8225  -35.8795   26.4278 C.3       1 MOL     0.0072
      2 C         -24.7351  -34.6953   26.3058 C.3       1 MOL    -0.0128
      3 C         -24.1037  -33.6199   25.4803 C.3       1 MOL     0.0072
      4 C         -26.0361  -35.1355   25.6949 C.3       1 MOL     0.0379
      5 C         -27.0878  -35.2935   26.7289 C.ar      1 MOL    -0.0471
      6 C         -27.7082  -34.1654   27.2136 C.ar      1 MOL     0.0037
      7 C         -28.6818  -34.2628   28.1662 C.ar      1 MOL     0.0044
      8 C         -29.0588  -35.4890   28.6569 C.ar      1 MOL    -0.0391
      9 C         -28.4471  -36.6217   28.1802 C.ar      1 MOL     0.0044
     10 C         -27.4642  -36.5207   27.2189 C.ar      1 MOL     0.0037
     11 C         -30.1057  -35.6223   29.6840 C.3       1 MOL     0.0614
     12 C         -31.1889  -36.5720   29.1731 C.3       1 MOL     0.0185
     13 C         -29.4584  -36.1895   30.9033 C.2       1 MOL     0.0489
     14 O         -29.8904  -37.2253   31.4296 O.co2     1 MOL    -0.5492
     15 O         -28.3769  -35.5443   31.4316 O.co2     1 MOL    -0.5492
     16 H         -22.8940  -35.5705   26.8624 H         1 MOL     0.0232
     17 H         -23.6419  -36.2925   25.4574 H         1 MOL     0.0232
     18 H         -24.2798  -36.6187   27.0513 H         1 MOL     0.0232
     19 H         -24.9186  -34.2914   27.2788 H         1 MOL     0.0299
     20 H         -23.9072  -33.9945   24.4973 H         1 MOL     0.0232
     21 H         -23.1849  -33.3145   25.9353 H         1 MOL     0.0232
     22 H         -24.7664  -32.7825   25.4168 H         1 MOL     0.0232
     23 H         -25.8900  -36.0722   25.1994 H         1 MOL     0.0316
     24 H         -26.3541  -34.3868   24.9998 H         1 MOL     0.0316
     25 H         -27.4348  -33.2371   26.8548 H         1 MOL     0.0620
     26 H         -29.1380  -33.4070   28.5204 H         1 MOL     0.0621
     27 H         -28.7228  -37.5488   28.5408 H         1 MOL     0.0621
     28 H         -27.0063  -37.3745   26.8632 H         1 MOL     0.0620
     29 H         -30.5573  -34.6781   29.9073 H         1 MOL     0.0406
     30 H         -30.7517  -37.5217   28.9450 H         1 MOL     0.0239
     31 H         -31.6330  -36.1626   28.2895 H         1 MOL     0.0239
     32 H         -31.9391  -36.6948   29.9256 H         1 MOL     0.0239
@<TRIPOS>BOND
     1    1    2 1 
     2    1   16 1 
     3    1   17 1 
     4    1   18 1 
     5    2    3 1 
     6    2    4 1 
     7    2   19 1 
     8    3   20 1 
     9    3   21 1 
    10    3   22 1 
    11    4    5 1 
    12    4   23 1 
    13    4   24 1 
    14    5    6 ar
    15    5   10 ar
    16    6    7 ar
    17    6   25 1 
    18    7    8 ar
    19    7   26 1 
    20    8    9 ar
    21    8   11 1 
    22    9   10 ar
    23    9   27 1 
    24   10   28 1 
    25   11   12 1 
    26   11   13 1 
    27   11   29 1 
    28   12   30 1 
    29   12   31 1 
    30   12   32 1 
    31   13   14 ar
    32   13   15 ar
@<TRIPOS>SUBSTRUCTURE
1 MOL         1
@<TRIPOS>MOLECULE
query molecule
   32    32     1     0     0
SMALL
NO_CHARGE

@<TRIPOS>ATOM
      1 C         -34.7579  -66.6455  -13.6085 C.3       1 MOL     0.0072
      2 C         -34.8056  -66.9902  -15.0676 C.3       1 MOL    -0.0128
      3 C         -35.3119  -68.3829  -15.2689 C.3       1 MOL     0.0072
      4 C         -35.6839  -66.0002  -15.7803 C.3       1 MOL     0.0379
      5 C         -35.4519  -66.0345  -17.2450 C.ar      1 MOL    -0.0471
      6 C         -36.4521  -66.5147  -18.0582 C.ar      1 MOL     0.0037
      7 C         -36.2828  -66.5651  -19.4123 C.ar      1 MOL     0.0044
      8 C         -35.1105  -66.1372  -19.9860 C.ar      1 MOL    -0.0391
      9 C         -34.1055  -65.6555  -19.1845 C.ar      1 MOL     0.0044
     10 C         -34.2788  -65.6060  -17.8178 C.ar      1 MOL     0.0037
     11 C         -34.9017  -66.1805  -21.4431 C.3       1 MOL     0.0614
     12 C         -33.4109  -66.3591  -21.7293 C.3       1 MOL     0.0185
     13 C         -35.6688  -67.3497  -21.9646 C.2       1 MOL     0.0489
     14 O         -36.8896  -67.2715  -22.1648 O.co2     1 MOL    -0.5492
     15 O         -34.9993  -68.5126  -22.2183 O.co2     1 MOL    -0.5492
     16 H         -34.1333  -67.3485  -13.0966 H         1 MOL     0.0232
     17 H         -35.7462  -66.6833  -13.2003 H         1 MOL     0.0232
     18 H         -34.3591  -65.6602  -13.4882 H         1 MOL     0.0232
     19 H         -33.8168  -66.9432  -15.4722 H         1 MOL     0.0299
     20 H         -36.3030  -68.4623  -14.8730 H         1 MOL     0.0232
     21 H         -34.6698  -69.0724  -14.7621 H         1 MOL     0.0232
     22 H         -35.3263  -68.6105  -16.3142 H         1 MOL     0.0232
     23 H         -35.4699  -65.0176  -15.4158 H         1 MOL     0.0316
     24 H         -36.7054  -66.2577  -15.5930 H         1 MOL     0.0316
     25 H         -37.3383  -66.8404  -17.6412 H         1 MOL     0.0620
     26 H         -37.0426  -66.9283  -20.0095 H         1 MOL     0.0621
     27 H         -33.2204  -65.3302  -19.6044 H         1 MOL     0.0621
     28 H         -33.5209  -65.2437  -17.2184 H         1 MOL     0.0620
     29 H         -35.2336  -65.2781  -21.9129 H         1 MOL     0.0406
     30 H         -33.0641  -67.2587  -21.2648 H         1 MOL     0.0239
     31 H         -32.8705  -65.5234  -21.3355 H         1 MOL     0.0239
     32 H         -33.2555  -66.4189  -22.7859 H         1 MOL     0.0239
@<TRIPOS>BOND
     1    1    2 1 
     2    1   16 1 
     3    1   17 1 
     4    1   18 1 
     5    2    3 1 
     6    2    4 1 
     7    2   19 1 
     8    3   20 1 
     9    3   21 1 
    10    3   22 1 
    11    4    5 1 
    12    4   23 1 
    13    4   24 1 
    14    5    6 ar
    15    5   10 ar
    16    6    7 ar
    17    6   25 1 
    18    7    8 ar
    19    7   26 1 
    20    8    9 ar
    21    8   11 1 
    22    9   10 ar
    23    9   27 1 
    24   10   28 1 
    25   11   12 1 
    26   11   13 1 
    27   11   29 1 
    28   12   30 1 
    29   12   31 1 
    30   12   32 1 
    31   13   14 ar
    32   13   15 ar
@<TRIPOS>SUBSTRUCTURE
1 MOL         1
@<TRIPOS>MOLECULE
query molecule
   32    32     1     0     0
SMALL
NO_CHARGE

@<TRIPOS>ATOM
      1 C         -59.8442  -56.0862   24.7452 C.3       1 MOL     0.0072
      2 C         -61.3296  -56.2880   24.6905 C.3       1 MOL    -0.0128
      3 C         -61.8362  -56.8617   25.9753 C.3       1 MOL     0.0072
      4 C         -61.9961  -54.9723   24.3999 C.3       1 MOL     0.0379
      5 C         -63.3409  -55.1719   23.8068 C.ar      1 MOL    -0.0471
      6 C         -64.2837  -54.1831   23.9672 C.ar      1 MOL     0.0037
      7 C         -65.5350  -54.3237   23.4386 C.ar      1 MOL     0.0044
      8 C         -65.8741  -55.4550   22.7374 C.ar      1 MOL    -0.0391
      9 C         -64.9412  -56.4482   22.5704 C.ar      1 MOL     0.0044
     10 C         -63.6789  -56.3040   23.1053 C.ar      1 MOL     0.0037
     11 C         -67.2159  -55.6321   22.1571 C.3       1 MOL     0.0614
     12 C         -67.0761  -56.0592   20.6962 C.3       1 MOL     0.0185
     13 C         -67.8989  -56.7019   22.9423 C.2       1 MOL     0.0489
     14 O         -68.2479  -56.5055   24.1153 O.co2     1 MOL    -0.5492
     15 O         -68.1337  -57.9063   22.3430 O.co2     1 MOL    -0.5492
     16 H         -59.3651  -57.0211   24.9523 H         1 MOL     0.0232
     17 H         -59.6074  -55.3853   25.5181 H         1 MOL     0.0232
     18 H         -59.5011  -55.7102   23.8044 H         1 MOL     0.0232
     19 H         -61.5614  -56.9829   23.9115 H         1 MOL     0.0299
     20 H         -61.6187  -56.1870   26.7770 H         1 MOL     0.0232
     21 H         -61.3572  -57.8003   26.1599 H         1 MOL     0.0232
     22 H         -62.8940  -57.0076   25.9091 H         1 MOL     0.0232
     23 H         -61.3907  -54.4180   23.7140 H         1 MOL     0.0316
     24 H         -62.1077  -54.4388   25.3206 H         1 MOL     0.0316
     25 H         -64.0436  -53.3276   24.4923 H         1 MOL     0.0620
     26 H         -66.2319  -53.5729   23.5676 H         1 MOL     0.0621
     27 H         -65.1842  -57.3025   22.0446 H         1 MOL     0.0621
     28 H         -62.9804  -57.0530   22.9782 H         1 MOL     0.0620
     29 H         -67.7813  -54.7242   22.1946 H         1 MOL     0.0406
     30 H         -66.5118  -56.9669   20.6426 H         1 MOL     0.0239
     31 H         -66.5698  -55.2919   20.1481 H         1 MOL     0.0239
     32 H         -68.0473  -56.2162   20.2763 H         1 MOL     0.0239
@<TRIPOS>BOND
     1    1    2 1 
     2    1   16 1 
     3    1   17 1 
     4    1   18 1 
     5    2    3 1 
     6    2    4 1 
     7    2   19 1 
     8    3   20 1 
     9    3   21 1 
    10    3   22 1 
    11    4    5 1 
    12    4   23 1 
    13    4   24 1 
    14    5    6 ar
    15    5   10 ar
    16    6    7 ar
    17    6   25 1 
    18    7    8 ar
    19    7   26 1 
    20    8    9 ar
    21    8   11 1 
    22    9   10 ar
    23    9   27 1 
    24   10   28 1 
    25   11   12 1 
    26   11   13 1 
    27   11   29 1 
    28   12   30 1 
    29   12   31 1 
    30   12   32 1 
    31   13   14 ar
    32   13   15 ar
@<TRIPOS>SUBSTRUCTURE
1 MOL         1
@<TRIPOS>MOLECULE
query molecule
   32    32     1     0     0
SMALL
NO_CHARGE

@<TRIPOS>ATOM
      1 C         -38.6081  -44.0076   23.2294 C.3       1 MOL     0.0072
      2 C         -38.3363  -42.5869   23.6266 C.3       1 MOL    -0.0128
      3 C         -36.9069  -42.2278   23.3733 C.3       1 MOL     0.0072
      4 C         -39.2540  -41.6759   22.8602 C.3       1 MOL     0.0379
      5 C         -40.2955  -41.0969   23.7435 C.ar      1 MOL    -0.0471
      6 C         -39.9646  -40.0190   24.5315 C.ar      1 MOL     0.0037
      7 C         -40.8910  -39.4536   25.3603 C.ar      1 MOL     0.0044
      8 C         -42.1696  -39.9514   25.4216 C.ar      1 MOL    -0.0391
      9 C         -42.5116  -41.0264   24.6393 C.ar      1 MOL     0.0044
     10 C         -41.5744  -41.5956   23.8038 C.ar      1 MOL     0.0037
     11 C         -43.1879  -39.3607   26.3064 C.3       1 MOL     0.0614
     12 C         -44.3995  -38.9503   25.4698 C.3       1 MOL     0.0185
     13 C         -43.5769  -40.4099   27.2941 C.2       1 MOL     0.0489
     14 O         -42.7156  -41.0670   27.8964 O.co2     1 MOL    -0.5492
     15 O         -44.9042  -40.6342   27.5235 O.co2     1 MOL    -0.5492
     16 H         -37.9562  -44.6604   23.7730 H         1 MOL     0.0232
     17 H         -38.4354  -44.1242   22.1800 H         1 MOL     0.0232
     18 H         -39.6252  -44.2516   23.4534 H         1 MOL     0.0232
     19 H         -38.5181  -42.4741   24.6744 H         1 MOL     0.0299
     20 H         -36.6932  -42.3310   22.3297 H         1 MOL     0.0232
     21 H         -36.2707  -42.8807   23.9332 H         1 MOL     0.0232
     22 H         -36.7337  -41.2159   23.6742 H         1 MOL     0.0232
     23 H         -39.7283  -42.2335   22.0802 H         1 MOL     0.0316
     24 H         -38.6730  -40.8756   22.4519 H         1 MOL     0.0316
     25 H         -39.0074  -39.6346   24.4967 H         1 MOL     0.0620
     26 H         -40.6274  -38.6452   25.9459 H         1 MOL     0.0621
     27 H         -43.4697  -41.4086   24.6762 H         1 MOL     0.0621
     28 H         -41.8350  -42.4040   23.2176 H         1 MOL     0.0620
     29 H         -42.8128  -38.4949   26.8113 H         1 MOL     0.0406
     30 H         -44.7860  -39.8070   24.9580 H         1 MOL     0.0239
     31 H         -44.1039  -38.2110   24.7546 H         1 MOL     0.0239
     32 H         -45.1543  -38.5454   26.1105 H         1 MOL     0.0239
@<TRIPOS>BOND
     1    1    2 1 
     2    1   16 1 
     3    1   17 1 
     4    1   18 1 
     5    2    3 1 
     6    2    4 1 
     7    2   19 1 
     8    3   20 1 
     9    3   21 1 
    10    3   22 1 
    11    4    5 1 
    12    4   23 1 
    13    4   24 1 
    14    5    6 ar
    15    5   10 ar
    16    6    7 ar
    17    6   25 1 
    18    7    8 ar
    19    7   26 1 
    20    8    9 ar
    21    8   11 1 
    22    9   10 ar
    23    9   27 1 
    24   10   28 1 
    25   11   12 1 
    26   11   13 1 
    27   11   29 1 
    28   12   30 1 
    29   12   31 1 
    30   12   32 1 
    31   13   14 ar
    32   13   15 ar
@<TRIPOS>SUBSTRUCTURE
1 MOL         1
@<TRIPOS>MOLECULE
query molecule
   32    32     1     0     0
SMALL
NO_CHARGE

@<TRIPOS>ATOM
      1 C         -65.4153  -27.7943  -26.4339 C.3       1 MOL     0.0072
      2 C         -66.1468  -26.9639  -25.4213 C.3       1 MOL    -0.0128
      3 C         -67.6220  -27.1922  -25.5115 C.3       1 MOL     0.0072
      4 C         -65.6424  -27.3040  -24.0467 C.3       1 MOL     0.0379
      5 C         -65.9947  -28.6961  -23.6753 C.ar      1 MOL    -0.0471
      6 C         -67.1359  -28.9113  -22.9380 C.ar      1 MOL     0.0037
      7 C         -67.4994  -30.1760  -22.5731 C.ar      1 MOL     0.0044
      8 C         -66.7318  -31.2556  -22.9361 C.ar      1 MOL    -0.0391
      9 C         -65.5910  -31.0531  -23.6725 C.ar      1 MOL     0.0044
     10 C         -65.2261  -29.7753  -24.0392 C.ar      1 MOL     0.0037
     11 C         -67.1007  -32.6297  -22.5561 C.3       1 MOL     0.0614
     12 C         -67.2663  -32.7011  -21.0383 C.3       1 MOL     0.0185
     13 C         -68.3955  -32.9416  -23.2296 C.2       1 MOL     0.0489
     14 O         -68.5037  -32.8738  -24.4626 O.co2     1 MOL    -0.5492
     15 O         -69.4638  -33.3045  -22.4603 O.co2     1 MOL    -0.5492
     16 H         -65.7717  -27.5554  -27.4149 H         1 MOL     0.0232
     17 H         -65.5861  -28.8317  -26.2353 H         1 MOL     0.0232
     18 H         -64.3676  -27.5869  -26.3746 H         1 MOL     0.0232
     19 H         -65.9663  -25.9286  -25.6194 H         1 MOL     0.0299
     20 H         -67.8355  -28.2227  -25.3173 H         1 MOL     0.0232
     21 H         -67.9628  -26.9367  -26.4929 H         1 MOL     0.0232
     22 H         -68.1230  -26.5821  -24.7894 H         1 MOL     0.0232
     23 H         -66.0794  -26.6323  -23.3381 H         1 MOL     0.0316
     24 H         -64.5763  -27.2125  -24.0451 H         1 MOL     0.0316
     25 H         -67.7223  -28.1097  -22.6573 H         1 MOL     0.0620
     26 H         -68.3586  -30.3215  -22.0195 H         1 MOL     0.0621
     27 H         -65.0067  -31.8568  -23.9519 H         1 MOL     0.0621
     28 H         -64.3675  -29.6270  -24.5924 H         1 MOL     0.0620
     29 H         -66.3491  -33.3323  -22.8508 H         1 MOL     0.0406
     30 H         -68.0156  -32.0027  -20.7283 H         1 MOL     0.0239
     31 H         -66.3363  -32.4586  -20.5673 H         1 MOL     0.0239
     32 H         -67.5611  -33.6903  -20.7580 H         1 MOL     0.0239
@<TRIPOS>BOND
     1    1    2 1 
     2    1   16 1 
     3    1   17 1 
     4    1   18 1 
     5    2    3 1 
     6    2    4 1 
     7    2   19 1 
     8    3   20 1 
     9    3   21 1 
    10    3   22 1 
    11    4    5 1 
    12    4   23 1 
    13    4   24 1 
    14    5    6 ar
    15    5   10 ar
    16    6    7 ar
    17    6   25 1 
    18    7    8 ar
    19    7   26 1 
    20    8    9 ar
    21    8   11 1 
    22    9   10 ar
    23    9   27 1 
    24   10   28 1 
    25   11   12 1 
    26   11   13 1 
    27   11   29 1 
    28   12   30 1 
    29   12   31 1 
    30   12   32 1 
    31   13   14 ar
    32   13   15 ar
@<TRIPOS>SUBSTRUCTURE
1 MOL         1
@<TRIPOS>MOLECULE
query molecule
   32    32     1     0     0
SMALL
NO_CHARGE

@<TRIPOS>ATOM
      1 C         -54.5777  -32.9979   10.8579 C.3       1 MOL     0.0072
      2 C         -54.7950  -32.8712    9.3791 C.3       1 MOL    -0.0128
      3 C         -54.9020  -34.2189    8.7397 C.3       1 MOL     0.0072
      4 C         -56.0408  -32.0678    9.1303 C.3       1 MOL     0.0379
      5 C         -57.2569  -32.9043    9.2771 C.ar      1 MOL    -0.0471
      6 C         -57.7472  -33.1358   10.5414 C.ar      1 MOL     0.0037
      7 C         -58.8639  -33.9002   10.7245 C.ar      1 MOL     0.0044
      8 C         -59.5172  -34.4513    9.6493 C.ar      1 MOL    -0.0391
      9 C         -59.0374  -34.2266    8.3828 C.ar      1 MOL     0.0044
     10 C         -57.9097  -33.4550    8.2007 C.ar      1 MOL     0.0037
     11 C         -60.7233  -35.2792    9.8185 C.3       1 MOL     0.0614
     12 C         -60.3890  -36.4722   10.7136 C.3       1 MOL     0.0185
     13 C         -61.7588  -34.4233   10.4684 C.2       1 MOL     0.0489
     14 O         -62.2795  -33.4794    9.8565 O.co2     1 MOL    -0.5492
     15 O         -62.1243  -34.6993   11.7549 O.co2     1 MOL    -0.5492
     16 H         -53.6911  -33.5700   11.0399 H         1 MOL     0.0232
     17 H         -55.4174  -33.4910   11.3012 H         1 MOL     0.0232
     18 H         -54.4681  -32.0240   11.2864 H         1 MOL     0.0232
     19 H         -53.9569  -32.3709    8.9424 H         1 MOL     0.0299
     20 H         -55.7345  -34.7462    9.1571 H         1 MOL     0.0232
     21 H         -54.0038  -34.7714    8.9204 H         1 MOL     0.0232
     22 H         -55.0448  -34.1042    7.6857 H         1 MOL     0.0232
     23 H         -56.0079  -31.6707    8.1376 H         1 MOL     0.0316
     24 H         -56.0839  -31.2781    9.8510 H         1 MOL     0.0316
     25 H         -57.2664  -32.7288   11.3589 H         1 MOL     0.0620
     26 H         -59.2197  -34.0651   11.6795 H         1 MOL     0.0621
     27 H         -59.5205  -34.6348    7.5671 H         1 MOL     0.0621
     28 H         -57.5516  -33.2887    7.2472 H         1 MOL     0.0620
     29 H         -61.0803  -35.6469    8.8790 H         1 MOL     0.0406
     30 H         -60.0297  -36.1196   11.6580 H         1 MOL     0.0239
     31 H         -59.6335  -37.0680   10.2447 H         1 MOL     0.0239
     32 H         -61.2680  -37.0631   10.8629 H         1 MOL     0.0239
@<TRIPOS>BOND
     1    1    2 1 
     2    1   16 1 
     3    1   17 1 
     4    1   18 1 
     5    2    3 1 
     6    2    4 1 
     7    2   19 1 
     8    3   20 1 
     9    3   21 1 
    10    3   22 1 
    11    4    5 1 
    12    4   23 1 
    13    4   24 1 
    14    5    6 ar
    15    5   10 ar
    16    6    7 ar
    17    6   25 1 
    18    7    8 ar
    19    7   26 1 
    20    8    9 ar
    21    8   11 1 
    22    9   10 ar
    23    9   27 1 
    24   10   28 1 
    25   11   12 1 
    26   11   13 1 
    27   11   29 1 
    28   12   30 1 
    29   12   31 1 
    30   12   32 1 
    31   13   14 ar
    32   13   15 ar
@<TRIPOS>SUBSTRUCTURE
1 MOL         1
@<TRIPOS>MOLECULE
query molecule
   32    32     1     0     0
SMALL
NO_CHARGE

@<TRIPOS>ATOM
      1 C         -16.4351  -30.5305   -5.1385 C.3       1 MOL     0.0072
      2 C         -15.9738  -29.9706   -6.4514 C.3       1 MOL    -0.0128
      3 C         -15.0924  -28.7807   -6.2421 C.3       1 MOL     0.0072
      4 C         -15.2450  -31.0403   -7.2157 C.3       1 MOL     0.0379
      5 C         -14.2921  -31.7685   -6.3427 C.ar      1 MOL    -0.0471
      6 C         -13.2247  -31.0793   -5.8155 C.ar      1 MOL     0.0037
      7 C         -12.3221  -31.7088   -5.0069 C.ar      1 MOL     0.0044
      8 C         -12.4643  -33.0414   -4.7059 C.ar      1 MOL    -0.0391
      9 C         -13.5260  -33.7393   -5.2259 C.ar      1 MOL     0.0044
     10 C         -14.4356  -33.1015   -6.0421 C.ar      1 MOL     0.0037
     11 C         -11.5057  -33.7445   -3.8368 C.3       1 MOL     0.0614
     12 C         -10.0853  -33.4515   -4.3195 C.3       1 MOL     0.0185
     13 C         -11.6968  -33.2193   -2.4529 C.2       1 MOL     0.0489
     14 O         -12.6118  -32.4238   -2.1951 O.co2     1 MOL    -0.5492
     15 O         -10.8420  -33.6322   -1.4712 O.co2     1 MOL    -0.5492
     16 H         -16.9548  -29.7716   -4.5904 H         1 MOL     0.0232
     17 H         -15.5884  -30.8613   -4.5742 H         1 MOL     0.0232
     18 H         -17.0918  -31.3563   -5.3147 H         1 MOL     0.0232
     19 H         -16.8241  -29.6489   -7.0145 H         1 MOL     0.0299
     20 H         -14.2295  -29.0711   -5.6796 H         1 MOL     0.0232
     21 H         -15.6309  -28.0283   -5.7049 H         1 MOL     0.0232
     22 H         -14.7855  -28.3918   -7.1903 H         1 MOL     0.0232
     23 H         -14.7053  -30.5881   -8.0209 H         1 MOL     0.0316
     24 H         -15.9641  -31.7390   -7.5891 H         1 MOL     0.0316
     25 H         -13.1045  -30.0777   -6.0335 H         1 MOL     0.0620
     26 H         -11.5260  -31.1782   -4.6190 H         1 MOL     0.0621
     27 H         -13.6437  -34.7408   -5.0059 H         1 MOL     0.0621
     28 H         -15.2322  -33.6296   -6.4316 H         1 MOL     0.0620
     29 H         -11.6618  -34.8030   -3.8581 H         1 MOL     0.0406
     30 H          -9.9144  -32.3952   -4.3040 H         1 MOL     0.0239
     31 H          -9.9666  -33.8172   -5.3184 H         1 MOL     0.0239
     32 H          -9.3827  -33.9373   -3.6757 H         1 MOL     0.0239
@<TRIPOS>BOND
     1    1    2 1 
     2    1   16 1 
     3    1   17 1 
     4    1   18 1 
     5    2    3 1 
     6    2    4 1 
     7    2   19 1 
     8    3   20 1 
     9    3   21 1 
    10    3   22 1 
    11    4    5 1 
    12    4   23 1 
    13    4   24 1 
    14    5    6 ar
    15    5   10 ar
    16    6    7 ar
    17    6   25 1 
    18    7    8 ar
    19    7   26 1 
    20    8    9 ar
    21    8   11 1 
    22    9   10 ar
    23    9   27 1 
    24   10   28 1 
    25   11   12 1 
    26   11   13 1 
    27   11   29 1 
    28   12   30 1 
    29   12   31 1 
    30   12   32 1 
    31   13   14 ar
    32   13   15 ar
@<TRIPOS>SUBSTRUCTURE
1 MOL         1
@<TRIPOS>MOLECULE
query molecule
   32    32     1     0     0
SMALL
NO_CHARGE

@<TRIPOS>ATOM
      1 C         -44.1261  -76.6115   20.8234 C.3       1 MOL     0.0072
      2 C         -45.2113  -77.1431   21.7121 C.3       1 MOL    -0.0128
      3 C         -45.0286  -78.6070   21.9574 C.3       1 MOL     0.0072
      4 C         -45.2025  -76.3846   23.0098 C.3       1 MOL     0.0379
      5 C         -46.5392  -76.4058   23.6525 C.ar      1 MOL    -0.0471
      6 C         -47.6120  -75.8998   22.9559 C.ar      1 MOL     0.0037
      7 C         -48.8610  -75.8984   23.5080 C.ar      1 MOL     0.0044
      8 C         -49.0679  -76.4024   24.7688 C.ar      1 MOL    -0.0391
      9 C         -48.0048  -76.9107   25.4733 C.ar      1 MOL     0.0044
     10 C         -46.7449  -76.9105   24.9138 C.ar      1 MOL     0.0037
     11 C         -50.4041  -76.4133   25.3877 C.3       1 MOL     0.0614
     12 C         -51.0435  -75.0351   25.2204 C.3       1 MOL     0.0185
     13 C         -51.2128  -77.4451   24.6744 C.2       1 MOL     0.0489
     14 O         -51.6080  -77.2540   23.5152 O.co2     1 MOL    -0.5492
     15 O         -51.5112  -78.6085   25.3241 O.co2     1 MOL    -0.5492
     16 H         -44.1284  -77.1493   19.8975 H         1 MOL     0.0232
     17 H         -43.1784  -76.7343   21.3046 H         1 MOL     0.0232
     18 H         -44.2983  -75.5731   20.6332 H         1 MOL     0.0232
     19 H         -46.1566  -77.0107   21.2300 H         1 MOL     0.0299
     20 H         -44.0882  -78.7726   22.4406 H         1 MOL     0.0232
     21 H         -45.0463  -79.1297   21.0241 H         1 MOL     0.0232
     22 H         -45.8189  -78.9660   22.5828 H         1 MOL     0.0232
     23 H         -44.9227  -75.3698   22.8194 H         1 MOL     0.0316
     24 H         -44.5018  -76.8513   23.6700 H         1 MOL     0.0316
     25 H         -47.4716  -75.5170   22.0077 H         1 MOL     0.0620
     26 H         -49.6562  -75.5149   22.9728 H         1 MOL     0.0621
     27 H         -48.1483  -77.2930   26.4213 H         1 MOL     0.0621
     28 H         -45.9481  -77.2929   25.4466 H         1 MOL     0.0620
     29 H         -50.3496  -76.6397   26.4323 H         1 MOL     0.0406
     30 H         -51.1045  -74.7944   24.1795 H         1 MOL     0.0239
     31 H         -50.4454  -74.3023   25.7212 H         1 MOL     0.0239
     32 H         -52.0257  -75.0441   25.6439 H         1 MOL     0.0239
@<TRIPOS>BOND
     1    1    2 1 
     2    1   16 1 
     3    1   17 1 
     4    1   18 1 
     5    2    3 1 
     6    2    4 1 
     7    2   19 1 
     8    3   20 1 
     9    3   21 1 
    10    3   22 1 
    11    4    5 1 
    12    4   23 1 
    13    4   24 1 
    14    5    6 ar
    15    5   10 ar
    16    6    7 ar
    17    6   25 1 
    18    7    8 ar
    19    7   26 1 
    20    8    9 ar
    21    8   11 1 
    22    9   10 ar
    23    9   27 1 
    24   10   28 1 
    25   11   12 1 
    26   11   13 1 
    27   11   29 1 
    28   12   30 1 
    29   12   31 1 
    30   12   32 1 
    31   13   14 ar
    32   13   15 ar
@<TRIPOS>SUBSTRUCTURE
1 MOL         1
@<TRIPOS>MOLECULE
query molecule
   32    32     1     0     0
SMALL
NO_CHARGE

@<TRIPOS>ATOM
      1 C         -54.5093  -56.9063   22.9671 C.3       1 MOL     0.0072
      2 C         -54.9843  -57.4525   24.2809 C.3       1 MOL    -0.0128
      3 C         -56.4572  -57.2488   24.4405 C.3       1 MOL     0.0072
      4 C         -54.6410  -58.9138   24.3612 C.3       1 MOL     0.0379
      5 C         -53.2529  -59.1129   24.8447 C.ar      1 MOL    -0.0471
      6 C         -52.9216  -58.6560   26.0992 C.ar      1 MOL     0.0037
      7 C         -51.6558  -58.8172   26.5855 C.ar      1 MOL     0.0044
      8 C         -50.6911  -59.4384   25.8304 C.ar      1 MOL    -0.0391
      9 C         -51.0104  -59.8989   24.5772 C.ar      1 MOL     0.0044
     10 C         -52.2889  -59.7347   24.0884 C.ar      1 MOL     0.0037
     11 C         -49.3187  -59.6252   26.3306 C.3       1 MOL     0.0614
     12 C         -48.8320  -61.0218   25.9449 C.3       1 MOL     0.0185
     13 C         -48.4667  -58.5863   25.6808 C.2       1 MOL     0.0489
     14 O         -48.9616  -57.5321   25.2563 O.co2     1 MOL    -0.5492
     15 O         -47.1263  -58.8184   25.5616 O.co2     1 MOL    -0.5492
     16 H         -54.7520  -55.8653   22.9054 H         1 MOL     0.0232
     17 H         -54.9883  -57.4321   22.1678 H         1 MOL     0.0232
     18 H         -53.4495  -57.0306   22.8920 H         1 MOL     0.0232
     19 H         -54.4967  -56.9292   25.0759 H         1 MOL     0.0299
     20 H         -56.9748  -57.7622   23.6570 H         1 MOL     0.0232
     21 H         -56.6801  -56.2037   24.3892 H         1 MOL     0.0232
     22 H         -56.7710  -57.6348   25.3877 H         1 MOL     0.0232
     23 H         -54.7380  -59.3493   23.3890 H         1 MOL     0.0316
     24 H         -55.3108  -59.3813   25.0523 H         1 MOL     0.0316
     25 H         -53.6358  -58.1866   26.6778 H         1 MOL     0.0620
     26 H         -51.4222  -58.4687   27.5289 H         1 MOL     0.0621
     27 H         -50.2941  -60.3682   24.0010 H         1 MOL     0.0621
     28 H         -52.5250  -60.0817   23.1456 H         1 MOL     0.0620
     29 H         -49.2742  -59.5303   27.3957 H         1 MOL     0.0406
     30 H         -48.8712  -61.1317   24.8811 H         1 MOL     0.0239
     31 H         -49.4611  -61.7567   26.4026 H         1 MOL     0.0239
     32 H         -47.8253  -61.1540   26.2815 H         1 MOL     0.0239
@<TRIPOS>BOND
     1    1    2 1 
     2    1   16 1 
     3    1   17 1 
     4    1   18 1 
     5    2    3 1 
     6    2    4 1 
     7    2   19 1 
     8    3   20 1 
     9    3   21 1 
    10    3   22 1 
    11    4    5 1 
    12    4   23 1 
    13    4   24 1 
    14    5    6 ar
    15    5   10 ar
    16    6    7 ar
    17    6   25 1 
    18    7    8 ar
    19    7   26 1 
    20    8    9 ar
    21    8   11 1 
    22    9   10 ar
    23    9   27 1 
    24   10   28 1 
    25   11   12 1 
    26   11   13 1 
    27   11   29 1 
    28   12   30 1 
    29   12   31 1 
    30   12   32 1 
    31   13   14 ar
    32   13   15 ar
@<TRIPOS>SUBSTRUCTURE
1 MOL         1
@<TRIPOS>MOLECULE
query molecule
   32    32     1     0     0
SMALL
NO_CHARGE

@<TRIPOS>ATOM
      1 C         -46.0369  -78.7599    8.5486 C.3       1 MOL     0.0072
      2 C         -46.8148  -79.6650    7.6398 C.3       1 MOL    -0.0128
      3 C         -45.9098  -80.3396    6.6589 C.3       1 MOL     0.0072
      4 C         -47.5498  -80.6822    8.4672 C.3       1 MOL     0.0379
      5 C         -48.7987  -81.1182    7.7961 C.ar      1 MOL    -0.0471
      6 C         -50.0041  -80.7802    8.3662 C.ar      1 MOL     0.0037
      7 C         -51.1793  -81.1603    7.7836 C.ar      1 MOL     0.0044
      8 C         -51.1782  -81.8868    6.6180 C.ar      1 MOL    -0.0391
      9 C         -49.9812  -82.2293    6.0396 C.ar      1 MOL     0.0044
     10 C         -48.7963  -81.8448    6.6299 C.ar      1 MOL     0.0037
     11 C         -52.4307  -82.3094    5.9689 C.3       1 MOL     0.0614
     12 C         -53.1716  -83.2750    6.8934 C.3       1 MOL     0.0185
     13 C         -53.2488  -81.0812    5.7462 C.2       1 MOL     0.0489
     14 O         -54.3271  -80.9196    6.3359 O.co2     1 MOL    -0.5492
     15 O         -52.7867  -80.1343    4.8776 O.co2     1 MOL    -0.5492
     16 H         -45.5113  -78.0336    7.9633 H         1 MOL     0.0232
     17 H         -45.3355  -79.3380    9.1131 H         1 MOL     0.0232
     18 H         -46.7087  -78.2622    9.2157 H         1 MOL     0.0232
     19 H         -47.5194  -79.0835    7.0839 H         1 MOL     0.0299
     20 H         -45.1907  -80.9314    7.1862 H         1 MOL     0.0232
     21 H         -45.4030  -79.6004    6.0747 H         1 MOL     0.0232
     22 H         -46.4867  -80.9698    6.0149 H         1 MOL     0.0232
     23 H         -47.7949  -80.2506    9.4147 H         1 MOL     0.0316
     24 H         -46.9176  -81.5360    8.5940 H         1 MOL     0.0316
     25 H         -50.0206  -80.2352    9.2425 H         1 MOL     0.0620
     26 H         -52.0760  -80.8993    8.2236 H         1 MOL     0.0621
     27 H         -49.9679  -82.7743    5.1631 H         1 MOL     0.0621
     28 H         -47.8984  -82.1046    6.1924 H         1 MOL     0.0620
     29 H         -52.2417  -82.8044    5.0391 H         1 MOL     0.0406
     30 H         -53.3675  -82.7934    7.8288 H         1 MOL     0.0239
     31 H         -52.5676  -84.1429    7.0590 H         1 MOL     0.0239
     32 H         -54.0958  -83.5647    6.4394 H         1 MOL     0.0239
@<TRIPOS>BOND
     1    1    2 1 
     2    1   16 1 
     3    1   17 1 
     4    1   18 1 
     5    2    3 1 
     6    2    4 1 
     7    2   19 1 
     8    3   20 1 
     9    3   21 1 
    10    3   22 1 
    11    4    5 1 
    12    4   23 1 
    13    4   24 1 
    14    5    6 ar
    15    5   10 ar
    16    6    7 ar
    17    6   25 1 
    18    7    8 ar
    19    7   26 1 
    20    8    9 ar
    21    8   11 1 
    22    9   10 ar
    23    9   27 1 
    24   10   28 1 
    25   11   12 1 
    26   11   13 1 
    27   11   29 1 
    28   12   30 1 
    29   12   31 1 
    30   12   32 1 
    31   13   14 ar
    32   13   15 ar
@<TRIPOS>SUBSTRUCTURE
1 MOL         1
@<TRIPOS>MOLECULE
query molecule
   32    32     1     0     0
SMALL
NO_CHARGE

@<TRIPOS>ATOM
      1 C         -22.3003  -23.7142  -20.6969 C.3       1 MOL     0.0072
      2 C         -22.8418  -23.0111  -19.4876 C.3       1 MOL    -0.0128
      3 C         -24.2736  -22.6299  -19.6905 C.3       1 MOL     0.0072
      4 C         -22.6982  -23.9077  -18.2897 C.3       1 MOL     0.0379
      5 C         -22.3406  -23.1305  -17.0779 C.ar      1 MOL    -0.0471
      6 C         -23.3340  -22.8213  -16.1780 C.ar      1 MOL     0.0037
      7 C         -23.0511  -22.1075  -15.0488 C.ar      1 MOL     0.0044
      8 C         -21.7695  -21.6857  -14.7917 C.ar      1 MOL    -0.0391
      9 C         -20.7698  -21.9890  -15.6823 C.ar      1 MOL     0.0044
     10 C         -21.0580  -22.7094  -16.8217 C.ar      1 MOL     0.0037
     11 C         -21.4370  -20.9148  -13.5818 C.3       1 MOL     0.0614
     12 C         -22.5599  -19.9165  -13.3011 C.3       1 MOL     0.0185
     13 C         -21.3210  -21.8878  -12.4561 C.2       1 MOL     0.0489
     14 O         -21.7834  -23.0336  -12.5556 O.co2     1 MOL    -0.5492
     15 O         -20.6939  -21.4920  -11.3095 O.co2     1 MOL    -0.5492
     16 H         -22.4008  -23.0791  -21.5530 H         1 MOL     0.0232
     17 H         -22.8473  -24.6195  -20.8584 H         1 MOL     0.0232
     18 H         -21.2670  -23.9438  -20.5424 H         1 MOL     0.0232
     19 H         -22.2867  -22.1115  -19.3262 H         1 MOL     0.0299
     20 H         -24.8571  -23.5118  -19.8551 H         1 MOL     0.0232
     21 H         -24.3539  -21.9860  -20.5411 H         1 MOL     0.0232
     22 H         -24.6346  -22.1206  -18.8217 H         1 MOL     0.0232
     23 H         -21.9306  -24.6274  -18.4821 H         1 MOL     0.0316
     24 H         -23.6356  -24.3935  -18.1161 H         1 MOL     0.0316
     25 H         -24.3019  -23.1309  -16.3582 H         1 MOL     0.0620
     26 H         -23.8075  -21.8829  -14.3829 H         1 MOL     0.0621
     27 H         -19.8026  -21.6782  -15.4993 H         1 MOL     0.0621
     28 H         -20.3039  -22.9350  -17.4892 H         1 MOL     0.0620
     29 H         -20.5216  -20.3737  -13.7020 H         1 MOL     0.0406
     30 H         -23.4832  -20.4437  -13.1787 H         1 MOL     0.0239
     31 H         -22.6443  -19.2358  -14.1226 H         1 MOL     0.0239
     32 H         -22.3376  -19.3719  -12.4077 H         1 MOL     0.0239
@<TRIPOS>BOND
     1    1    2 1 
     2    1   16 1 
     3    1   17 1 
     4    1   18 1 
     5    2    3 1 
     6    2    4 1 
     7    2   19 1 
     8    3   20 1 
     9    3   21 1 
    10    3   22 1 
    11    4    5 1 
    12    4   23 1 
    13    4   24 1 
    14    5    6 ar
    15    5   10 ar
    16    6    7 ar
    17    6   25 1 
    18    7    8 ar
    19    7   26 1 
    20    8    9 ar
    21    8   11 1 
    22    9   10 ar
    23    9   27 1 
    24   10   28 1 
    25   11   12 1 
    26   11   13 1 
    27   11   29 1 
    28   12   30 1 
    29   12   31 1 
    30   12   32 1 
    31   13   14 ar
    32   13   15 ar
@<TRIPOS>SUBSTRUCTURE
1 MOL         1
@<TRIPOS>MOLECULE
query molecule
   32    32     1     0     0
SMALL
NO_CHARGE

@<TRIPOS>ATOM
      1 C         -13.9676  -64.1182  -11.6422 C.3       1 MOL     0.0072
      2 C         -14.1599  -62.6420  -11.8262 C.3       1 MOL    -0.0128
      3 C         -13.6374  -61.8862  -10.6462 C.3       1 MOL     0.0072
      4 C         -13.4620  -62.2062  -13.0842 C.3       1 MOL     0.0379
      5 C         -14.3254  -62.4071  -14.2735 C.ar      1 MOL    -0.0471
      6 C         -15.5709  -61.8235  -14.2882 C.ar      1 MOL     0.0037
      7 C         -16.3999  -61.9816  -15.3618 C.ar      1 MOL     0.0044
      8 C         -16.0044  -62.7263  -16.4460 C.ar      1 MOL    -0.0391
      9 C         -14.7633  -63.3130  -16.4429 C.ar      1 MOL     0.0044
     10 C         -13.9285  -63.1522  -15.3577 C.ar      1 MOL     0.0037
     11 C         -16.8783  -62.9128  -17.6165 C.3       1 MOL     0.0614
     12 C         -16.1263  -63.7136  -18.6792 C.3       1 MOL     0.0185
     13 C         -18.0784  -63.6708  -17.1553 C.2       1 MOL     0.0489
     14 O         -18.8627  -63.1797  -16.3305 O.co2     1 MOL    -0.5492
     15 O         -18.2983  -64.9204  -17.6601 O.co2     1 MOL    -0.5492
     16 H         -14.4630  -64.4331  -10.7467 H         1 MOL     0.0232
     17 H         -12.9226  -64.3354  -11.5667 H         1 MOL     0.0232
     18 H         -14.3810  -64.6383  -12.4804 H         1 MOL     0.0232
     19 H         -15.2051  -62.4314  -11.9090 H         1 MOL     0.0299
     20 H         -12.5900  -62.0768  -10.5364 H         1 MOL     0.0232
     21 H         -14.1515  -62.2038   -9.7634 H         1 MOL     0.0232
     22 H         -13.7954  -60.8385  -10.7941 H         1 MOL     0.0232
     23 H         -12.5659  -62.7782  -13.2026 H         1 MOL     0.0316
     24 H         -13.2358  -61.1637  -13.0021 H         1 MOL     0.0316
     25 H         -15.8821  -61.2616  -13.4803 H         1 MOL     0.0620
     26 H         -17.3319  -61.5375  -15.3580 H         1 MOL     0.0621
     27 H         -14.4547  -63.8742  -17.2524 H         1 MOL     0.0621
     28 H         -12.9964  -63.5952  -15.3587 H         1 MOL     0.0620
     29 H         -17.1708  -61.9744  -18.0398 H         1 MOL     0.0406
     30 H         -15.8267  -64.6559  -18.2698 H         1 MOL     0.0239
     31 H         -15.2593  -63.1676  -18.9887 H         1 MOL     0.0239
     32 H         -16.7652  -63.8762  -19.5215 H         1 MOL     0.0239
@<TRIPOS>BOND
     1    1    2 1 
     2    1   16 1 
     3    1   17 1 
     4    1   18 1 
     5    2    3 1 
     6    2    4 1 
     7    2   19 1 
     8    3   20 1 
     9    3   21 1 
    10    3   22 1 
    11    4    5 1 
    12    4   23 1 
    13    4   24 1 
    14    5    6 ar
    15    5   10 ar
    16    6    7 ar
    17    6   25 1 
    18    7    8 ar
    19    7   26 1 
    20    8    9 ar
    21    8   11 1 
    22    9   10 ar
    23    9   27 1 
    24   10   28 1 
    25   11   12 1 
    26   11   13 1 
    27   11   29 1 
    28   12   30 1 
    29   12   31 1 
    30   12   32 1 
    31   13   14 ar
    32   13   15 ar
@<TRIPOS>SUBSTRUCTURE
1 MOL         1
@<TRIPOS>MOLECULE
query molecule
   32    32     1     0     0
SMALL
NO_CHARGE

@<TRIPOS>ATOM
      1 C         -32.2220  -76.3052   23.8300 C.3       1 MOL     0.0072
      2 C         -32.2407  -76.2717   25.3295 C.3       1 MOL    -0.0128
      3 C         -33.6244  -76.0216   25.8388 C.3       1 MOL     0.0072
      4 C         -31.7099  -77.5744   25.8591 C.3       1 MOL     0.0379
      5 C         -32.3739  -78.7292   25.2065 C.ar      1 MOL    -0.0471
      6 C         -33.6343  -79.0863   25.6260 C.ar      1 MOL     0.0037
      7 C         -34.2838  -80.1427   25.0542 C.ar      1 MOL     0.0044
      8 C         -33.6897  -80.8672   24.0499 C.ar      1 MOL    -0.0391
      9 C         -32.4323  -80.5197   23.6226 C.ar      1 MOL     0.0044
     10 C         -31.7786  -79.4531   24.2018 C.ar      1 MOL     0.0037
     11 C         -34.3677  -82.0106   23.4160 C.3       1 MOL     0.0614
     12 C         -35.4871  -82.4998   24.3346 C.3       1 MOL     0.0185
     13 C         -34.9374  -81.5256   22.1247 C.2       1 MOL     0.0489
     14 O         -35.3052  -80.3492   21.9935 O.co2     1 MOL    -0.5492
     15 O         -35.0471  -82.4046   21.0854 O.co2     1 MOL    -0.5492
     16 H         -32.5997  -75.3789   23.4482 H         1 MOL     0.0232
     17 H         -32.8355  -77.1104   23.4833 H         1 MOL     0.0232
     18 H         -31.2182  -76.4487   23.4895 H         1 MOL     0.0232
     19 H         -31.6200  -75.4705   25.6708 H         1 MOL     0.0299
     20 H         -34.2717  -76.8091   25.5130 H         1 MOL     0.0232
     21 H         -33.9808  -75.0873   25.4584 H         1 MOL     0.0232
     22 H         -33.6115  -75.9902   26.9082 H         1 MOL     0.0232
     23 H         -31.8857  -77.6205   26.9133 H         1 MOL     0.0316
     24 H         -30.6619  -77.6233   25.6492 H         1 MOL     0.0316
     25 H         -34.0931  -78.5515   26.3803 H         1 MOL     0.0620
     26 H         -35.2294  -80.3987   25.3800 H         1 MOL     0.0621
     27 H         -31.9761  -81.0562   22.8679 H         1 MOL     0.0621
     28 H         -30.8332  -79.1951   23.8783 H         1 MOL     0.0620
     29 H         -33.6898  -82.8204   23.2430 H         1 MOL     0.0406
     30 H         -36.1737  -81.6994   24.5172 H         1 MOL     0.0239
     31 H         -35.0675  -82.8282   25.2628 H         1 MOL     0.0239
     32 H         -36.0014  -83.3131   23.8677 H         1 MOL     0.0239
@<TRIPOS>BOND
     1    1    2 1 
     2    1   16 1 
     3    1   17 1 
     4    1   18 1 
     5    2    3 1 
     6    2    4 1 
     7    2   19 1 
     8    3   20 1 
     9    3   21 1 
    10    3   22 1 
    11    4    5 1 
    12    4   23 1 
    13    4   24 1 
    14    5    6 ar
    15    5   10 ar
    16    6    7 ar
    17    6   25 1 
    18    7    8 ar
    19    7   26 1 
    20    8    9 ar
    21    8   11 1 
    22    9   10 ar
    23    9   27 1 
    24   10   28 1 
    25   11   12 1 
    26   11   13 1 
    27   11   29 1 
    28   12   30 1 
    29   12   31 1 
    30   12   32 1 
    31   13   14 ar
    32   13   15 ar
@<TRIPOS>SUBSTRUCTURE
1 MOL         1
@<TRIPOS>MOLECULE
query molecule
   32    32     1     0     0
SMALL
NO_CHARGE

@<TRIPOS>ATOM
      1 C         -21.2862  -45.8932  -25.7765 C.3       1 MOL     0.0072
      2 C         -20.5426  -47.1938  -25.8489 C.3       1 MOL    -0.0128
      3 C         -20.3778  -47.6342  -27.2685 C.3       1 MOL     0.0072
      4 C         -19.2029  -47.0341  -25.1860 C.3       1 MOL     0.0379
      5 C         -18.8519  -48.2353  -24.3897 C.ar      1 MOL    -0.0471
      6 C         -18.0306  -49.1827  -24.9557 C.ar      1 MOL     0.0037
      7 C         -17.6812  -50.3046  -24.2599 C.ar      1 MOL     0.0044
      8 C         -18.1438  -50.5067  -22.9825 C.ar      1 MOL    -0.0391
      9 C         -18.9636  -49.5678  -22.4072 C.ar      1 MOL     0.0044
     10 C         -19.3152  -48.4363  -23.1119 C.ar      1 MOL     0.0037
     11 C         -17.7825  -51.7073  -22.2101 C.3       1 MOL     0.0614
     12 C         -17.1745  -51.2783  -20.8750 C.3       1 MOL     0.0185
     13 C         -19.0394  -52.4781  -21.9784 C.2       1 MOL     0.0489
     14 O         -19.3900  -52.7937  -20.8321 O.co2     1 MOL    -0.5492
     15 O         -19.7999  -52.8312  -23.0563 O.co2     1 MOL    -0.5492
     16 H         -22.2414  -46.0022  -26.2478 H         1 MOL     0.0232
     17 H         -20.7255  -45.1329  -26.2789 H         1 MOL     0.0232
     18 H         -21.4233  -45.6179  -24.7520 H         1 MOL     0.0232
     19 H         -21.1033  -47.9481  -25.3386 H         1 MOL     0.0299
     20 H         -19.8185  -46.8977  -27.8073 H         1 MOL     0.0232
     21 H         -21.3408  -47.7504  -27.7197 H         1 MOL     0.0232
     22 H         -19.8560  -48.5678  -27.2950 H         1 MOL     0.0232
     23 H         -19.2325  -46.1827  -24.5392 H         1 MOL     0.0316
     24 H         -18.4621  -46.9039  -25.9470 H         1 MOL     0.0316
     25 H         -17.6758  -49.0447  -25.9150 H         1 MOL     0.0620
     26 H         -17.0642  -51.0067  -24.6983 H         1 MOL     0.0621
     27 H         -19.3167  -49.7084  -21.4475 H         1 MOL     0.0621
     28 H         -19.9321  -47.7329  -22.6762 H         1 MOL     0.0620
     29 H         -17.0681  -52.3085  -22.7329 H         1 MOL     0.0406
     30 H         -17.8784  -50.6751  -20.3402 H         1 MOL     0.0239
     31 H         -16.2843  -50.7122  -21.0551 H         1 MOL     0.0239
     32 H         -16.9349  -52.1460  -20.2972 H         1 MOL     0.0239
@<TRIPOS>BOND
     1    1    2 1 
     2    1   16 1 
     3    1   17 1 
     4    1   18 1 
     5    2    3 1 
     6    2    4 1 
     7    2   19 1 
     8    3   20 1 
     9    3   21 1 
    10    3   22 1 
    11    4    5 1 
    12    4   23 1 
    13    4   24 1 
    14    5    6 ar
    15    5   10 ar
    16    6    7 ar
    17    6   25 1 
    18    7    8 ar
    19    7   26 1 
    20    8    9 ar
    21    8   11 1 
    22    9   10 ar
    23    9   27 1 
    24   10   28 1 
    25   11   12 1 
    26   11   13 1 
    27   11   29 1 
    28   12   30 1 
    29   12   31 1 
    30   12   32 1 
    31   13   14 ar
    32   13   15 ar
@<TRIPOS>SUBSTRUCTURE
1 MOL         1
@<TRIPOS>MOLECULE
query molecule
   32    32     1     0     0
SMALL
NO_CHARGE

@<TRIPOS>ATOM
      1 C         -19.2622  -79.1270   12.8261 C.3       1 MOL     0.0072
      2 C         -19.5305  -77.8275   12.1266 C.3       1 MOL    -0.0128
      3 C         -19.0894  -76.6708   12.9657 C.3       1 MOL     0.0072
      4 C         -18.8176  -77.8227   10.8032 C.3       1 MOL     0.0379
      5 C         -19.7413  -78.1683    9.6952 C.ar      1 MOL    -0.0471
      6 C         -20.6585  -77.2283    9.2862 C.ar      1 MOL     0.0037
      7 C         -21.5288  -77.5026    8.2703 C.ar      1 MOL     0.0044
      8 C         -21.5036  -78.7221    7.6390 C.ar      1 MOL    -0.0391
      9 C         -20.5922  -79.6679    8.0383 C.ar      1 MOL     0.0044
     10 C         -19.7150  -79.3887    9.0644 C.ar      1 MOL     0.0037
     11 C         -22.4306  -79.0439    6.5409 C.3       1 MOL     0.0614
     12 C         -23.8539  -79.1159    7.0933 C.3       1 MOL     0.0185
     13 C         -22.3239  -77.9450    5.5366 C.2       1 MOL     0.0489
     14 O         -23.3340  -77.3472    5.1381 O.co2     1 MOL    -0.5492
     15 O         -21.0884  -77.6081    5.0623 O.co2     1 MOL    -0.5492
     16 H         -19.7680  -79.1347   13.7697 H         1 MOL     0.0232
     17 H         -18.2098  -79.2364   12.9848 H         1 MOL     0.0232
     18 H         -19.6186  -79.9359   12.2236 H         1 MOL     0.0232
     19 H         -20.5826  -77.7269   11.9634 H         1 MOL     0.0299
     20 H         -18.0372  -76.7430   13.1470 H         1 MOL     0.0232
     21 H         -19.6134  -76.6866   13.8982 H         1 MOL     0.0232
     22 H         -19.3008  -75.7559   12.4528 H         1 MOL     0.0232
     23 H         -18.0233  -78.5386   10.8318 H         1 MOL     0.0316
     24 H         -18.4331  -76.8395   10.6294 H         1 MOL     0.0316
     25 H         -20.6897  -76.3076    9.7517 H         1 MOL     0.0620
     26 H         -22.2116  -76.7868    7.9746 H         1 MOL     0.0621
     27 H         -20.5632  -80.5877    7.5707 H         1 MOL     0.0621
     28 H         -19.0316  -80.1024    9.3622 H         1 MOL     0.0620
     29 H         -22.1915  -79.9846    6.0901 H         1 MOL     0.0406
     30 H         -24.1074  -78.1809    7.5481 H         1 MOL     0.0239
     31 H         -23.9128  -79.8954    7.8242 H         1 MOL     0.0239
     32 H         -24.5358  -79.3223    6.2955 H         1 MOL     0.0239
@<TRIPOS>BOND
     1    1    2 1 
     2    1   16 1 
     3    1   17 1 
     4    1   18 1 
     5    2    3 1 
     6    2    4 1 
     7    2   19 1 
     8    3   20 1 
     9    3   21 1 
    10    3   22 1 
    11    4    5 1 
    12    4   23 1 
    13    4   24 1 
    14    5    6 ar
    15    5   10 ar
    16    6    7 ar
    17    6   25 1 
    18    7    8 ar
    19    7   26 1 
    20    8    9 ar
    21    8   11 1 
    22    9   10 ar
    23    9   27 1 
    24   10   28 1 
    25   11   12 1 
    26   11   13 1 
    27   11   29 1 
    28   12   30 1 
    29   12   31 1 
    30   12   32 1 
    31   13   14 ar
    32   13   15 ar
@<TRIPOS>SUBSTRUCTURE
1 MOL         1
@<TRIPOS>MOLECULE
query molecule
   32    32     1     0     0
SMALL
NO_CHARGE

@<TRIPOS>ATOM
      1 C          -3.3019  -71.6637  -25.1694 C.3       1 MOL     0.0072
      2 C          -3.9834  -72.3807  -24.0418 C.3       1 MOL    -0.0128
      3 C          -3.4756  -73.7819  -23.9181 C.3       1 MOL     0.0072
      4 C          -3.7559  -71.6213  -22.7647 C.3       1 MOL     0.0379
      5 C          -4.8259  -70.6193  -22.5385 C.ar      1 MOL    -0.0471
      6 C          -4.5278  -69.2878  -22.7137 C.ar      1 MOL     0.0037
      7 C          -5.4813  -68.3304  -22.5164 C.ar      1 MOL     0.0044
      8 C          -6.7549  -68.6801  -22.1396 C.ar      1 MOL    -0.0391
      9 C          -7.0642  -70.0058  -21.9623 C.ar      1 MOL     0.0044
     10 C          -6.0997  -70.9704  -22.1617 C.ar      1 MOL     0.0037
     11 C          -7.8020  -67.6681  -21.9203 C.3       1 MOL     0.0614
     12 C          -9.0505  -68.0617  -22.7091 C.3       1 MOL     0.0185
     13 C          -8.1015  -67.6523  -20.4582 C.2       1 MOL     0.0489
     14 O          -9.2012  -67.2640  -20.0384 O.co2     1 MOL    -0.5492
     15 O          -7.1384  -68.0749  -19.5872 O.co2     1 MOL    -0.5492
     16 H          -3.4612  -72.2014  -26.0815 H         1 MOL     0.0232
     17 H          -2.2524  -71.6019  -24.9706 H         1 MOL     0.0232
     18 H          -3.7068  -70.6779  -25.2610 H         1 MOL     0.0232
     19 H          -5.0327  -72.4326  -24.2416 H         1 MOL     0.0299
     20 H          -2.4246  -73.7634  -23.7172 H         1 MOL     0.0232
     21 H          -3.6542  -74.3077  -24.8325 H         1 MOL     0.0232
     22 H          -3.9831  -74.2766  -23.1167 H         1 MOL     0.0232
     23 H          -2.8131  -71.1189  -22.8202 H         1 MOL     0.0316
     24 H          -3.7653  -72.3164  -21.9513 H         1 MOL     0.0316
     25 H          -3.5748  -69.0099  -22.9961 H         1 MOL     0.0620
     26 H          -5.2422  -67.3352  -22.6516 H         1 MOL     0.0621
     27 H          -8.0182  -70.2808  -21.6801 H         1 MOL     0.0621
     28 H          -6.3358  -71.9660  -22.0270 H         1 MOL     0.0620
     29 H          -7.4841  -66.6994  -22.2456 H         1 MOL     0.0406
     30 H          -9.3805  -69.0299  -22.3944 H         1 MOL     0.0239
     31 H          -8.8183  -68.0863  -23.7536 H         1 MOL     0.0239
     32 H          -9.8245  -67.3448  -22.5324 H         1 MOL     0.0239
@<TRIPOS>BOND
     1    1    2 1 
     2    1   16 1 
     3    1   17 1 
     4    1   18 1 
     5    2    3 1 
     6    2    4 1 
     7    2   19 1 
     8    3   20 1 
     9    3   21 1 
    10    3   22 1 
    11    4    5 1 
    12    4   23 1 
    13    4   24 1 
    14    5    6 ar
    15    5   10 ar
    16    6    7 ar
    17    6   25 1 
    18    7    8 ar
    19    7   26 1 
    20    8    9 ar
    21    8   11 1 
    22    9   10 ar
    23    9   27 1 
    24   10   28 1 
    25   11   12 1 
    26   11   13 1 
    27   11   29 1 
    28   12   30 1 
    29   12   31 1 
    30   12   32 1 
    31   13   14 ar
    32   13   15 ar
@<TRIPOS>SUBSTRUCTURE
1 MOL         1
@<TRIPOS>MOLECULE
query molecule
   32    32     1     0     0
SMALL
NO_CHARGE

@<TRIPOS>ATOM
      1 C         -63.4060  -68.6650  -28.1329 C.3       1 MOL     0.0072
      2 C         -64.6336  -69.1555  -28.8418 C.3       1 MOL    -0.0128
      3 C         -64.5578  -68.8573  -30.3053 C.3       1 MOL     0.0072
      4 C         -64.7799  -70.6336  -28.6104 C.3       1 MOL     0.0379
      5 C         -66.1974  -71.0561  -28.7212 C.ar      1 MOL    -0.0471
      6 C         -67.0428  -70.8056  -27.6653 C.ar      1 MOL     0.0037
      7 C         -68.3556  -71.1771  -27.7229 C.ar      1 MOL     0.0044
      8 C         -68.8550  -71.8074  -28.8364 C.ar      1 MOL    -0.0391
      9 C         -68.0208  -72.0621  -29.8965 C.ar      1 MOL     0.0044
     10 C         -66.6959  -71.6865  -29.8357 C.ar      1 MOL     0.0037
     11 C         -70.2663  -72.2185  -28.9246 C.3       1 MOL     0.0614
     12 C         -70.7028  -72.7993  -27.5799 C.3       1 MOL     0.0185
     13 C         -71.0633  -70.9966  -29.2398 C.2       1 MOL     0.0489
     14 O         -71.8531  -70.9811  -30.1950 O.co2     1 MOL    -0.5492
     15 O         -70.9063  -69.8909  -28.4539 O.co2     1 MOL    -0.5492
     16 H         -63.2976  -67.6123  -28.2953 H         1 MOL     0.0232
     17 H         -62.5460  -69.1749  -28.5141 H         1 MOL     0.0232
     18 H         -63.4996  -68.8566  -27.0847 H         1 MOL     0.0232
     19 H         -65.4907  -68.6487  -28.4517 H         1 MOL     0.0299
     20 H         -63.7073  -69.3522  -30.7261 H         1 MOL     0.0232
     21 H         -64.4628  -67.8015  -30.4494 H         1 MOL     0.0232
     22 H         -65.4473  -69.2049  -30.7875 H         1 MOL     0.0232
     23 H         -64.4202  -70.8712  -27.6314 H         1 MOL     0.0316
     24 H         -64.2130  -71.1507  -29.3561 H         1 MOL     0.0316
     25 H         -66.6815  -70.3333  -26.8217 H         1 MOL     0.0620
     26 H         -68.9777  -70.9824  -26.9223 H         1 MOL     0.0621
     27 H         -68.3850  -72.5344  -30.7390 H         1 MOL     0.0621
     28 H         -66.0717  -71.8801  -30.6344 H         1 MOL     0.0620
     29 H         -70.4106  -72.9622  -29.6805 H         1 MOL     0.0406
     30 H         -70.5638  -72.0659  -26.8129 H         1 MOL     0.0239
     31 H         -70.1125  -73.6639  -27.3575 H         1 MOL     0.0239
     32 H         -71.7352  -73.0747  -27.6288 H         1 MOL     0.0239
@<TRIPOS>BOND
     1    1    2 1 
     2    1   16 1 
     3    1   17 1 
     4    1   18 1 
     5    2    3 1 
     6    2    4 1 
     7    2   19 1 
     8    3   20 1 
     9    3   21 1 
    10    3   22 1 
    11    4    5 1 
    12    4   23 1 
    13    4   24 1 
    14    5    6 ar
    15    5   10 ar
    16    6    7 ar
    17    6   25 1 
    18    7    8 ar
    19    7   26 1 
    20    8    9 ar
    21    8   11 1 
    22    9   10 ar
    23    9   27 1 
    24   10   28 1 
    25   11   12 1 
    26   11   13 1 
    27   11   29 1 
    28   12   30 1 
    29   12   31 1 
    30   12   32 1 
    31   13   14 ar
    32   13   15 ar
@<TRIPOS>SUBSTRUCTURE
1 MOL         1
@<TRIPOS>MOLECULE
query molecule
   32    32     1     0     0
SMALL
NO_CHARGE

@<TRIPOS>ATOM
      1 C         -34.3091  -23.5620  -16.8771 C.3       1 MOL     0.0072
      2 C         -35.5188  -24.2843  -17.3919 C.3       1 MOL    -0.0128
      3 C         -35.5194  -25.7100  -16.9404 C.3       1 MOL     0.0072
      4 C         -36.7564  -23.5778  -16.9135 C.3       1 MOL     0.0379
      5 C         -37.6051  -23.1518  -18.0529 C.ar      1 MOL    -0.0471
      6 C         -37.3664  -21.9254  -18.6284 C.ar      1 MOL     0.0037
      7 C         -38.1228  -21.4918  -19.6794 C.ar      1 MOL     0.0044
      8 C         -39.1354  -22.2728  -20.1804 C.ar      1 MOL    -0.0391
      9 C         -39.3826  -23.4989  -19.6145 C.ar      1 MOL     0.0044
     10 C         -38.6178  -23.9341  -18.5534 C.ar      1 MOL     0.0037
     11 C         -39.9661  -21.8296  -21.3127 C.3       1 MOL     0.0614
     12 C         -40.6349  -20.5031  -20.9528 C.3       1 MOL     0.0185
     13 C         -39.0570  -21.6462  -22.4821 C.2       1 MOL     0.0489
     14 O         -38.5715  -22.6236  -23.0698 O.co2     1 MOL    -0.5492
     15 O         -38.7681  -20.3770  -22.8951 O.co2     1 MOL    -0.5492
     16 H         -33.4249  -24.0621  -17.2153 H         1 MOL     0.0232
     17 H         -34.3268  -23.5536  -15.8073 H         1 MOL     0.0232
     18 H         -34.3123  -22.5567  -17.2424 H         1 MOL     0.0232
     19 H         -35.5003  -24.2829  -18.4611 H         1 MOL     0.0299
     20 H         -35.5379  -25.7450  -15.8710 H         1 MOL     0.0232
     21 H         -34.6365  -26.1973  -17.2975 H         1 MOL     0.0232
     22 H         -36.3835  -26.2075  -17.3283 H         1 MOL     0.0232
     23 H         -36.4701  -22.7151  -16.3496 H         1 MOL     0.0316
     24 H         -37.3196  -24.2553  -16.3063 H         1 MOL     0.0316
     25 H         -36.6092  -21.3272  -18.2621 H         1 MOL     0.0620
     26 H         -37.9317  -20.5687  -20.1005 H         1 MOL     0.0621
     27 H         -40.1403  -24.0951  -19.9831 H         1 MOL     0.0621
     28 H         -38.8068  -24.8563  -18.1303 H         1 MOL     0.0620
     29 H         -40.7283  -22.5448  -21.5423 H         1 MOL     0.0406
     30 H         -39.8840  -19.7770  -20.7201 H         1 MOL     0.0239
     31 H         -41.2700  -20.6441  -20.1030 H         1 MOL     0.0239
     32 H         -41.2183  -20.1617  -21.7818 H         1 MOL     0.0239
@<TRIPOS>BOND
     1    1    2 1 
     2    1   16 1 
     3    1   17 1 
     4    1   18 1 
     5    2    3 1 
     6    2    4 1 
     7    2   19 1 
     8    3   20 1 
     9    3   21 1 
    10    3   22 1 
    11    4    5 1 
    12    4   23 1 
    13    4   24 1 
    14    5    6 ar
    15    5   10 ar
    16    6    7 ar
    17    6   25 1 
    18    7    8 ar
    19    7   26 1 
    20    8    9 ar
    21    8   11 1 
    22    9   10 ar
    23    9   27 1 
    24   10   28 1 
    25   11   12 1 
    26   11   13 1 
    27   11   29 1 
    28   12   30 1 
    29   12   31 1 
    30   12   32 1 
    31   13   14 ar
    32   13   15 ar
@<TRIPOS>SUBSTRUCTURE
1 MOL         1
@<TRIPOS>MOLECULE
query molecule
   32    32     1     0     0
SMALL
NO_CHARGE

@<TRIPOS>ATOM
      1 C         -17.1608  -31.1300   -8.2060 C.3       1 MOL     0.0072
      2 C         -16.8559  -32.5676   -7.9054 C.3       1 MOL    -0.0128
      3 C         -15.8308  -32.6788   -6.8222 C.3       1 MOL     0.0072
      4 C         -18.1245  -33.2684   -7.5066 C.3       1 MOL     0.0379
      5 C         -18.9370  -32.4284   -6.5932 C.ar      1 MOL    -0.0471
      6 C         -18.6999  -32.5087   -5.2405 C.ar      1 MOL     0.0037
      7 C         -19.4237  -31.7542   -4.3621 C.ar      1 MOL     0.0044
      8 C         -20.4012  -30.9016   -4.8140 C.ar      1 MOL    -0.0391
      9 C         -20.6462  -30.8126   -6.1619 C.ar      1 MOL     0.0044
     10 C         -19.9144  -31.5757   -7.0465 C.ar      1 MOL     0.0037
     11 C         -21.1962  -30.0767   -3.8887 C.3       1 MOL     0.0614
     12 C         -20.8165  -28.6081   -4.0764 C.3       1 MOL     0.0185
     13 C         -22.6330  -30.2845   -4.2352 C.2       1 MOL     0.0489
     14 O         -23.0586  -31.4091   -4.5363 O.co2     1 MOL    -0.5492
     15 O         -23.4743  -29.2091   -4.2147 O.co2     1 MOL    -0.5492
     16 H         -16.2597  -30.6266   -8.4904 H         1 MOL     0.0232
     17 H         -17.5708  -30.6625   -7.3353 H         1 MOL     0.0232
     18 H         -17.8677  -31.0759   -9.0070 H         1 MOL     0.0232
     19 H         -16.4540  -33.0320   -8.7809 H         1 MOL     0.0299
     20 H         -16.2046  -32.2216   -5.9297 H         1 MOL     0.0232
     21 H         -14.9339  -32.1822   -7.1280 H         1 MOL     0.0232
     22 H         -15.6209  -33.7107   -6.6332 H         1 MOL     0.0232
     23 H         -17.8770  -34.1839   -7.0117 H         1 MOL     0.0316
     24 H         -18.6973  -33.4602   -8.3898 H         1 MOL     0.0316
     25 H         -17.9690  -33.1455   -4.8862 H         1 MOL     0.0620
     26 H         -19.2343  -31.8256   -3.3498 H         1 MOL     0.0621
     27 H         -21.3777  -30.1747   -6.5133 H         1 MOL     0.0621
     28 H         -20.1018  -31.5065   -8.0590 H         1 MOL     0.0620
     29 H         -21.0161  -30.3482   -2.8693 H         1 MOL     0.0406
     30 H         -20.9912  -28.3218   -5.0926 H         1 MOL     0.0239
     31 H         -19.7807  -28.4758   -3.8417 H         1 MOL     0.0239
     32 H         -21.4102  -28.0006   -3.4263 H         1 MOL     0.0239
@<TRIPOS>BOND
     1    1    2 1 
     2    1   16 1 
     3    1   17 1 
     4    1   18 1 
     5    2    3 1 
     6    2    4 1 
     7    2   19 1 
     8    3   20 1 
     9    3   21 1 
    10    3   22 1 
    11    4    5 1 
    12    4   23 1 
    13    4   24 1 
    14    5    6 ar
    15    5   10 ar
    16    6    7 ar
    17    6   25 1 
    18    7    8 ar
    19    7   26 1 
    20    8    9 ar
    21    8   11 1 
    22    9   10 ar
    23    9   27 1 
    24   10   28 1 
    25   11   12 1 
    26   11   13 1 
    27   11   29 1 
    28   12   30 1 
    29   12   31 1 
    30   12   32 1 
    31   13   14 ar
    32   13   15 ar
@<TRIPOS>SUBSTRUCTURE
1 MOL         1
@<TRIPOS>MOLECULE
query molecule
   32    32     1     0     0
SMALL
NO_CHARGE

@<TRIPOS>ATOM
      1 C         -21.2596  -26.9944   28.8579 C.3       1 MOL     0.0072
      2 C         -20.4415  -27.4513   30.0292 C.3       1 MOL    -0.0128
      3 C         -21.2391  -28.3541   30.9154 C.3       1 MOL     0.0072
      4 C         -19.2113  -28.1546   29.5279 C.3       1 MOL     0.0379
      5 C         -19.5428  -29.1026   28.4363 C.ar      1 MOL    -0.0471
      6 C         -20.3150  -30.2020   28.7318 C.ar      1 MOL     0.0037
      7 C         -20.6447  -31.1015   27.7588 C.ar      1 MOL     0.0044
      8 C         -20.2111  -30.9242   26.4676 C.ar      1 MOL    -0.0391
      9 C         -19.4403  -29.8304   26.1607 C.ar      1 MOL     0.0044
     10 C         -19.1085  -28.9241   27.1450 C.ar      1 MOL     0.0037
     11 C         -20.5522  -31.8787   25.3993 C.3       1 MOL     0.0614
     12 C         -20.3491  -33.3022   25.9174 C.3       1 MOL     0.0185
     13 C         -21.9867  -31.6580   25.0514 C.2       1 MOL     0.0489
     14 O         -22.3408  -31.5166   23.8720 O.co2     1 MOL    -0.5492
     15 O         -22.9065  -31.6144   26.0599 O.co2     1 MOL    -0.5492
     16 H         -22.1375  -26.4929   29.2104 H         1 MOL     0.0232
     17 H         -21.5449  -27.8414   28.2697 H         1 MOL     0.0232
     18 H         -20.6809  -26.3226   28.2597 H         1 MOL     0.0232
     19 H         -20.1525  -26.6005   30.6091 H         1 MOL     0.0299
     20 H         -21.5441  -29.2179   30.3621 H         1 MOL     0.0232
     21 H         -22.1045  -27.8335   31.2684 H         1 MOL     0.0232
     22 H         -20.6403  -28.6575   31.7485 H         1 MOL     0.0232
     23 H         -18.7641  -28.6948   30.3357 H         1 MOL     0.0316
     24 H         -18.5340  -27.4202   29.1447 H         1 MOL     0.0316
     25 H         -20.6475  -30.3488   29.6978 H         1 MOL     0.0620
     26 H         -21.2248  -31.9219   27.9961 H         1 MOL     0.0621
     27 H         -19.1094  -29.6862   25.1937 H         1 MOL     0.0621
     28 H         -18.5285  -28.1032   26.9105 H         1 MOL     0.0620
     29 H         -19.9342  -31.7379   24.5370 H         1 MOL     0.0406
     30 H         -20.9614  -33.4579   26.7811 H         1 MOL     0.0239
     31 H         -19.3209  -33.4421   26.1794 H         1 MOL     0.0239
     32 H         -20.6214  -34.0013   25.1549 H         1 MOL     0.0239
@<TRIPOS>BOND
     1    1    2 1 
     2    1   16 1 
     3    1   17 1 
     4    1   18 1 
     5    2    3 1 
     6    2    4 1 
     7    2   19 1 
     8    3   20 1 
     9    3   21 1 
    10    3   22 1 
    11    4    5 1 
    12    4   23 1 
    13    4   24 1 
    14    5    6 ar
    15    5   10 ar
    16    6    7 ar
    17    6   25 1 
    18    7    8 ar
    19    7   26 1 
    20    8    9 ar
    21    8   11 1 
    22    9   10 ar
    23    9   27 1 
    24   10   28 1 
    25   11   12 1 
    26   11   13 1 
    27   11   29 1 
    28   12   30 1 
    29   12   31 1 
    30   12   32 1 
    31   13   14 ar
    32   13   15 ar
@<TRIPOS>SUBSTRUCTURE
1 MOL         1
@<TRIPOS>MOLECULE
query molecule
   32    32     1     0     0
SMALL
NO_CHARGE

@<TRIPOS>ATOM
      1 C         -27.6673  -36.9513  -29.4937 C.3       1 MOL     0.0072
      2 C         -26.9683  -37.7552  -28.4377 C.3       1 MOL    -0.0128
      3 C         -25.5396  -37.9940  -28.8095 C.3       1 MOL     0.0072
      4 C         -27.0586  -37.0295  -27.1244 C.3       1 MOL     0.0379
      5 C         -27.7664  -37.8458  -26.1081 C.ar      1 MOL    -0.0471
      6 C         -27.0357  -38.3947  -25.0800 C.ar      1 MOL     0.0037
      7 C         -27.6451  -39.1535  -24.1221 C.ar      1 MOL     0.0044
      8 C         -28.9987  -39.3818  -24.1683 C.ar      1 MOL    -0.0391
      9 C         -29.7384  -38.8386  -25.1893 C.ar      1 MOL     0.0044
     10 C         -29.1207  -38.0734  -26.1553 C.ar      1 MOL     0.0037
     11 C         -29.6809  -40.1960  -23.1483 C.3       1 MOL     0.0614
     12 C         -28.6630  -41.1251  -22.4875 C.3       1 MOL     0.0185
     13 C         -30.2485  -39.2544  -22.1389 C.2       1 MOL     0.0489
     14 O         -31.4555  -38.9721  -22.1404 O.co2     1 MOL    -0.5492
     15 O         -29.4111  -38.7069  -21.2096 O.co2     1 MOL    -0.5492
     16 H         -27.6054  -37.4644  -30.4314 H         1 MOL     0.0232
     17 H         -27.2000  -35.9927  -29.5804 H         1 MOL     0.0232
     18 H         -28.6945  -36.8249  -29.2234 H         1 MOL     0.0232
     19 H         -27.4441  -38.7088  -28.3496 H         1 MOL     0.0299
     20 H         -25.0348  -37.0553  -28.9054 H         1 MOL     0.0232
     21 H         -25.4966  -38.5182  -29.7411 H         1 MOL     0.0232
     22 H         -25.0651  -38.5779  -28.0489 H         1 MOL     0.0232
     23 H         -27.5902  -36.1125  -27.2678 H         1 MOL     0.0316
     24 H         -26.0657  -36.8389  -26.7741 H         1 MOL     0.0316
     25 H         -26.0175  -38.2323  -25.0326 H         1 MOL     0.0620
     26 H         -27.0831  -39.5589  -23.3568 H         1 MOL     0.0621
     27 H         -30.7565  -39.0026  -25.2340 H         1 MOL     0.0621
     28 H         -29.6799  -37.6671  -26.9216 H         1 MOL     0.0620
     29 H         -30.4580  -40.7924  -23.5793 H         1 MOL     0.0406
     30 H         -27.8785  -40.5421  -22.0517 H         1 MOL     0.0239
     31 H         -28.2510  -41.7829  -23.2244 H         1 MOL     0.0239
     32 H         -29.1468  -41.7001  -21.7263 H         1 MOL     0.0239
@<TRIPOS>BOND
     1    1    2 1 
     2    1   16 1 
     3    1   17 1 
     4    1   18 1 
     5    2    3 1 
     6    2    4 1 
     7    2   19 1 
     8    3   20 1 
     9    3   21 1 
    10    3   22 1 
    11    4    5 1 
    12    4   23 1 
    13    4   24 1 
    14    5    6 ar
    15    5   10 ar
    16    6    7 ar
    17    6   25 1 
    18    7    8 ar
    19    7   26 1 
    20    8    9 ar
    21    8   11 1 
    22    9   10 ar
    23    9   27 1 
    24   10   28 1 
    25   11   12 1 
    26   11   13 1 
    27   11   29 1 
    28   12   30 1 
    29   12   31 1 
    30   12   32 1 
    31   13   14 ar
    32   13   15 ar
@<TRIPOS>SUBSTRUCTURE
1 MOL         1
@<TRIPOS>MOLECULE
query molecule
   32    32     1     0     0
SMALL
NO_CHARGE

@<TRIPOS>ATOM
      1 C         -48.3958  -26.4907   19.5957 C.3       1 MOL     0.0072
      2 C         -48.6096  -25.0288   19.8552 C.3       1 MOL    -0.0128
      3 C         -47.4122  -24.2343   19.4409 C.3       1 MOL     0.0072
      4 C         -49.8322  -24.5689   19.1115 C.3       1 MOL     0.0379
      5 C         -49.6337  -24.6605   17.6444 C.ar      1 MOL    -0.0471
      6 C         -49.1616  -23.5558   16.9743 C.ar      1 MOL     0.0037
      7 C         -48.9638  -23.5941   15.6237 C.ar      1 MOL     0.0044
      8 C         -49.2328  -24.7367   14.9105 C.ar      1 MOL    -0.0391
      9 C         -49.7038  -25.8456   15.5685 C.ar      1 MOL     0.0044
     10 C         -49.9030  -25.8042   16.9320 C.ar      1 MOL     0.0037
     11 C         -49.0284  -24.8052   13.4537 C.3       1 MOL     0.0614
     12 C         -49.9206  -23.7665   12.7745 C.3       1 MOL     0.0185
     13 C         -47.5914  -24.4967   13.1945 C.2       1 MOL     0.0489
     14 O         -46.6935  -25.0672   13.8308 O.co2     1 MOL    -0.5492
     15 O         -47.2816  -23.5708   12.2397 O.co2     1 MOL    -0.5492
     16 H         -47.5255  -26.8226   20.1235 H         1 MOL     0.0232
     17 H         -48.2593  -26.6507   18.5466 H         1 MOL     0.0232
     18 H         -49.2490  -27.0406   19.9330 H         1 MOL     0.0232
     19 H         -48.7534  -24.8754   20.9037 H         1 MOL     0.0299
     20 H         -47.2416  -24.3674   18.3928 H         1 MOL     0.0232
     21 H         -46.5555  -24.5701   19.9866 H         1 MOL     0.0232
     22 H         -47.5824  -23.1981   19.6456 H         1 MOL     0.0232
     23 H         -50.0385  -23.5525   19.3731 H         1 MOL     0.0316
     24 H         -50.6513  -25.2017   19.3826 H         1 MOL     0.0316
     25 H         -48.9557  -22.6899   17.4969 H         1 MOL     0.0620
     26 H         -48.6092  -22.7568   15.1349 H         1 MOL     0.0621
     27 H         -49.9086  -26.7102   15.0433 H         1 MOL     0.0621
     28 H         -50.2577  -26.6397   17.4232 H         1 MOL     0.0620
     29 H         -49.2768  -25.7723   13.0689 H         1 MOL     0.0406
     30 H         -49.6835  -22.7928   13.1501 H         1 MOL     0.0239
     31 H         -50.9467  -23.9886   12.9823 H         1 MOL     0.0239
     32 H         -49.7567  -23.7922   11.7178 H         1 MOL     0.0239
@<TRIPOS>BOND
     1    1    2 1 
     2    1   16 1 
     3    1   17 1 
     4    1   18 1 
     5    2    3 1 
     6    2    4 1 
     7    2   19 1 
     8    3   20 1 
     9    3   21 1 
    10    3   22 1 
    11    4    5 1 
    12    4   23 1 
    13    4   24 1 
    14    5    6 ar
    15    5   10 ar
    16    6    7 ar
    17    6   25 1 
    18    7    8 ar
    19    7   26 1 
    20    8    9 ar
    21    8   11 1 
    22    9   10 ar
    23    9   27 1 
    24   10   28 1 
    25   11   12 1 
    26   11   13 1 
    27   11   29 1 
    28   12   30 1 
    29   12   31 1 
    30   12   32 1 
    31   13   14 ar
    32   13   15 ar
@<TRIPOS>SUBSTRUCTURE
1 MOL         1
@<TRIPOS>MOLECULE
query molecule
   32    32     1     0     0
SMALL
NO_CHARGE

@<TRIPOS>ATOM
      1 C         -72.6069  -39.8357    4.7478 C.3       1 MOL     0.0072
      2 C         -73.4419  -40.1828    5.9446 C.3       1 MOL    -0.0128
      3 C         -74.4515  -41.2317    5.6028 C.3       1 MOL     0.0072
      4 C         -72.5433  -40.6553    7.0532 C.3       1 MOL     0.0379
      5 C         -71.7745  -41.8565    6.6453 C.ar      1 MOL    -0.0471
      6 C         -70.8991  -42.4147    7.5477 C.ar      1 MOL     0.0037
      7 C         -70.1701  -43.5207    7.2157 C.ar      1 MOL     0.0044
      8 C         -70.2984  -44.0952    5.9747 C.ar      1 MOL    -0.0391
      9 C         -71.1695  -43.5472    5.0661 C.ar      1 MOL     0.0044
     10 C         -71.9039  -42.4305    5.4036 C.ar      1 MOL     0.0037
     11 C         -69.5246  -45.2879    5.5909 C.3       1 MOL     0.0614
     12 C         -68.5828  -44.9247    4.4432 C.3       1 MOL     0.0185
     13 C         -68.7382  -45.7081    6.7878 C.2       1 MOL     0.0489
     14 O         -67.5714  -46.1106    6.6731 O.co2     1 MOL    -0.5492
     15 O         -69.3292  -45.6411    8.0170 O.co2     1 MOL    -0.5492
     16 H         -73.2431  -39.4987    3.9552 H         1 MOL     0.0232
     17 H         -72.0656  -40.7011    4.4270 H         1 MOL     0.0232
     18 H         -71.9182  -39.0593    5.0071 H         1 MOL     0.0232
     19 H         -73.9744  -39.3128    6.2659 H         1 MOL     0.0299
     20 H         -73.9480  -42.1180    5.2767 H         1 MOL     0.0232
     21 H         -75.0859  -40.8738    4.8192 H         1 MOL     0.0232
     22 H         -75.0420  -41.4546    6.4666 H         1 MOL     0.0232
     23 H         -73.1400  -40.8962    7.9077 H         1 MOL     0.0316
     24 H         -71.8514  -39.8728    7.2849 H         1 MOL     0.0316
     25 H         -70.7915  -41.9934    8.4837 H         1 MOL     0.0620
     26 H         -69.5169  -43.9280    7.9036 H         1 MOL     0.0621
     27 H         -71.2750  -43.9708    4.1308 H         1 MOL     0.0621
     28 H         -72.5574  -42.0210    4.7178 H         1 MOL     0.0620
     29 H         -70.1648  -46.0826    5.2685 H         1 MOL     0.0406
     30 H         -67.9356  -44.1299    4.7512 H         1 MOL     0.0239
     31 H         -69.1578  -44.6088    3.5977 H         1 MOL     0.0239
     32 H         -67.9979  -45.7800    4.1778 H         1 MOL     0.0239
@<TRIPOS>BOND
     1    1    2 1 
     2    1   16 1 
     3    1   17 1 
     4    1   18 1 
     5    2    3 1 
     6    2    4 1 
     7    2   19 1 
     8    3   20 1 
     9    3   21 1 
    10    3   22 1 
    11    4    5 1 
    12    4   23 1 
    13    4   24 1 
    14    5    6 ar
    15    5   10 ar
    16    6    7 ar
    17    6   25 1 
    18    7    8 ar
    19    7   26 1 
    20    8    9 ar
    21    8   11 1 
    22    9   10 ar
    23    9   27 1 
    24   10   28 1 
    25   11   12 1 
    26   11   13 1 
    27   11   29 1 
    28   12   30 1 
    29   12   31 1 
    30   12   32 1 
    31   13   14 ar
    32   13   15 ar
@<TRIPOS>SUBSTRUCTURE
1 MOL         1
@<TRIPOS>MOLECULE
query molecule
   32    32     1     0     0
SMALL
NO_CHARGE

@<TRIPOS>ATOM
      1 C         -25.0802  -22.4960   -5.2964 C.3       1 MOL     0.0072
      2 C         -25.0987  -23.2334   -3.9903 C.3       1 MOL    -0.0128
      3 C         -23.9913  -24.2366   -3.9300 C.3       1 MOL     0.0072
      4 C         -24.9789  -22.2454   -2.8638 C.3       1 MOL     0.0379
      5 C         -23.8707  -21.2893   -3.1046 C.ar      1 MOL    -0.0471
      6 C         -24.1824  -19.9880   -3.4237 C.ar      1 MOL     0.0037
      7 C         -23.1950  -19.0733   -3.6539 C.ar      1 MOL     0.0044
      8 C         -21.8730  -19.4367   -3.5709 C.ar      1 MOL    -0.0391
      9 C         -21.5499  -20.7324   -3.2526 C.ar      1 MOL     0.0044
     10 C         -22.5486  -21.6539   -3.0210 C.ar      1 MOL     0.0037
     11 C         -20.7886  -18.4705   -3.8142 C.3       1 MOL     0.0614
     12 C         -19.7917  -18.5363   -2.6575 C.3       1 MOL     0.0185
     13 C         -20.1226  -18.8662   -5.0899 C.2       1 MOL     0.0489
     14 O         -18.8934  -18.7744   -5.2209 O.co2     1 MOL    -0.5492
     15 O         -20.8947  -19.3331   -6.1150 O.co2     1 MOL    -0.5492
     16 H         -25.1651  -23.1961   -6.1020 H         1 MOL     0.0232
     17 H         -24.1609  -21.9562   -5.3886 H         1 MOL     0.0232
     18 H         -25.9014  -21.8115   -5.3306 H         1 MOL     0.0232
     19 H         -26.0225  -23.7645   -3.8998 H         1 MOL     0.0299
     20 H         -23.0504  -23.7343   -4.0181 H         1 MOL     0.0232
     21 H         -24.0988  -24.9349   -4.7333 H         1 MOL     0.0232
     22 H         -24.0312  -24.7575   -2.9963 H         1 MOL     0.0232
     23 H         -24.7918  -22.7748   -1.9533 H         1 MOL     0.0316
     24 H         -25.8936  -21.6942   -2.7983 H         1 MOL     0.0316
     25 H         -25.1714  -19.7006   -3.4904 H         1 MOL     0.0620
     26 H         -23.4447  -18.1004   -3.8927 H         1 MOL     0.0621
     27 H         -20.5599  -21.0169   -3.1863 H         1 MOL     0.0621
     28 H         -22.3018  -22.6272   -2.7824 H         1 MOL     0.0620
     29 H         -21.1639  -17.4707   -3.8847 H         1 MOL     0.0406
     30 H         -19.4075  -19.5317   -2.5743 H         1 MOL     0.0239
     31 H         -20.2853  -18.2675   -1.7467 H         1 MOL     0.0239
     32 H         -18.9868  -17.8562   -2.8415 H         1 MOL     0.0239
@<TRIPOS>BOND
     1    1    2 1 
     2    1   16 1 
     3    1   17 1 
     4    1   18 1 
     5    2    3 1 
     6    2    4 1 
     7    2   19 1 
     8    3   20 1 
     9    3   21 1 
    10    3   22 1 
    11    4    5 1 
    12    4   23 1 
    13    4   24 1 
    14    5    6 ar
    15    5   10 ar
    16    6    7 ar
    17    6   25 1 
    18    7    8 ar
    19    7   26 1 
    20    8    9 ar
    21    8   11 1 
    22    9   10 ar
    23    9   27 1 
    24   10   28 1 
    25   11   12 1 
    26   11   13 1 
    27   11   29 1 
    28   12   30 1 
    29   12   31 1 
    30   12   32 1 
    31   13   14 ar
    32   13   15 ar
@<TRIPOS>SUBSTRUCTURE
1 MOL         1
@<TRIPOS>MOLECULE
query molecule
   32    32     1     0     0
SMALL
NO_CHARGE

@<TRIPOS>ATOM
      1 C         -71.2799  -22.9409    5.8600 C.3       1 MOL     0.0072
      2 C         -71.8572  -24.2964    6.1415 C.3       1 MOL    -0.0128
      3 C         -71.5252  -25.2548    5.0425 C.3       1 MOL     0.0072
      4 C         -71.3267  -24.7956    7.4563 C.3       1 MOL     0.0379
      5 C         -69.8607  -25.0136    7.3953 C.ar      1 MOL    -0.0471
      6 C         -69.1873  -24.6406    6.2552 C.ar      1 MOL     0.0037
      7 C         -67.8377  -24.8226    6.1544 C.ar      1 MOL     0.0044
      8 C         -67.1289  -25.3814    7.1897 C.ar      1 MOL    -0.0391
      9 C         -67.7902  -25.7569    8.3326 C.ar      1 MOL     0.0044
     10 C         -69.1527  -25.5725    8.4318 C.ar      1 MOL     0.0037
     11 C         -65.6733  -25.5888    7.1073 C.3       1 MOL     0.0614
     12 C         -65.2874  -25.8501    5.6516 C.3       1 MOL     0.0185
     13 C         -65.0207  -24.3385    7.5955 C.2       1 MOL     0.0489
     14 O         -64.0021  -24.3860    8.3003 O.co2     1 MOL    -0.5492
     15 O         -65.5680  -23.1358    7.2509 O.co2     1 MOL    -0.5492
     16 H         -71.6550  -22.5813    4.9238 H         1 MOL     0.0232
     17 H         -70.2131  -23.0098    5.8138 H         1 MOL     0.0232
     18 H         -71.5608  -22.2651    6.6401 H         1 MOL     0.0232
     19 H         -72.9226  -24.2205    6.1945 H         1 MOL     0.0299
     20 H         -70.4624  -25.3526    4.9641 H         1 MOL     0.0232
     21 H         -71.9180  -24.8867    4.1179 H         1 MOL     0.0232
     22 H         -71.9562  -26.2098    5.2586 H         1 MOL     0.0232
     23 H         -71.8074  -25.7200    7.6987 H         1 MOL     0.0316
     24 H         -71.5286  -24.0581    8.2048 H         1 MOL     0.0316
     25 H         -69.7068  -24.2201    5.4687 H         1 MOL     0.0620
     26 H         -67.3463  -24.5378    5.2922 H         1 MOL     0.0621
     27 H         -67.2680  -26.1770    9.1176 H         1 MOL     0.0621
     28 H         -69.6465  -25.8565    9.2923 H         1 MOL     0.0620
     29 H         -65.3633  -26.4256    7.6979 H         1 MOL     0.0406
     30 H         -65.5918  -25.0206    5.0478 H         1 MOL     0.0239
     31 H         -65.7750  -26.7388    5.3083 H         1 MOL     0.0239
     32 H         -64.2273  -25.9745    5.5807 H         1 MOL     0.0239
@<TRIPOS>BOND
     1    1    2 1 
     2    1   16 1 
     3    1   17 1 
     4    1   18 1 
     5    2    3 1 
     6    2    4 1 
     7    2   19 1 
     8    3   20 1 
     9    3   21 1 
    10    3   22 1 
    11    4    5 1 
    12    4   23 1 
    13    4   24 1 
    14    5    6 ar
    15    5   10 ar
    16    6    7 ar
    17    6   25 1 
    18    7    8 ar
    19    7   26 1 
    20    8    9 ar
    21    8   11 1 
    22    9   10 ar
    23    9   27 1 
    24   10   28 1 
    25   11   12 1 
    26   11   13 1 
    27   11   29 1 
    28   12   30 1 
    29   12   31 1 
    30   12   32 1 
    31   13   14 ar
    32   13   15 ar
@<TRIPOS>SUBSTRUCTURE
1 MOL         1
@<TRIPOS>MOLECULE
query molecule
   32    32     1     0     0
SMALL
NO_CHARGE

@<TRIPOS>ATOM
      1 C         -68.2742  -23.9976  -25.5634 C.3       1 MOL     0.0072
      2 C         -68.1381  -25.4426  -25.9421 C.3       1 MOL    -0.0128
      3 C         -67.3886  -25.5873  -27.2281 C.3       1 MOL     0.0072
      4 C         -67.4361  -26.1789  -24.8355 C.3       1 MOL     0.0379
      5 C         -68.3224  -27.1985  -24.2231 C.ar      1 MOL    -0.0471
      6 C         -68.6069  -27.1019  -22.8807 C.ar      1 MOL     0.0037
      7 C         -69.4178  -28.0181  -22.2744 C.ar      1 MOL     0.0044
      8 C         -69.9637  -29.0525  -22.9945 C.ar      1 MOL    -0.0391
      9 C         -69.6874  -29.1588  -24.3350 C.ar      1 MOL     0.0044
     10 C         -68.8682  -28.2327  -24.9446 C.ar      1 MOL     0.0037
     11 C         -70.8413  -30.0541  -22.3657 C.3       1 MOL     0.0614
     12 C         -72.1415  -30.1505  -23.1634 C.3       1 MOL     0.0185
     13 C         -70.1183  -31.3592  -22.4014 C.2       1 MOL     0.0489
     14 O         -69.3332  -31.6766  -21.4961 O.co2     1 MOL    -0.5492
     15 O         -70.3377  -32.2015  -23.4537 O.co2     1 MOL    -0.5492
     16 H         -68.7737  -23.4689  -26.3492 H         1 MOL     0.0232
     17 H         -67.3029  -23.5754  -25.4110 H         1 MOL     0.0232
     18 H         -68.8439  -23.9179  -24.6616 H         1 MOL     0.0232
     19 H         -69.1115  -25.8615  -26.0854 H         1 MOL     0.0299
     20 H         -66.4069  -25.1759  -27.1165 H         1 MOL     0.0232
     21 H         -67.9076  -25.0645  -28.0039 H         1 MOL     0.0232
     22 H         -67.3140  -26.6234  -27.4838 H         1 MOL     0.0232
     23 H         -67.1383  -25.4785  -24.0839 H         1 MOL     0.0316
     24 H         -66.5826  -26.6755  -25.2475 H         1 MOL     0.0316
     25 H         -68.2032  -26.3303  -22.3266 H         1 MOL     0.0620
     26 H         -69.6218  -27.9324  -21.2660 H         1 MOL     0.0621
     27 H         -70.0927  -29.9314  -24.8867 H         1 MOL     0.0621
     28 H         -68.6623  -28.3162  -25.9525 H         1 MOL     0.0620
     29 H         -71.0789  -29.7877  -21.3568 H         1 MOL     0.0406
     30 H         -71.9195  -30.4163  -24.1760 H         1 MOL     0.0239
     31 H         -72.6413  -29.2044  -23.1446 H         1 MOL     0.0239
     32 H         -72.7725  -30.8963  -22.7277 H         1 MOL     0.0239
@<TRIPOS>BOND
     1    1    2 1 
     2    1   16 1 
     3    1   17 1 
     4    1   18 1 
     5    2    3 1 
     6    2    4 1 
     7    2   19 1 
     8    3   20 1 
     9    3   21 1 
    10    3   22 1 
    11    4    5 1 
    12    4   23 1 
    13    4   24 1 
    14    5    6 ar
    15    5   10 ar
    16    6    7 ar
    17    6   25 1 
    18    7    8 ar
    19    7   26 1 
    20    8    9 ar
    21    8   11 1 
    22    9   10 ar
    23    9   27 1 
    24   10   28 1 
    25   11   12 1 
    26   11   13 1 
    27   11   29 1 
    28   12   30 1 
    29   12   31 1 
    30   12   32 1 
    31   13   14 ar
    32   13   15 ar
@<TRIPOS>SUBSTRUCTURE
1 MOL         1
@<TRIPOS>MOLECULE
query molecule
   32    32     1     0     0
SMALL
NO_CHARGE

@<TRIPOS>ATOM
      1 C         -65.3264  -31.8091  -15.6274 C.3       1 MOL     0.0072
      2 C         -64.7159  -32.9222  -16.4264 C.3       1 MOL    -0.0128
      3 C         -63.3228  -33.2074  -15.9634 C.3       1 MOL     0.0072
      4 C         -65.5759  -34.1487  -16.3018 C.3       1 MOL     0.0379
      5 C         -65.6906  -34.8575  -17.5998 C.ar      1 MOL    -0.0471
      6 C         -66.8469  -34.7092  -18.3301 C.ar      1 MOL     0.0037
      7 C         -66.9968  -35.3430  -19.5303 C.ar      1 MOL     0.0044
      8 C         -65.9955  -36.1397  -20.0295 C.ar      1 MOL    -0.0391
      9 C         -64.8368  -36.2946  -19.3097 C.ar      1 MOL     0.0044
     10 C         -64.6881  -35.6540  -18.0982 C.ar      1 MOL     0.0037
     11 C         -66.1311  -36.8344  -21.3209 C.3       1 MOL     0.0614
     12 C         -67.5430  -37.4089  -21.4335 C.3       1 MOL     0.0185
     13 C         -65.9011  -35.8221  -22.3931 C.2       1 MOL     0.0489
     14 O         -65.6908  -34.6334  -22.1113 O.co2     1 MOL    -0.5492
     15 O         -65.9265  -36.2300  -23.6961 O.co2     1 MOL    -0.5492
     16 H         -64.7168  -30.9331  -15.7131 H         1 MOL     0.0232
     17 H         -65.3896  -32.1004  -14.5998 H         1 MOL     0.0232
     18 H         -66.3068  -31.5994  -16.0002 H         1 MOL     0.0232
     19 H         -64.6625  -32.6291  -17.4535 H         1 MOL     0.0299
     20 H         -63.3429  -33.5045  -14.9355 H         1 MOL     0.0232
     21 H         -62.7251  -32.3263  -16.0678 H         1 MOL     0.0232
     22 H         -62.9040  -33.9951  -16.5540 H         1 MOL     0.0232
     23 H         -66.5522  -33.8590  -15.9747 H         1 MOL     0.0316
     24 H         -65.1218  -34.8100  -15.5938 H         1 MOL     0.0316
     25 H         -67.6083  -34.1143  -17.9673 H         1 MOL     0.0620
     26 H         -67.8706  -35.2222  -20.0668 H         1 MOL     0.0621
     27 H         -64.0770  -36.8900  -19.6752 H         1 MOL     0.0621
     28 H         -63.8158  -35.7733  -17.5597 H         1 MOL     0.0620
     29 H         -65.4282  -37.6365  -21.4093 H         1 MOL     0.0406
     30 H         -68.2579  -36.6173  -21.3465 H         1 MOL     0.0239
     31 H         -67.7012  -38.1199  -20.6494 H         1 MOL     0.0239
     32 H         -67.6569  -37.8915  -22.3813 H         1 MOL     0.0239
@<TRIPOS>BOND
     1    1    2 1 
     2    1   16 1 
     3    1   17 1 
     4    1   18 1 
     5    2    3 1 
     6    2    4 1 
     7    2   19 1 
     8    3   20 1 
     9    3   21 1 
    10    3   22 1 
    11    4    5 1 
    12    4   23 1 
    13    4   24 1 
    14    5    6 ar
    15    5   10 ar
    16    6    7 ar
    17    6   25 1 
    18    7    8 ar
    19    7   26 1 
    20    8    9 ar
    21    8   11 1 
    22    9   10 ar
    23    9   27 1 
    24   10   28 1 
    25   11   12 1 
    26   11   13 1 
    27   11   29 1 
    28   12   30 1 
    29   12   31 1 
    30   12   32 1 
    31   13   14 ar
    32   13   15 ar
@<TRIPOS>SUBSTRUCTURE
1 MOL         1
@<TRIPOS>MOLECULE
query molecule
   32    32     1     0     0
SMALL
NO_CHARGE

@<TRIPOS>ATOM
      1 C          -6.2979  -39.4417    4.2910 C.3       1 MOL     0.0072
      2 C          -5.8106  -40.8415    4.5215 C.3       1 MOL    -0.0128
      3 C          -5.9531  -41.6653    3.2815 C.3       1 MOL     0.0072
      4 C          -4.3751  -40.7978    4.9651 C.3       1 MOL     0.0379
      5 C          -4.2446  -40.1591    6.2975 C.ar      1 MOL    -0.0471
      6 C          -3.4472  -39.0446    6.4173 C.ar      1 MOL     0.0037
      7 C          -3.2973  -38.4239    7.6244 C.ar      1 MOL     0.0044
      8 C          -3.9404  -38.9015    8.7401 C.ar      1 MOL    -0.0391
      9 C          -4.7394  -40.0126    8.6324 C.ar      1 MOL     0.0044
     10 C          -4.8887  -40.6377    7.4128 C.ar      1 MOL     0.0037
     11 C          -3.7963  -38.2513   10.0536 C.3       1 MOL     0.0614
     12 C          -2.3194  -37.9440   10.2997 C.3       1 MOL     0.0185
     13 C          -4.5843  -36.9847   10.0081 C.2       1 MOL     0.0489
     14 O          -4.2224  -36.0355    9.2978 O.co2     1 MOL    -0.5492
     15 O          -5.7161  -36.8892   10.7663 O.co2     1 MOL    -0.5492
     16 H          -7.3204  -39.4680    3.9745 H         1 MOL     0.0232
     17 H          -5.7021  -38.9764    3.5337 H         1 MOL     0.0232
     18 H          -6.2200  -38.8833    5.2001 H         1 MOL     0.0232
     19 H          -6.4041  -41.2989    5.2845 H         1 MOL     0.0299
     20 H          -5.3687  -41.2318    2.4967 H         1 MOL     0.0232
     21 H          -6.9812  -41.6914    2.9870 H         1 MOL     0.0232
     22 H          -5.6109  -42.6608    3.4724 H         1 MOL     0.0232
     23 H          -3.8062  -40.2384    4.2525 H         1 MOL     0.0316
     24 H          -4.0113  -41.8016    5.0336 H         1 MOL     0.0316
     25 H          -2.9570  -38.6747    5.5877 H         1 MOL     0.0620
     26 H          -2.6952  -37.5885    7.6985 H         1 MOL     0.0621
     27 H          -5.2285  -40.3802    9.4638 H         1 MOL     0.0621
     28 H          -5.4897  -41.4731    7.3359 H         1 MOL     0.0620
     29 H          -4.1499  -38.8816   10.8429 H         1 MOL     0.0406
     30 H          -1.9513  -37.3138    9.5170 H         1 MOL     0.0239
     31 H          -1.7632  -38.8582   10.3127 H         1 MOL     0.0239
     32 H          -2.2109  -37.4467   11.2405 H         1 MOL     0.0239
@<TRIPOS>BOND
     1    1    2 1 
     2    1   16 1 
     3    1   17 1 
     4    1   18 1 
     5    2    3 1 
     6    2    4 1 
     7    2   19 1 
     8    3   20 1 
     9    3   21 1 
    10    3   22 1 
    11    4    5 1 
    12    4   23 1 
    13    4   24 1 
    14    5    6 ar
    15    5   10 ar
    16    6    7 ar
    17    6   25 1 
    18    7    8 ar
    19    7   26 1 
    20    8    9 ar
    21    8   11 1 
    22    9   10 ar
    23    9   27 1 
    24   10   28 1 
    25   11   12 1 
    26   11   13 1 
    27   11   29 1 
    28   12   30 1 
    29   12   31 1 
    30   12   32 1 
    31   13   14 ar
    32   13   15 ar
@<TRIPOS>SUBSTRUCTURE
1 MOL         1
@<TRIPOS>MOLECULE
query molecule
   32    32     1     0     0
SMALL
NO_CHARGE

@<TRIPOS>ATOM
      1 C         -65.3233  -21.4070   14.1037 C.3       1 MOL     0.0072
      2 C         -65.7030  -22.5466   13.2052 C.3       1 MOL    -0.0128
      3 C         -67.1427  -22.4561   12.8106 C.3       1 MOL     0.0072
      4 C         -64.8197  -22.5319   11.9891 C.3       1 MOL     0.0379
      5 C         -63.7143  -23.5128   12.1172 C.ar      1 MOL    -0.0471
      6 C         -63.9235  -24.8002   11.6802 C.ar      1 MOL     0.0037
      7 C         -62.9346  -25.7368   11.7786 C.ar      1 MOL     0.0044
      8 C         -61.7136  -25.4096   12.3157 C.ar      1 MOL    -0.0391
      9 C         -61.4931  -24.1277   12.7546 C.ar      1 MOL     0.0044
     10 C         -62.4931  -23.1842   12.6545 C.ar      1 MOL     0.0037
     11 C         -60.6300  -26.4000   12.4334 C.3       1 MOL     0.0614
     12 C         -59.3475  -25.8095   11.8481 C.3       1 MOL     0.0185
     13 C         -60.4481  -26.6846   13.8872 C.2       1 MOL     0.0489
     14 O         -59.3395  -27.0070   14.3384 O.co2     1 MOL    -0.5492
     15 O         -61.5292  -26.5834   14.7153 O.co2     1 MOL    -0.5492
     16 H         -65.9504  -21.4133   14.9715 H         1 MOL     0.0232
     17 H         -65.4487  -20.4824   13.5799 H         1 MOL     0.0232
     18 H         -64.3014  -21.5133   14.4011 H         1 MOL     0.0232
     19 H         -65.5683  -23.4682   13.7306 H         1 MOL     0.0299
     20 H         -67.3100  -21.5413   12.2809 H         1 MOL     0.0232
     21 H         -67.7546  -22.4766   13.6879 H         1 MOL     0.0232
     22 H         -67.3934  -23.2837   12.1808 H         1 MOL     0.0232
     23 H         -64.4056  -21.5528   11.8698 H         1 MOL     0.0316
     24 H         -65.4111  -22.7974   11.1379 H         1 MOL     0.0316
     25 H         -64.8362  -25.0609   11.2750 H         1 MOL     0.0620
     26 H         -63.1068  -26.6990   11.4464 H         1 MOL     0.0621
     27 H         -60.5792  -23.8699   13.1592 H         1 MOL     0.0621
     28 H         -62.3239  -22.2216   12.9861 H         1 MOL     0.0620
     29 H         -60.8637  -27.3003   11.9042 H         1 MOL     0.0406
     30 H         -59.1010  -24.9071   12.3679 H         1 MOL     0.0239
     31 H         -59.4965  -25.5938   10.8104 H         1 MOL     0.0239
     32 H         -58.5496  -26.5138   11.9554 H         1 MOL     0.0239
@<TRIPOS>BOND
     1    1    2 1 
     2    1   16 1 
     3    1   17 1 
     4    1   18 1 
     5    2    3 1 
     6    2    4 1 
     7    2   19 1 
     8    3   20 1 
     9    3   21 1 
    10    3   22 1 
    11    4    5 1 
    12    4   23 1 
    13    4   24 1 
    14    5    6 ar
    15    5   10 ar
    16    6    7 ar
    17    6   25 1 
    18    7    8 ar
    19    7   26 1 
    20    8    9 ar
    21    8   11 1 
    22    9   10 ar
    23    9   27 1 
    24   10   28 1 
    25   11   12 1 
    26   11   13 1 
    27   11   29 1 
    28   12   30 1 
    29   12   31 1 
    30   12   32 1 
    31   13   14 ar
    32   13   15 ar
@<TRIPOS>SUBSTRUCTURE
1 MOL         1
@<TRIPOS>MOLECULE
query molecule
   32    32     1     0     0
SMALL
NO_CHARGE

@<TRIPOS>ATOM
      1 C         -36.0245  -33.7419  -24.9853 C.3       1 MOL     0.0072
      2 C         -34.5779  -33.8935  -24.6190 C.3       1 MOL    -0.0128
      3 C         -34.3063  -33.3069  -23.2704 C.3       1 MOL     0.0072
      4 C         -34.2121  -35.3512  -24.6447 C.3       1 MOL     0.0379
      5 C         -33.0675  -35.6330  -23.7444 C.ar      1 MOL    -0.0471
      6 C         -33.2760  -36.4363  -22.6473 C.ar      1 MOL     0.0037
      7 C         -32.2516  -36.7225  -21.7908 C.ar      1 MOL     0.0044
      8 C         -30.9950  -36.2132  -22.0099 C.ar      1 MOL    -0.0391
      9 C         -30.7749  -35.4107  -23.1018 C.ar      1 MOL     0.0044
     10 C         -31.8108  -35.1230  -23.9646 C.ar      1 MOL     0.0037
     11 C         -29.8728  -36.5060  -21.1023 C.3       1 MOL     0.0614
     12 C         -28.6070  -36.7304  -21.9290 C.3       1 MOL     0.0185
     13 C         -29.7025  -35.3192  -20.2135 C.2       1 MOL     0.0489
     14 O         -28.7968  -35.2824  -19.3680 O.co2     1 MOL    -0.5492
     15 O         -30.5660  -34.2699  -20.3484 O.co2     1 MOL    -0.5492
     16 H         -36.2897  -32.7047  -24.9681 H         1 MOL     0.0232
     17 H         -36.6287  -34.2761  -24.2821 H         1 MOL     0.0232
     18 H         -36.1864  -34.1353  -25.9668 H         1 MOL     0.0232
     19 H         -33.9783  -33.3646  -25.3292 H         1 MOL     0.0299
     20 H         -34.8935  -33.8168  -22.5353 H         1 MOL     0.0232
     21 H         -34.5644  -32.2687  -23.2748 H         1 MOL     0.0232
     22 H         -33.2682  -33.4157  -23.0357 H         1 MOL     0.0232
     23 H         -33.9468  -35.6272  -25.6436 H         1 MOL     0.0316
     24 H         -35.0552  -35.9177  -24.3084 H         1 MOL     0.0316
     25 H         -34.2151  -36.8257  -22.4695 H         1 MOL     0.0620
     26 H         -32.4237  -37.3268  -20.9717 H         1 MOL     0.0621
     27 H         -29.8345  -35.0230  -23.2772 H         1 MOL     0.0621
     28 H         -31.6417  -34.5190  -24.7842 H         1 MOL     0.0620
     29 H         -30.0598  -37.3838  -20.5194 H         1 MOL     0.0406
     30 H         -28.4070  -35.8597  -22.5183 H         1 MOL     0.0239
     31 H         -28.7481  -37.5727  -22.5741 H         1 MOL     0.0239
     32 H         -27.7819  -36.9166  -21.2742 H         1 MOL     0.0239
@<TRIPOS>BOND
     1    1    2 1 
     2    1   16 1 
     3    1   17 1 
     4    1   18 1 
     5    2    3 1 
     6    2    4 1 
     7    2   19 1 
     8    3   20 1 
     9    3   21 1 
    10    3   22 1 
    11    4    5 1 
    12    4   23 1 
    13    4   24 1 
    14    5    6 ar
    15    5   10 ar
    16    6    7 ar
    17    6   25 1 
    18    7    8 ar
    19    7   26 1 
    20    8    9 ar
    21    8   11 1 
    22    9   10 ar
    23    9   27 1 
    24   10   28 1 
    25   11   12 1 
    26   11   13 1 
    27   11   29 1 
    28   12   30 1 
    29   12   31 1 
    30   12   32 1 
    31   13   14 ar
    32   13   15 ar
@<TRIPOS>SUBSTRUCTURE
1 MOL         1
@<TRIPOS>MOLECULE
query molecule
   32    32     1     0     0
SMALL
NO_CHARGE

@<TRIPOS>ATOM
      1 C         -25.8910  -34.1847    2.5875 C.3       1 MOL     0.0072
      2 C         -26.2547  -32.8901    3.2522 C.3       1 MOL    -0.0128
      3 C         -26.2108  -33.0257    4.7409 C.3       1 MOL     0.0072
      4 C         -25.3097  -31.8159    2.7912 C.3       1 MOL     0.0379
      5 C         -24.1611  -31.6774    3.7194 C.ar      1 MOL    -0.0471
      6 C         -24.0871  -30.5550    4.5113 C.ar      1 MOL     0.0037
      7 C         -23.0476  -30.3850    5.3804 C.ar      1 MOL     0.0044
      8 C         -22.0575  -31.3318    5.4790 C.ar      1 MOL    -0.0391
      9 C         -22.1211  -32.4563    4.6941 C.ar      1 MOL     0.0044
     10 C         -23.1714  -32.6254    3.8173 C.ar      1 MOL     0.0037
     11 C         -20.9257  -31.1735    6.4077 C.3       1 MOL     0.0614
     12 C         -20.5966  -32.5301    7.0303 C.3       1 MOL     0.0185
     13 C         -19.7655  -30.6792    5.6096 C.2       1 MOL     0.0489
     14 O         -18.7119  -30.3351    6.1647 O.co2     1 MOL    -0.5492
     15 O         -19.8854  -30.6121    4.2510 O.co2     1 MOL    -0.5492
     16 H         -26.5616  -34.9532    2.9133 H         1 MOL     0.0232
     17 H         -24.8886  -34.4514    2.8500 H         1 MOL     0.0232
     18 H         -25.9648  -34.0731    1.5263 H         1 MOL     0.0232
     19 H         -27.2542  -32.6242    2.9803 H         1 MOL     0.0299
     20 H         -25.2200  -33.2921    5.0453 H         1 MOL     0.0232
     21 H         -26.8952  -33.7878    5.0497 H         1 MOL     0.0232
     22 H         -26.4845  -32.0954    5.1929 H         1 MOL     0.0232
     23 H         -25.8350  -30.8852    2.7443 H         1 MOL     0.0316
     24 H         -24.9348  -32.0862    1.8262 H         1 MOL     0.0316
     25 H         -24.8234  -29.8346    4.4476 H         1 MOL     0.0620
     26 H         -23.0058  -29.5371    5.9680 H         1 MOL     0.0621
     27 H         -21.3833  -33.1752    4.7601 H         1 MOL     0.0621
     28 H         -23.2155  -33.4718    3.2285 H         1 MOL     0.0620
     29 H         -21.1576  -30.4848    7.1933 H         1 MOL     0.0406
     30 H         -20.3625  -33.2304    6.2557 H         1 MOL     0.0239
     31 H         -21.4418  -32.8814    7.5850 H         1 MOL     0.0239
     32 H         -19.7573  -32.4273    7.6855 H         1 MOL     0.0239
@<TRIPOS>BOND
     1    1    2 1 
     2    1   16 1 
     3    1   17 1 
     4    1   18 1 
     5    2    3 1 
     6    2    4 1 
     7    2   19 1 
     8    3   20 1 
     9    3   21 1 
    10    3   22 1 
    11    4    5 1 
    12    4   23 1 
    13    4   24 1 
    14    5    6 ar
    15    5   10 ar
    16    6    7 ar
    17    6   25 1 
    18    7    8 ar
    19    7   26 1 
    20    8    9 ar
    21    8   11 1 
    22    9   10 ar
    23    9   27 1 
    24   10   28 1 
    25   11   12 1 
    26   11   13 1 
    27   11   29 1 
    28   12   30 1 
    29   12   31 1 
    30   12   32 1 
    31   13   14 ar
    32   13   15 ar
@<TRIPOS>SUBSTRUCTURE
1 MOL         1
@<TRIPOS>MOLECULE
query molecule
   32    32     1     0     0
SMALL
NO_CHARGE

@<TRIPOS>ATOM
      1 C          -5.5147  -27.1207   21.7733 C.3       1 MOL     0.0072
      2 C          -6.1503  -28.3348   21.1635 C.3       1 MOL    -0.0128
      3 C          -6.9653  -27.9639   19.9658 C.3       1 MOL     0.0072
      4 C          -5.0771  -29.3183   20.7886 C.3       1 MOL     0.0379
      5 C          -5.5925  -30.7090   20.8110 C.ar      1 MOL    -0.0471
      6 C          -5.8161  -31.3469   19.6129 C.ar      1 MOL     0.0037
      7 C          -6.2904  -32.6271   19.5851 C.ar      1 MOL     0.0044
      8 C          -6.5524  -33.3005   20.7532 C.ar      1 MOL    -0.0391
      9 C          -6.3325  -32.6743   21.9549 C.ar      1 MOL     0.0044
     10 C          -5.8541  -31.3817   21.9802 C.ar      1 MOL     0.0037
     11 C          -7.0641  -34.6814   20.7518 C.3       1 MOL     0.0614
     12 C          -8.2061  -34.7922   21.7616 C.3       1 MOL     0.0185
     13 C          -7.5661  -34.9649   19.3751 C.2       1 MOL     0.0489
     14 O          -8.6315  -34.4752   18.9731 O.co2     1 MOL    -0.5492
     15 O          -6.8278  -35.7769   18.5625 O.co2     1 MOL    -0.5492
     16 H          -6.2757  -26.4170   22.0418 H         1 MOL     0.0232
     17 H          -4.8487  -26.6729   21.0657 H         1 MOL     0.0232
     18 H          -4.9681  -27.4059   22.6474 H         1 MOL     0.0232
     19 H          -6.8086  -28.7829   21.8774 H         1 MOL     0.0299
     20 H          -6.3327  -27.5116   19.2306 H         1 MOL     0.0232
     21 H          -7.7278  -27.2711   20.2542 H         1 MOL     0.0232
     22 H          -7.4176  -28.8422   19.5551 H         1 MOL     0.0232
     23 H          -4.2683  -29.2345   21.4836 H         1 MOL     0.0316
     24 H          -4.7458  -29.0958   19.7959 H         1 MOL     0.0316
     25 H          -5.6244  -30.8532   18.7270 H         1 MOL     0.0620
     26 H          -6.4534  -33.0925   18.6780 H         1 MOL     0.0621
     27 H          -6.5249  -33.1706   22.8392 H         1 MOL     0.0621
     28 H          -5.6905  -30.9140   22.8855 H         1 MOL     0.0620
     29 H          -6.3011  -35.3816   21.0213 H         1 MOL     0.0406
     30 H          -8.9777  -34.0965   21.5049 H         1 MOL     0.0239
     31 H          -7.8373  -34.5698   22.7414 H         1 MOL     0.0239
     32 H          -8.6006  -35.7863   21.7459 H         1 MOL     0.0239
@<TRIPOS>BOND
     1    1    2 1 
     2    1   16 1 
     3    1   17 1 
     4    1   18 1 
     5    2    3 1 
     6    2    4 1 
     7    2   19 1 
     8    3   20 1 
     9    3   21 1 
    10    3   22 1 
    11    4    5 1 
    12    4   23 1 
    13    4   24 1 
    14    5    6 ar
    15    5   10 ar
    16    6    7 ar
    17    6   25 1 
    18    7    8 ar
    19    7   26 1 
    20    8    9 ar
    21    8   11 1 
    22    9   10 ar
    23    9   27 1 
    24   10   28 1 
    25   11   12 1 
    26   11   13 1 
    27   11   29 1 
    28   12   30 1 
    29   12   31 1 
    30   12   32 1 
    31   13   14 ar
    32   13   15 ar
@<TRIPOS>SUBSTRUCTURE
1 MOL         1
@<TRIPOS>MOLECULE
query molecule
   32    32     1     0     0
SMALL
NO_CHARGE

@<TRIPOS>ATOM
      1 C         -57.1902  -62.4923  -28.9698 C.3       1 MOL     0.0072
      2 C         -57.1400  -61.0108  -28.7403 C.3       1 MOL    -0.0128
      3 C         -56.3734  -60.3295  -29.8287 C.3       1 MOL     0.0072
      4 C         -58.5425  -60.4749  -28.6663 C.3       1 MOL     0.0379
      5 C         -58.6852  -59.4966  -27.5605 C.ar      1 MOL    -0.0471
      6 C         -59.7638  -59.6128  -26.7147 C.ar      1 MOL     0.0037
      7 C         -59.9360  -58.7346  -25.6833 C.ar      1 MOL     0.0044
      8 C         -59.0349  -57.7198  -25.4721 C.ar      1 MOL    -0.0391
      9 C         -57.9542  -57.5943  -26.3094 C.ar      1 MOL     0.0044
     10 C         -57.7829  -58.4819  -27.3502 C.ar      1 MOL     0.0037
     11 C         -59.1965  -56.7593  -24.3676 C.3       1 MOL     0.0614
     12 C         -57.8430  -56.5431  -23.6912 C.3       1 MOL     0.0185
     13 C         -59.6840  -55.4803  -24.9624 C.2       1 MOL     0.0489
     14 O         -59.0357  -54.9022  -25.8468 O.co2     1 MOL    -0.5492
     15 O         -60.8620  -54.9555  -24.5133 O.co2     1 MOL    -0.5492
     16 H         -56.1930  -62.8785  -29.0234 H         1 MOL     0.0232
     17 H         -57.7006  -62.6941  -29.8883 H         1 MOL     0.0232
     18 H         -57.7111  -62.9604  -28.1613 H         1 MOL     0.0232
     19 H         -56.6362  -60.8151  -27.8175 H         1 MOL     0.0299
     20 H         -56.8543  -60.5071  -30.7681 H         1 MOL     0.0232
     21 H         -55.3770  -60.7178  -29.8596 H         1 MOL     0.0232
     22 H         -56.3408  -59.2772  -29.6383 H         1 MOL     0.0232
     23 H         -59.2188  -61.2874  -28.5032 H         1 MOL     0.0316
     24 H         -58.7644  -59.9789  -29.5881 H         1 MOL     0.0316
     25 H         -60.4497  -60.3700  -26.8615 H         1 MOL     0.0620
     26 H         -60.7507  -58.8347  -25.0571 H         1 MOL     0.0621
     27 H         -57.2699  -56.8361  -26.1601 H         1 MOL     0.0621
     28 H         -56.9696  -58.3841  -27.9779 H         1 MOL     0.0620
     29 H         -59.8903  -57.1178  -23.6358 H         1 MOL     0.0406
     30 H         -57.1377  -56.1844  -24.4118 H         1 MOL     0.0239
     31 H         -57.4965  -57.4704  -23.2843 H         1 MOL     0.0239
     32 H         -57.9480  -55.8254  -22.9051 H         1 MOL     0.0239
@<TRIPOS>BOND
     1    1    2 1 
     2    1   16 1 
     3    1   17 1 
     4    1   18 1 
     5    2    3 1 
     6    2    4 1 
     7    2   19 1 
     8    3   20 1 
     9    3   21 1 
    10    3   22 1 
    11    4    5 1 
    12    4   23 1 
    13    4   24 1 
    14    5    6 ar
    15    5   10 ar
    16    6    7 ar
    17    6   25 1 
    18    7    8 ar
    19    7   26 1 
    20    8    9 ar
    21    8   11 1 
    22    9   10 ar
    23    9   27 1 
    24   10   28 1 
    25   11   12 1 
    26   11   13 1 
    27   11   29 1 
    28   12   30 1 
    29   12   31 1 
    30   12   32 1 
    31   13   14 ar
    32   13   15 ar
@<TRIPOS>SUBSTRUCTURE
1 MOL         1
@<TRIPOS>MOLECULE
query molecule
   32    32     1     0     0
SMALL
NO_CHARGE

@<TRIPOS>ATOM
      1 C         -64.1994  -37.6251   11.1066 C.3       1 MOL     0.0072
      2 C         -63.6252  -38.0878    9.8004 C.3       1 MOL    -0.0128
      3 C         -62.5787  -39.1333   10.0198 C.3       1 MOL     0.0072
      4 C         -64.7328  -38.6217    8.9357 C.3       1 MOL     0.0379
      5 C         -65.7130  -37.5593    8.6028 C.ar      1 MOL    -0.0471
      6 C         -66.9213  -37.5500    9.2601 C.ar      1 MOL     0.0037
      7 C         -67.8542  -36.5912    8.9859 C.ar      1 MOL     0.0044
      8 C         -67.6022  -35.6192    8.0487 C.ar      1 MOL    -0.0391
      9 C         -66.3996  -35.6181    7.3868 C.ar      1 MOL     0.0044
     10 C         -65.4597  -36.5874    7.6652 C.ar      1 MOL     0.0037
     11 C         -68.5905  -34.5738    7.7339 C.3       1 MOL     0.0614
     12 C         -69.9753  -35.2115    7.6255 C.3       1 MOL     0.0185
     13 C         -68.5643  -33.5892    8.8552 C.2       1 MOL     0.0489
     14 O         -68.8387  -33.9364   10.0131 O.co2     1 MOL    -0.5492
     15 O         -68.2313  -32.2933    8.5821 O.co2     1 MOL    -0.5492
     16 H         -63.4137  -37.2441   11.7261 H         1 MOL     0.0232
     17 H         -64.6745  -38.4477   11.5990 H         1 MOL     0.0232
     18 H         -64.9178  -36.8534   10.9264 H         1 MOL     0.0232
     19 H         -63.1587  -37.2604    9.3089 H         1 MOL     0.0299
     20 H         -63.0160  -39.9773   10.5115 H         1 MOL     0.0232
     21 H         -61.7963  -38.7321   10.6292 H         1 MOL     0.0232
     22 H         -62.1759  -39.4393    9.0771 H         1 MOL     0.0232
     23 H         -65.2348  -39.4089    9.4576 H         1 MOL     0.0316
     24 H         -64.3055  -38.9858    8.0248 H         1 MOL     0.0316
     25 H         -67.1250  -38.2745    9.9664 H         1 MOL     0.0620
     26 H         -68.7566  -36.5975    9.4874 H         1 MOL     0.0621
     27 H         -66.1986  -34.8922    6.6811 H         1 MOL     0.0621
     28 H         -64.5569  -36.5837    7.1652 H         1 MOL     0.0620
     29 H         -68.3648  -34.0885    6.8071 H         1 MOL     0.0406
     30 H         -70.2150  -35.7016    8.5462 H         1 MOL     0.0239
     31 H         -69.9760  -35.9273    6.8299 H         1 MOL     0.0239
     32 H         -70.7022  -34.4531    7.4239 H         1 MOL     0.0239
@<TRIPOS>BOND
     1    1    2 1 
     2    1   16 1 
     3    1   17 1 
     4    1   18 1 
     5    2    3 1 
     6    2    4 1 
     7    2   19 1 
     8    3   20 1 
     9    3   21 1 
    10    3   22 1 
    11    4    5 1 
    12    4   23 1 
    13    4   24 1 
    14    5    6 ar
    15    5   10 ar
    16    6    7 ar
    17    6   25 1 
    18    7    8 ar
    19    7   26 1 
    20    8    9 ar
    21    8   11 1 
    22    9   10 ar
    23    9   27 1 
    24   10   28 1 
    25   11   12 1 
    26   11   13 1 
    27   11   29 1 
    28   12   30 1 
    29   12   31 1 
    30   12   32 1 
    31   13   14 ar
    32   13   15 ar
@<TRIPOS>SUBSTRUCTURE
1 MOL         1
@<TRIPOS>MOLECULE
query molecule
   32    32     1     0     0
SMALL
NO_CHARGE

@<TRIPOS>ATOM
      1 C         -45.4237  -28.2158  -17.1395 C.3       1 MOL     0.0072
      2 C         -46.3248  -29.3408  -16.7244 C.3       1 MOL    -0.0128
      3 C         -45.5326  -30.4750  -16.1565 C.3       1 MOL     0.0072
      4 C         -47.3172  -28.8323  -15.7164 C.3       1 MOL     0.0379
      5 C         -48.6185  -28.5191  -16.3558 C.ar      1 MOL    -0.0471
      6 C         -49.1250  -27.2466  -16.2273 C.ar      1 MOL     0.0037
      7 C         -50.3195  -26.9131  -16.7989 C.ar      1 MOL     0.0044
      8 C         -51.0362  -27.8426  -17.5122 C.ar      1 MOL    -0.0391
      9 C         -50.5404  -29.1156  -17.6476 C.ar      1 MOL     0.0044
     10 C         -49.3345  -29.4498  -17.0693 C.ar      1 MOL     0.0037
     11 C         -52.3267  -27.5096  -18.1387 C.3       1 MOL     0.0614
     12 C         -52.4320  -25.9923  -18.2899 C.3       1 MOL     0.0185
     13 C         -52.3477  -28.1626  -19.4805 C.2       1 MOL     0.0489
     14 O         -52.7916  -29.3112  -19.6222 O.co2     1 MOL    -0.5492
     15 O         -51.8670  -27.4694  -20.5545 O.co2     1 MOL    -0.5492
     16 H         -44.7147  -28.5736  -17.8576 H         1 MOL     0.0232
     17 H         -44.9046  -27.8395  -16.2829 H         1 MOL     0.0232
     18 H         -46.0087  -27.4332  -17.5751 H         1 MOL     0.0232
     19 H         -46.8468  -29.7078  -17.5825 H         1 MOL     0.0299
     20 H         -44.9970  -30.1384  -15.2933 H         1 MOL     0.0232
     21 H         -44.8391  -30.8282  -16.8905 H         1 MOL     0.0232
     22 H         -46.1936  -31.2690  -15.8786 H         1 MOL     0.0232
     23 H         -46.9294  -27.9454  -15.2611 H         1 MOL     0.0316
     24 H         -47.4752  -29.5947  -14.9826 H         1 MOL     0.0316
     25 H         -48.5979  -26.5377  -15.6936 H         1 MOL     0.0620
     26 H         -50.6867  -25.9540  -16.6935 H         1 MOL     0.0621
     27 H         -51.0697  -29.8223  -18.1822 H         1 MOL     0.0621
     28 H         -48.9651  -30.4079  -17.1729 H         1 MOL     0.0620
     29 H         -53.1493  -27.8513  -17.5455 H         1 MOL     0.0406
     30 H         -51.6147  -25.6354  -18.8814 H         1 MOL     0.0239
     31 H         -52.3983  -25.5352  -17.3228 H         1 MOL     0.0239
     32 H         -53.3556  -25.7451  -18.7695 H         1 MOL     0.0239
@<TRIPOS>BOND
     1    1    2 1 
     2    1   16 1 
     3    1   17 1 
     4    1   18 1 
     5    2    3 1 
     6    2    4 1 
     7    2   19 1 
     8    3   20 1 
     9    3   21 1 
    10    3   22 1 
    11    4    5 1 
    12    4   23 1 
    13    4   24 1 
    14    5    6 ar
    15    5   10 ar
    16    6    7 ar
    17    6   25 1 
    18    7    8 ar
    19    7   26 1 
    20    8    9 ar
    21    8   11 1 
    22    9   10 ar
    23    9   27 1 
    24   10   28 1 
    25   11   12 1 
    26   11   13 1 
    27   11   29 1 
    28   12   30 1 
    29   12   31 1 
    30   12   32 1 
    31   13   14 ar
    32   13   15 ar
@<TRIPOS>SUBSTRUCTURE
1 MOL         1
