@<TRIPOS>MOLECULE
aspirin_entry_00001_conf_04_protein
26 15 11
SMALL
NO_CHARGES


@<TRIPOS>ATOM
      1 HZ1        -0.2062   12.7704    8.2717 H         6 LYS6       -0.0901
      2 NZ          0.7290   12.4920    8.0610 N.4       6 LYS6        0.3781
      3 HZ2         0.8082   11.4993    8.1218 H         6 LYS6       -0.0901
      4 HZ3         1.3624   12.9216    8.7020 H         6 LYS6       -0.0901
      5 HG1         0.4763   19.9347   -2.6789 H        12 THR12       0.2099
      6 OG1         0.8130   20.6350   -3.3170 O.3      12 THR12      -0.3897
      7 HG         -1.1389    6.7469   -1.3344 H        18 SER18       0.2095
      8 OG         -0.6150    7.3650   -1.9170 O.3      18 SER18      -0.3927
      9 HH         22.7818   17.4516   -5.2454 H        28 TYR28       0.2921
     10 OH         22.2670   17.1330   -6.0410 O.3      28 TYR28      -0.5068
     11 HZ1        15.3464   10.5526    6.4295 H        31 LYS31      -0.0901
     12 NZ         16.3160   10.5650    6.1960 N.4      31 LYS31       0.3781
     13 HZ2        16.8109   11.1505    6.8338 H        31 LYS31      -0.0901
     14 HZ3        16.4368   10.9007    5.2638 H        31 LYS31      -0.0901
     15 HG         25.1807   12.2929   -3.8673 H        34 SER34       0.2095
     16 OG         24.5230   12.7050   -3.2370 O.3      34 SER34      -0.3927
     17 HH         10.8484   21.5565    6.1482 H        52 TYR52       0.2921
     18 OH         11.0460   21.3600    5.1880 O.3      52 TYR52      -0.5068
     19 HH         15.1006   15.5654    4.8855 H        64 TYR64       0.2921
     20 OH         15.8460   15.9090    5.4550 O.3      64 TYR64      -0.5068
     21 HH          0.8391   21.7518    7.7683 H        70 TYR70       0.2921
     22 OH          0.0580   22.2220    7.3660 O.3      70 TYR70      -0.5068
     23 HH          6.6567    7.3513   -7.0917 H       106 TYR106      0.2921
     24 OH          6.5520    8.2720   -6.7200 O.3     106 TYR106     -0.5068
     25 HH          8.7555    4.6534   -1.2424 H       111 TYR111      0.2921
     26 OH          7.9460    4.5620   -1.8170 O.3     111 TYR111     -0.5068
@<TRIPOS>BOND
     1    9   10 1
     2   24   23 1
     3   15   16 1
     4    5    6 1
     5    7    8 1
     6   26   25 1
     7   17   18 1
     8   19   20 1
     9   11   12 1
    10   12   13 1
    11   12   14 1
    12   21   22 1
    13    4    2 1
    14    2    3 1
    15    2    1 1
@<TRIPOS>SUBSTRUCTURE
6 LYS6 1
12 THR12 5
18 SER18 7
28 TYR28 9
31 LYS31 11
34 SER34 15
52 TYR52 17
64 TYR64 19
70 TYR70 21
106 TYR106 23
111 TYR111 25
@<TRIPOS>COMMENT
