@<TRIPOS>MOLECULE
aspirin_entry_00001_conf_01_protein
26 15 11
SMALL
NO_CHARGES


@<TRIPOS>ATOM
      1 HZ1         0.4499   13.2886    8.5941 H         6 LYS6       -0.0901
      2 NZ          0.7290   12.4920    8.0610 N.4       6 LYS6        0.3781
      3 HZ2        -0.0177   11.8314    8.0238 H         6 LYS6       -0.0901
      4 HZ3         1.5326   12.0708    8.4775 H         6 LYS6       -0.0901
      5 HG1         0.6663   19.7332   -3.7368 H        12 THR12       0.2099
      6 OG1         0.8130   20.6350   -3.3170 O.3      12 THR12      -0.3897
      7 HG         -1.3944    7.8533   -2.3043 H        18 SER18       0.2095
      8 OG         -0.6150    7.3650   -1.9170 O.3      18 SER18      -0.3927
      9 HH         22.2593   17.7490   -6.8284 H        28 TYR28       0.2921
     10 OH         22.2670   17.1330   -6.0410 O.3      28 TYR28      -0.5068
     11 HZ1        15.4422   10.6062    6.6751 H        31 LYS31      -0.0901
     12 NZ         16.3160   10.5650    6.1960 N.4      31 LYS31       0.3781
     13 HZ2        16.9636   11.1958    6.6170 H        31 LYS31      -0.0901
     14 HZ3        16.1880   10.8018    5.2349 H        31 LYS31      -0.0901
     15 HG         23.6076   12.4713   -2.9098 H        34 SER34       0.2095
     16 OG         24.5230   12.7050   -3.2370 O.3      34 SER34      -0.3927
     17 HH         11.0543   20.6303    5.8714 H        52 TYR52       0.2921
     18 OH         11.0460   21.3600    5.1880 O.3      52 TYR52      -0.5068
     19 HH         15.1156   15.7348    4.7961 H        64 TYR64       0.2921
     20 OH         15.8460   15.9090    5.4550 O.3      64 TYR64      -0.5068
     21 HH         -0.0654   21.7929    6.4751 H        70 TYR70       0.2921
     22 OH          0.0580   22.2220    7.3660 O.3      70 TYR70      -0.5068
     23 HH          6.4484    7.3245   -7.0174 H       106 TYR106      0.2921
     24 OH          6.5520    8.2720   -6.7200 O.3     106 TYR106     -0.5068
     25 HH          7.2838    5.2290   -1.4848 H       111 TYR111      0.2921
     26 OH          7.9460    4.5620   -1.8170 O.3     111 TYR111     -0.5068
@<TRIPOS>BOND
     1    9   10 1
     2   24   23 1
     3   15   16 1
     4    5    6 1
     5    7    8 1
     6   26   25 1
     7   17   18 1
     8   19   20 1
     9   11   12 1
    10   12   13 1
    11   12   14 1
    12   21   22 1
    13    4    2 1
    14    2    3 1
    15    2    1 1
@<TRIPOS>SUBSTRUCTURE
6 LYS6 1
12 THR12 5
18 SER18 7
28 TYR28 9
31 LYS31 11
34 SER34 15
52 TYR52 17
64 TYR64 19
70 TYR70 21
106 TYR106 23
111 TYR111 25
@<TRIPOS>COMMENT
