@<TRIPOS>MOLECULE
aspirin_entry_00001_conf_76_protein
58 34 24
SMALL
NO_CHARGES


@<TRIPOS>ATOM
      1 HH         -1.8762   15.8352   11.2603 H         3 TYR3        0.0000
      2 OH         -1.6020   16.7770   11.4470 O.3       3 TYR3        0.0000
      3 HZ1         1.5716   12.2819    8.5535 H         6 LYS6        0.0000
      4 NZ          0.7290   12.4920    8.0610 N.4       6 LYS6        1.0000
      5 HZ2         0.2413   13.2289    8.5242 H         6 LYS6        0.0000
      6 HZ3         0.1510   11.6792    8.0174 H         6 LYS6        0.0000
      7 HG         -2.3994   13.2479   -7.8337 H        15 SER15       0.0000
      8 OG         -3.1540   13.8910   -7.9560 O.3      15 SER15       0.0000
      9 HG         -0.0038    6.9003   -2.5545 H        18 SER18       0.0000
     10 OG         -0.6150    7.3650   -1.9170 O.3      18 SER18       0.0000
     11 HH         10.5175   11.9364  -11.7737 H        25 TYR25       0.0000
     12 OH          9.8250   11.3330  -11.3900 O.3      25 TYR25       0.0000
     13 HH         22.6525   16.3372   -6.5076 H        28 TYR28       0.0000
     14 OH         22.2670   17.1330   -6.0410 O.3      28 TYR28       0.0000
     15 HZ1        15.9404   10.7087    5.2833 H        31 LYS31       0.0000
     16 NZ         16.3160   10.5650    6.1960 N.4      31 LYS31       1.0000
     17 HZ2        15.5993   10.6811    6.8797 H        31 LYS31       0.0000
     18 HZ3        17.0548   11.2144    6.3655 H        31 LYS31       0.0000
     19 HG         23.5531   12.4771   -3.1537 H        34 SER34       0.0000
     20 OG         24.5230   12.7050   -3.2370 O.3      34 SER34       0.0000
     21 HG1        24.4659   15.9694  -11.6685 H        36 THR36       0.0000
     22 OG1        24.1270   15.4830  -12.4810 O.3      36 THR36       0.0000
     23 HH         10.4375   21.7168    4.4795 H        52 TYR52       0.0000
     24 OH         11.0460   21.3600    5.1880 O.3      52 TYR52       0.0000
     25 HG         21.6484   32.2564   17.2593 H        59 SER59       0.0000
     26 OG         21.4070   31.5140   16.6380 O.3      59 SER59       0.0000
     27 HH         16.7890   16.2092    5.3183 H        64 TYR64       0.0000
     28 OH         15.8460   15.9090    5.4550 O.3      64 TYR64       0.0000
     29 HZ1         9.3195   28.7908   15.9946 H        66 LYS66       0.0000
     30 NZ         10.1520   29.1670   15.6030 N.4      66 LYS66       1.0000
     31 HZ2        10.9531   28.7682   16.0357 H        66 LYS66       0.0000
     32 HZ3        10.1631   30.1559   15.6920 H        66 LYS66       0.0000
     33 HG1         5.6031   22.9410   15.7140 H        67 THR67       0.0000
     34 OG1         6.3160   23.3030   15.1040 O.3      67 THR67       0.0000
     35 HG          0.3934   31.9962   11.2763 H        69 SER69       0.0000
     36 OG          0.5240   31.0060   11.2580 O.3      69 SER69       0.0000
     37 HH         -0.7633   22.1711    7.9280 H        70 TYR70       0.0000
     38 OH          0.0580   22.2220    7.3660 O.3      70 TYR70       0.0000
     39 HG1        -7.2412   29.5455    2.9173 H        73 THR73       0.0000
     40 OG1        -7.4680   28.6970    3.4100 O.3      73 THR73       0.0000
     41 HG1        -5.2180   29.5097   -3.8814 H        76 THR76       0.0000
     42 OG1        -5.5890   30.0600   -3.1300 O.3      76 THR76       0.0000
     43 HG1        -2.1675   31.3606    0.9476 H        78 THR78       0.0000
     44 OG1        -2.4070   31.9470    1.7280 O.3      78 THR78       0.0000
     45 HZ1        -3.3260   31.5520   11.0407 H        80 LYS80       0.0000
     46 NZ         -3.8080   31.2920   10.2060 N.4      80 LYS80       1.0000
     47 HZ2        -4.7121   31.7171   10.1935 H        80 LYS80       0.0000
     48 HZ3        -3.9025   30.2985   10.1667 H        80 LYS80       0.0000
     49 HG         14.4038   32.8143    6.6811 H        89 SER89       0.0000
     50 OG         13.9740   32.5660    5.8140 O.3      89 SER89       0.0000
     51 HH          6.6793    7.3566   -7.0977 H       106 TYR106      0.0000
     52 OH          6.5520    8.2720   -6.7200 O.3     106 TYR106      0.0000
     53 HH          8.6632    3.9916   -1.4245 H       111 TYR111      0.0000
     54 OH          7.9460    4.5620   -1.8170 O.3     111 TYR111      0.0000
     55 HZ1        28.1515    0.8280   -3.6179 H       116 LYS116      0.0000
     56 NZ         28.8420    1.3950   -3.1800 N.4     116 LYS116      1.0000
     57 HZ2        29.0824    2.1607   -3.7696 H       116 LYS116      0.0000
     58 HZ3        29.6512    0.8537   -2.9712 H       116 LYS116      0.0000
@<TRIPOS>BOND
     1    2    1 1
     2    4    5 1
     3    4    3 1
     4    4    6 1
     5    8    7 1
     6   10    9 1
     7   12   11 1
     8   14   13 1
     9   16   15 1
    10   16   17 1
    11   16   18 1
    12   20   19 1
    13   22   21 1
    14   24   23 1
    15   26   25 1
    16   28   27 1
    17   30   29 1
    18   30   31 1
    19   30   32 1
    20   34   33 1
    21   36   35 1
    22   38   37 1
    23   40   39 1
    24   42   41 1
    25   44   43 1
    26   46   45 1
    27   46   48 1
    28   46   47 1
    29   50   49 1
    30   52   51 1
    31   54   53 1
    32   56   55 1
    33   56   57 1
    34   56   58 1
@<TRIPOS>SUBSTRUCTURE
3 TYR3 1
6 LYS6 3
15 SER15 7
18 SER18 9
25 TYR25 11
28 TYR28 13
31 LYS31 15
34 SER34 19
36 THR36 21
52 TYR52 23
59 SER59 25
64 TYR64 27
66 LYS66 29
67 THR67 33
69 SER69 35
70 TYR70 37
73 THR73 39
76 THR76 41
78 THR78 43
80 LYS80 45
89 SER89 49
106 TYR106 51
111 TYR111 53
116 LYS116 55
@<TRIPOS>COMMENT
