@<TRIPOS>MOLECULE
aspirin_entry_00001_conf_73
20 20 1
SMALL
NO_CHARGES


@<TRIPOS>ATOM
      1 C          15.6597   29.5591    3.6334 C.3       1 UNL1        0.0000
      2 C          16.2879   30.8965    3.4863 C.2       1 UNL1        0.0000
      3 C          14.5213   31.8617    2.1117 C.ar      1 UNL1        0.0000
      4 C          13.9484   30.7643    1.5047 C.ar      1 UNL1        0.0000
      5 C          12.7013   30.7865    0.9124 C.ar      1 UNL1        0.0000
      6 C          11.9953   31.9649    0.9308 C.ar      1 UNL1        0.0000
      7 C          12.5211   33.0920    1.5237 C.ar      1 UNL1        0.0000
      8 C          13.7850   33.0305    2.1125 C.ar      1 UNL1        0.0000
      9 C          14.3043   34.2454    2.7289 C.2       1 UNL1        0.0000
     10 O          17.3677   31.2115    4.0725 O.2       1 UNL1        0.0000
     11 O          15.7520   31.8849    2.7098 O.3       1 UNL1        0.0000
     12 O          13.5809   35.2662    2.8568 O.co2     1 UNL1       -0.5000
     13 O          15.6068   34.3230    3.1926 O.co2     1 UNL1       -0.5000
     14 H          16.2557   28.9557    4.2857 H         1 UNL1        0.0000
     15 H          15.5934   29.0892    2.6746 H         1 UNL1        0.0000
     16 H          14.6787   29.6696    4.0452 H         1 UNL1        0.0000
     17 H          14.4796   29.8799    1.4923 H         1 UNL1        0.0000
     18 H          12.3097   29.9403    0.4689 H         1 UNL1        0.0000
     19 H          11.0607   32.0071    0.4951 H         1 UNL1        0.0000
     20 H          11.9846   33.9739    1.5338 H         1 UNL1        0.0000
@<TRIPOS>BOND
     1    1    2 1
     2    1   14 1
     3    1   15 1
     4    1   16 1
     5    2   10 2
     6    2   11 1
     7    3    4 ar
     8    3    8 ar
     9    3   11 1
    10    4    5 ar
    11    4   17 1
    12    5    6 ar
    13    5   18 1
    14    6    7 ar
    15    6   19 1
    16    7    8 ar
    17    7   20 1
    18    8    9 1
    19    9   12 ar
    20    9   13 ar
@<TRIPOS>SUBSTRUCTURE
1 UNL1 1
@<TRIPOS>COMMENT
aspirin
PLANTSproteinTorsions
24
56 92.4630
113 129.3713
248 191.3712
285 113.2159
405 48.4460
445 194.0053
481 177.5901
510 319.4644
526 139.4745
772 49.4233
870 260.9807
949 37.7609
988 83.2146
1001 182.1819
1037 230.5129
1061 112.4101
1095 84.2946
1133 219.6821
1166 304.0494
1200 7.0002
1301 86.1184
1539 122.8004
1611 351.7190
1693 92.6771
PLANTSmolcadARTstart hb
PLANTSmolcadARTstart HB
LINES
PLANTSmolcadARTstart HBCH
LINES
PLANTSmolcadARTstart HB-CHO
LINES
PLANTSmolcadARTend
PLANTSmolcadARTstart HB_WATER
LINES
PLANTSmolcadARTend

PLANTSmolcadARTend

