@<TRIPOS>MOLECULE
aspirin_entry_00001_conf_04
20 20 1
SMALL
NO_CHARGES


@<TRIPOS>ATOM
      1 C          13.9571   26.5723   15.4664 C.3       1 UNL1        0.0000
      2 C          12.7086   26.2809   16.2154 C.2       1 UNL1        0.0000
      3 C          10.9113   24.7367   16.7879 C.ar      1 UNL1        0.0000
      4 C           9.7828   25.5287   16.7736 C.ar      1 UNL1        0.0000
      5 C           8.5926   25.1689   17.3741 C.ar      1 UNL1        0.0000
      6 C           8.5316   23.9572   18.0186 C.ar      1 UNL1        0.0000
      7 C           9.6303   23.1270   18.0636 C.ar      1 UNL1        0.0000
      8 C          10.8160   23.5251   17.4444 C.ar      1 UNL1        0.0000
      9 C          11.9546   22.6173   17.5155 C.2       1 UNL1        0.0000
     10 O          12.1124   27.1551   16.9147 O.2       1 UNL1        0.0000
     11 O          12.1095   25.0529   16.2069 O.3       1 UNL1        0.0000
     12 O          13.1168   23.0147   17.2457 O.co2     1 UNL1       -0.5000
     13 O          11.8012   21.2897   17.8785 O.co2     1 UNL1       -0.5000
     14 H          14.2353   27.5937   15.6218 H         1 UNL1        0.0000
     15 H          13.7945   26.4019   14.4228 H         1 UNL1        0.0000
     16 H          14.7395   25.9315   15.8148 H         1 UNL1        0.0000
     17 H           9.8300   26.4381   16.2884 H         1 UNL1        0.0000
     18 H           7.7708   25.7930   17.3388 H         1 UNL1        0.0000
     19 H           7.6532   23.6652   18.4751 H         1 UNL1        0.0000
     20 H           9.5768   22.2178   18.5497 H         1 UNL1        0.0000
@<TRIPOS>BOND
     1    1    2 1
     2    1   14 1
     3    1   15 1
     4    1   16 1
     5    2   10 2
     6    2   11 1
     7    3    4 ar
     8    3    8 ar
     9    3   11 1
    10    4    5 ar
    11    4   17 1
    12    5    6 ar
    13    5   18 1
    14    6    7 ar
    15    6   19 1
    16    7    8 ar
    17    7   20 1
    18    8    9 1
    19    9   12 ar
    20    9   13 ar
@<TRIPOS>SUBSTRUCTURE
1 UNL1 1
@<TRIPOS>COMMENT
aspirin
PLANTSproteinTorsions
24
56 71.2687
113 8.0246
248 177.9687
285 34.1990
405 103.7161
445 17.0905
481 0.3921
510 232.0464
526 36.3354
772 99.4451
870 213.0272
949 318.0644
988 102.6381
1001 301.3842
1037 202.6860
1061 201.3277
1095 149.3999
1133 140.4643
1166 286.0449
1200 14.9425
1301 236.8522
1539 92.1473
1611 78.9245
1693 91.2480
PLANTSmolcadARTstart hb
PLANTSmolcadARTstart HB
LINES
12.1124 27.1551 16.9147 10.7809 28.5629 16.0801 0 255 0 5
PLANTSmolcadARTstart HBCH
LINES
13.1168 23.0147 17.2457 15.119 22.973 16.622 255 0 0 5
13.1168 23.0147 17.2457 14.374 24.398 18.177 255 0 0 5
PLANTSmolcadARTstart HB-CHO
LINES
PLANTSmolcadARTend
PLANTSmolcadARTstart HB_WATER
LINES
PLANTSmolcadARTend

PLANTSmolcadARTend

