@<TRIPOS>MOLECULE
aspirin_entry_00001_conf_52
20 20 1
SMALL
NO_CHARGES


@<TRIPOS>ATOM
      1 C          -3.4613   31.7829   -6.4371 C.3       1 UNL1        0.0000
      2 C          -3.1117   30.4466   -5.8921 C.2       1 UNL1        0.0000
      3 C          -1.4287   28.8607   -5.1209 C.ar      1 UNL1        0.0000
      4 C          -1.8815   27.6391   -5.5720 C.ar      1 UNL1        0.0000
      5 C          -1.4490   26.4311   -5.0617 C.ar      1 UNL1        0.0000
      6 C          -0.5178   26.4497   -4.0518 C.ar      1 UNL1        0.0000
      7 C          -0.0320   27.6430   -3.5633 C.ar      1 UNL1        0.0000
      8 C          -0.4930   28.8438   -4.1049 C.ar      1 UNL1        0.0000
      9 C           0.0466   30.0835   -3.5594 C.2       1 UNL1        0.0000
     10 O          -3.9827   29.5532   -5.6643 O.2       1 UNL1        0.0000
     11 O          -1.8290   30.0799   -5.5967 O.3       1 UNL1        0.0000
     12 O          -0.5221   31.1850   -3.7710 O.co2     1 UNL1       -0.5000
     13 O           1.2003   30.0966   -2.7937 O.co2     1 UNL1       -0.5000
     14 H          -4.5190   31.8396   -6.5893 H         1 UNL1        0.0000
     15 H          -2.9585   31.9299   -7.3699 H         1 UNL1        0.0000
     16 H          -3.1584   32.5403   -5.7452 H         1 UNL1        0.0000
     17 H          -2.5803   27.6268   -6.3310 H         1 UNL1        0.0000
     18 H          -1.8147   25.5385   -5.4297 H         1 UNL1        0.0000
     19 H          -0.1783   25.5601   -3.6537 H         1 UNL1        0.0000
     20 H           0.6678   27.6490   -2.8044 H         1 UNL1        0.0000
@<TRIPOS>BOND
     1    1    2 1
     2    1   14 1
     3    1   15 1
     4    1   16 1
     5    2   10 2
     6    2   11 1
     7    3    4 ar
     8    3    8 ar
     9    3   11 1
    10    4    5 ar
    11    4   17 1
    12    5    6 ar
    13    5   18 1
    14    6    7 ar
    15    6   19 1
    16    7    8 ar
    17    7   20 1
    18    8    9 1
    19    9   12 ar
    20    9   13 ar
@<TRIPOS>SUBSTRUCTURE
1 UNL1 1
@<TRIPOS>COMMENT
aspirin
PLANTSproteinTorsions
24
56 276.5495
113 35.8723
248 191.4988
285 268.1049
405 192.4324
445 329.7693
481 226.9744
510 229.7224
526 351.3452
772 36.4438
870 248.5948
949 100.8949
988 138.8670
1001 212.7070
1037 191.3487
1061 73.8106
1095 45.6488
1133 257.5167
1166 133.3483
1200 141.4614
1301 167.3360
1539 270.6146
1611 267.5540
1693 264.0983
PLANTSmolcadARTstart hb
PLANTSmolcadARTstart HB
LINES
-3.98274 29.5532 -5.66433 -5.08644 29.6698 -3.90475 0 255 0 5
PLANTSmolcadARTstart HBCH
LINES
1.2003 30.0966 -2.79366 3.241 30.362 -2.48 255 0 0 5
PLANTSmolcadARTstart HB-CHO
LINES
PLANTSmolcadARTend
PLANTSmolcadARTstart HB_WATER
LINES
PLANTSmolcadARTend

PLANTSmolcadARTend

