@<TRIPOS>MOLECULE
aspirin_entry_00001_conf_55
20 20 1
SMALL
NO_CHARGES


@<TRIPOS>ATOM
      1 C          -5.1408    6.9242   -0.8460 C.3       1 UNL1        0.0000
      2 C          -3.9843    7.5822   -0.1868 C.2       1 UNL1        0.0000
      3 C          -3.0189    9.5287    0.9183 C.ar      1 UNL1        0.0000
      4 C          -2.1365    8.9415    1.8002 C.ar      1 UNL1        0.0000
      5 C          -1.1431    9.6376    2.4599 C.ar      1 UNL1        0.0000
      6 C          -1.0292   10.9860    2.2232 C.ar      1 UNL1        0.0000
      7 C          -1.8853   11.6232    1.3516 C.ar      1 UNL1        0.0000
      8 C          -2.8769   10.8857    0.7030 C.ar      1 UNL1        0.0000
      9 C          -3.7615   11.5983   -0.2109 C.2       1 UNL1        0.0000
     10 O          -2.8856    6.9834    0.0206 O.2       1 UNL1        0.0000
     11 O          -4.0165    8.8785    0.2436 O.3       1 UNL1        0.0000
     12 O          -3.7729   12.8551   -0.2522 O.co2     1 UNL1       -0.5000
     13 O          -4.6199   10.9231   -1.0624 O.co2     1 UNL1       -0.5000
     14 H          -4.8826    5.9159   -1.0942 H         1 UNL1        0.0000
     15 H          -5.3931    7.4576   -1.7384 H         1 UNL1        0.0000
     16 H          -5.9783    6.9256   -0.1806 H         1 UNL1        0.0000
     17 H          -2.2229    7.9286    1.9763 H         1 UNL1        0.0000
     18 H          -0.5030    9.1575    3.1125 H         1 UNL1        0.0000
     19 H          -0.2945   11.5286    2.7039 H         1 UNL1        0.0000
     20 H          -1.7934   12.6368    1.1786 H         1 UNL1        0.0000
@<TRIPOS>BOND
     1    1    2 1
     2    1   14 1
     3    1   15 1
     4    1   16 1
     5    2   10 2
     6    2   11 1
     7    3    4 ar
     8    3    8 ar
     9    3   11 1
    10    4    5 ar
    11    4   17 1
    12    5    6 ar
    13    5   18 1
    14    6    7 ar
    15    6   19 1
    16    7    8 ar
    17    7   20 1
    18    8    9 1
    19    9   12 ar
    20    9   13 ar
@<TRIPOS>SUBSTRUCTURE
1 UNL1 1
@<TRIPOS>COMMENT
aspirin
PLANTSproteinTorsions
24
56 122.9928
113 357.4520
248 164.8705
285 247.5054
405 29.8866
445 341.8579
481 277.0422
510 356.4889
526 108.6443
772 49.1293
870 104.4412
949 278.8024
988 12.5857
1001 91.8450
1037 223.2751
1061 197.3433
1095 191.8028
1133 39.5940
1166 250.5733
1200 56.2025
1301 103.5043
1539 131.6807
1611 88.6351
1693 139.3833
PLANTSmolcadARTstart hb
PLANTSmolcadARTstart HB
LINES
-2.88556 6.98336 0.0205588 -1.30352 6.90806 -1.35748 0 255 0 5
PLANTSmolcadARTstart HBCH
LINES
PLANTSmolcadARTstart HB-CHO
LINES
PLANTSmolcadARTend
PLANTSmolcadARTstart HB_WATER
LINES
PLANTSmolcadARTend

PLANTSmolcadARTend

