@<TRIPOS>MOLECULE
aspirin_entry_00001_conf_96
20 20 1
SMALL
NO_CHARGES


@<TRIPOS>ATOM
      1 C           7.5412   14.9492    4.1038 C.3       1 UNL1        0.0000
      2 C           9.0217   14.8422    4.1421 C.2       1 UNL1        0.0000
      3 C          11.0275   13.4743    4.3611 C.ar      1 UNL1        0.0000
      4 C          11.9904   14.2863    3.8003 C.ar      1 UNL1        0.0000
      5 C          13.3466   14.0749    3.9511 C.ar      1 UNL1        0.0000
      6 C          13.7559   12.9986    4.7005 C.ar      1 UNL1        0.0000
      7 C          12.8355   12.1548    5.2830 C.ar      1 UNL1        0.0000
      8 C          11.4729   12.4013    5.1082 C.ar      1 UNL1        0.0000
      9 C          10.5327   11.4844    5.7414 C.2       1 UNL1        0.0000
     10 O           9.7809   15.8568    4.0893 O.2       1 UNL1        0.0000
     11 O           9.6753   13.6461    4.2379 O.3       1 UNL1        0.0000
     12 O          10.9212   10.3894    6.2225 O.co2     1 UNL1       -0.5000
     13 O           9.1832   11.7808    5.8352 O.co2     1 UNL1       -0.5000
     14 H           7.2606   15.9790    4.0282 H         1 UNL1        0.0000
     15 H           7.1305   14.5327    4.9996 H         1 UNL1        0.0000
     16 H           7.1670   14.4134    3.2570 H         1 UNL1        0.0000
     17 H          11.6814   15.0946    3.2384 H         1 UNL1        0.0000
     18 H          14.0341   14.7089    3.5135 H         1 UNL1        0.0000
     19 H          14.7642   12.8192    4.8284 H         1 UNL1        0.0000
     20 H          13.1506   11.3481    5.8449 H         1 UNL1        0.0000
@<TRIPOS>BOND
     1    1    2 1
     2    1   14 1
     3    1   15 1
     4    1   16 1
     5    2   10 2
     6    2   11 1
     7    3    4 ar
     8    3    8 ar
     9    3   11 1
    10    4    5 ar
    11    4   17 1
    12    5    6 ar
    13    5   18 1
    14    6    7 ar
    15    6   19 1
    16    7    8 ar
    17    7   20 1
    18    8    9 1
    19    9   12 ar
    20    9   13 ar
@<TRIPOS>SUBSTRUCTURE
1 UNL1 1
@<TRIPOS>COMMENT
aspirin
PLANTSproteinTorsions
24
56 251.6710
113 46.2678
248 180.9595
285 180.1360
405 131.6854
445 76.0541
481 59.8731
510 205.8745
526 0.4089
772 174.1972
870 96.7345
949 291.4431
988 32.7543
1001 282.7704
1037 7.5450
1061 271.9754
1095 157.8902
1133 310.4474
1166 200.6100
1200 188.3680
1301 147.8575
1539 200.3946
1611 279.8573
1693 268.6737
PLANTSmolcadARTstart hb
PLANTSmolcadARTstart HB
LINES
PLANTSmolcadARTstart HBCH
LINES
PLANTSmolcadARTstart HB-CHO
LINES
PLANTSmolcadARTend
PLANTSmolcadARTstart HB_WATER
LINES
PLANTSmolcadARTend

PLANTSmolcadARTend

