@<TRIPOS>MOLECULE
aspirin_entry_00001_conf_91
20 20 1
SMALL
NO_CHARGES


@<TRIPOS>ATOM
      1 C          11.4674   12.5806   11.0596 C.3       1 UNL1        0.0000
      2 C          11.5327   14.0575   11.1983 C.2       1 UNL1        0.0000
      3 C           9.1623   14.4501   10.7870 C.ar      1 UNL1        0.0000
      4 C           8.8302   13.4373    9.9124 C.ar      1 UNL1        0.0000
      5 C           7.5298   13.0545    9.6494 C.ar      1 UNL1        0.0000
      6 C           6.5150   13.7185   10.2948 C.ar      1 UNL1        0.0000
      7 C           6.7910   14.7388   11.1787 C.ar      1 UNL1        0.0000
      8 C           8.1183   15.0971   11.4190 C.ar      1 UNL1        0.0000
      9 C           8.3665   16.1817   12.3612 C.2       1 UNL1        0.0000
     10 O          12.6153   14.6732   11.4384 O.2       1 UNL1        0.0000
     11 O          10.4348   14.8618   11.0773 O.3       1 UNL1        0.0000
     12 O           9.5280   16.4231   12.7785 O.co2     1 UNL1       -0.5000
     13 O           7.3391   16.9819   12.8320 O.co2     1 UNL1       -0.5000
     14 H          12.4453   12.1670   11.1926 H         1 UNL1        0.0000
     15 H          11.1039   12.3300   10.0851 H         1 UNL1        0.0000
     16 H          10.8066   12.1819   11.8003 H         1 UNL1        0.0000
     17 H           9.5935   12.9391    9.4290 H         1 UNL1        0.0000
     18 H           7.3259   12.2895    8.9865 H         1 UNL1        0.0000
     19 H           5.5345   13.4509   10.1154 H         1 UNL1        0.0000
     20 H           6.0231   15.2332   11.6601 H         1 UNL1        0.0000
@<TRIPOS>BOND
     1    1    2 1
     2    1   14 1
     3    1   15 1
     4    1   16 1
     5    2   10 2
     6    2   11 1
     7    3    4 ar
     8    3    8 ar
     9    3   11 1
    10    4    5 ar
    11    4   17 1
    12    5    6 ar
    13    5   18 1
    14    6    7 ar
    15    6   19 1
    16    7    8 ar
    17    7   20 1
    18    8    9 1
    19    9   12 ar
    20    9   13 ar
@<TRIPOS>SUBSTRUCTURE
1 UNL1 1
@<TRIPOS>COMMENT
aspirin
PLANTSproteinTorsions
24
56 161.1348
113 72.1083
248 218.3757
285 357.0858
405 248.0630
445 314.2271
481 306.3810
510 254.6122
526 39.8194
772 322.8771
870 73.8292
949 281.1317
988 58.5255
1001 221.1194
1037 149.7180
1061 167.6794
1095 23.3809
1133 127.3895
1166 275.8970
1200 194.6398
1301 48.2737
1539 24.0007
1611 242.9958
1693 255.4046
PLANTSmolcadARTstart hb
PLANTSmolcadARTstart HB
LINES
PLANTSmolcadARTstart HBCH
LINES
PLANTSmolcadARTstart HB-CHO
LINES
PLANTSmolcadARTend
PLANTSmolcadARTstart HB_WATER
LINES
PLANTSmolcadARTend

PLANTSmolcadARTend

