@<TRIPOS>MOLECULE
aspirin_entry_00001_conf_67
20 20 1
SMALL
NO_CHARGES


@<TRIPOS>ATOM
      1 C          11.8370   16.6713    0.8213 C.3       1 UNL1        0.0000
      2 C          11.9282   16.8206    2.2958 C.2       1 UNL1        0.0000
      3 C          10.2701   15.1147    2.8275 C.ar      1 UNL1        0.0000
      4 C           9.3001   15.2910    1.8637 C.ar      1 UNL1        0.0000
      5 C           8.3505   14.3370    1.5559 C.ar      1 UNL1        0.0000
      6 C           8.3757   13.1500    2.2471 C.ar      1 UNL1        0.0000
      7 C           9.3234   12.9217    3.2209 C.ar      1 UNL1        0.0000
      8 C          10.2673   13.9101    3.5037 C.ar      1 UNL1        0.0000
      9 C          11.2523   13.6283    4.5410 C.2       1 UNL1        0.0000
     10 O          12.6627   17.6942    2.8492 O.2       1 UNL1        0.0000
     11 O          11.2291   16.0311    3.1646 O.3       1 UNL1        0.0000
     12 O          12.2821   14.3393    4.6657 O.co2     1 UNL1       -0.5000
     13 O          11.0943   12.5721    5.4225 O.co2     1 UNL1       -0.5000
     14 H          12.4687   17.3953    0.3504 H         1 UNL1        0.0000
     15 H          10.8251   16.8246    0.5095 H         1 UNL1        0.0000
     16 H          12.1510   15.6874    0.5427 H         1 UNL1        0.0000
     17 H           9.2829   16.1827    1.3450 H         1 UNL1        0.0000
     18 H           7.6415   14.5107    0.8256 H         1 UNL1        0.0000
     19 H           7.6768   12.4207    2.0354 H         1 UNL1        0.0000
     20 H           9.3362   12.0272    3.7360 H         1 UNL1        0.0000
@<TRIPOS>BOND
     1    1    2 1
     2    1   14 1
     3    1   15 1
     4    1   16 1
     5    2   10 2
     6    2   11 1
     7    3    4 ar
     8    3    8 ar
     9    3   11 1
    10    4    5 ar
    11    4   17 1
    12    5    6 ar
    13    5   18 1
    14    6    7 ar
    15    6   19 1
    16    7    8 ar
    17    7   20 1
    18    8    9 1
    19    9   12 ar
    20    9   13 ar
@<TRIPOS>SUBSTRUCTURE
1 UNL1 1
@<TRIPOS>COMMENT
aspirin
PLANTSproteinTorsions
24
56 226.7466
113 214.9852
248 309.2130
285 251.7119
405 252.9705
445 264.9619
481 263.9964
510 21.5473
526 314.5736
772 344.1451
870 72.3855
949 350.7381
988 274.4166
1001 230.6931
1037 157.1426
1061 215.2967
1095 127.8444
1133 113.8647
1166 180.7524
1200 207.4238
1301 65.1553
1539 255.3601
1611 243.3290
1693 86.2507
PLANTSmolcadARTstart hb
PLANTSmolcadARTstart HB
LINES
PLANTSmolcadARTstart HBCH
LINES
PLANTSmolcadARTstart HB-CHO
LINES
12.6627 17.6942 2.84915 11.62 19.933 2.538 0 255 255 5
PLANTSmolcadARTend
PLANTSmolcadARTstart HB_WATER
LINES
PLANTSmolcadARTend

PLANTSmolcadARTend

