@<TRIPOS>MOLECULE
aspirin_entry_00001_conf_11
20 20 1
SMALL
NO_CHARGES


@<TRIPOS>ATOM
      1 C          10.4471   15.4494   -0.2716 C.3       1 UNL1        0.0000
      2 C           9.4333   15.1632    0.7749 C.2       1 UNL1        0.0000
      3 C           8.8613   14.8768    3.1272 C.ar      1 UNL1        0.0000
      4 C           7.5748   15.3715    3.1621 C.ar      1 UNL1        0.0000
      5 C           6.7122   15.1749    4.2222 C.ar      1 UNL1        0.0000
      6 C           7.1611   14.4473    5.2975 C.ar      1 UNL1        0.0000
      7 C           8.4383   13.9305    5.3147 C.ar      1 UNL1        0.0000
      8 C           9.2811   14.1499    4.2242 C.ar      1 UNL1        0.0000
      9 C          10.6243   13.5857    4.2826 C.2       1 UNL1        0.0000
     10 O           8.2032   15.0061    0.5087 O.2       1 UNL1        0.0000
     11 O           9.7488   15.0469    2.0993 O.3       1 UNL1        0.0000
     12 O          11.3307   13.4882    3.2468 O.co2     1 UNL1       -0.5000
     13 O          11.1701   13.1362    5.4732 O.co2     1 UNL1       -0.5000
     14 H           9.9688   15.4939   -1.2278 H         1 UNL1        0.0000
     15 H          11.1829   14.6728   -0.2768 H         1 UNL1        0.0000
     16 H          10.9190   16.3866   -0.0637 H         1 UNL1        0.0000
     17 H           7.2389   15.9171    2.3534 H         1 UNL1        0.0000
     18 H           5.7556   15.5634    4.2066 H         1 UNL1        0.0000
     19 H           6.5353   14.2862    6.1022 H         1 UNL1        0.0000
     20 H           8.7686   13.3846    6.1262 H         1 UNL1        0.0000
@<TRIPOS>BOND
     1    1    2 1
     2    1   14 1
     3    1   15 1
     4    1   16 1
     5    2   10 2
     6    2   11 1
     7    3    4 ar
     8    3    8 ar
     9    3   11 1
    10    4    5 ar
    11    4   17 1
    12    5    6 ar
    13    5   18 1
    14    6    7 ar
    15    6   19 1
    16    7    8 ar
    17    7   20 1
    18    8    9 1
    19    9   12 ar
    20    9   13 ar
@<TRIPOS>SUBSTRUCTURE
1 UNL1 1
@<TRIPOS>COMMENT
aspirin
PLANTSproteinTorsions
24
56 227.6167
113 233.0282
248 129.7146
285 34.3971
405 347.4649
445 9.2207
481 184.0159
510 64.3999
526 129.9380
772 34.9182
870 296.6222
949 154.7725
988 267.0035
1001 196.5069
1037 146.5219
1061 164.4865
1095 352.4095
1133 9.6168
1166 246.1927
1200 264.6609
1301 262.1042
1539 32.4123
1611 269.7733
1693 66.3704
PLANTSmolcadARTstart hb
PLANTSmolcadARTstart HB
LINES
PLANTSmolcadARTstart HBCH
LINES
PLANTSmolcadARTstart HB-CHO
LINES
PLANTSmolcadARTend
PLANTSmolcadARTstart HB_WATER
LINES
PLANTSmolcadARTend

PLANTSmolcadARTend

