@<TRIPOS>MOLECULE
aspirin_entry_00001_conf_37
20 20 1
SMALL
NO_CHARGES


@<TRIPOS>ATOM
      1 C          11.4246   17.1880   19.6717 C.3       1 UNL1        0.0000
      2 C          10.8486   18.1814   18.7304 C.2       1 UNL1        0.0000
      3 C          12.9847   18.9781   17.8673 C.ar      1 UNL1        0.0000
      4 C          13.8174   17.8860   17.9890 C.ar      1 UNL1        0.0000
      5 C          15.1952   17.9721   17.9582 C.ar      1 UNL1        0.0000
      6 C          15.7642   19.2121   17.7969 C.ar      1 UNL1        0.0000
      7 C          14.9785   20.3369   17.6710 C.ar      1 UNL1        0.0000
      8 C          13.5891   20.2098   17.7067 C.ar      1 UNL1        0.0000
      9 C          12.7947   21.4247   17.5699 C.2       1 UNL1        0.0000
     10 O           9.6014   18.3945   18.6417 O.2       1 UNL1        0.0000
     11 O          11.6168   18.9392   17.8921 O.3       1 UNL1        0.0000
     12 O          11.5678   21.3684   17.2994 O.co2     1 UNL1       -0.5000
     13 O          13.3571   22.6800   17.7295 O.co2     1 UNL1       -0.5000
     14 H          10.6353   16.7199   20.2221 H         1 UNL1        0.0000
     15 H          12.0877   17.6826   20.3501 H         1 UNL1        0.0000
     16 H          11.9650   16.4470   19.1211 H         1 UNL1        0.0000
     17 H          13.3885   16.9554   18.1092 H         1 UNL1        0.0000
     18 H          15.7816   17.1275   18.0527 H         1 UNL1        0.0000
     19 H          16.7920   19.3028   17.7703 H         1 UNL1        0.0000
     20 H          15.4133   21.2653   17.5500 H         1 UNL1        0.0000
@<TRIPOS>BOND
     1    1    2 1
     2    1   14 1
     3    1   15 1
     4    1   16 1
     5    2   10 2
     6    2   11 1
     7    3    4 ar
     8    3    8 ar
     9    3   11 1
    10    4    5 ar
    11    4   17 1
    12    5    6 ar
    13    5   18 1
    14    6    7 ar
    15    6   19 1
    16    7    8 ar
    17    7   20 1
    18    8    9 1
    19    9   12 ar
    20    9   13 ar
@<TRIPOS>SUBSTRUCTURE
1 UNL1 1
@<TRIPOS>COMMENT
aspirin
PLANTSproteinTorsions
24
56 108.4755
113 94.1613
248 207.6257
285 357.0479
405 168.8558
445 152.2827
481 245.3724
510 104.6493
526 135.6416
772 79.1995
870 336.1130
949 112.3903
988 96.0108
1001 74.7514
1037 73.6535
1061 155.8787
1095 78.1307
1133 253.5788
1166 112.2121
1200 214.5550
1301 280.0079
1539 200.3302
1611 212.8020
1693 67.9711
PLANTSmolcadARTstart hb
PLANTSmolcadARTstart HB
LINES
PLANTSmolcadARTstart HBCH
LINES
13.3571 22.68 17.7295 15.119 22.973 16.622 255 0 0 5
13.3571 22.68 17.7295 14.374 24.398 18.177 255 0 0 5
PLANTSmolcadARTstart HB-CHO
LINES
PLANTSmolcadARTend
PLANTSmolcadARTstart HB_WATER
LINES
PLANTSmolcadARTend

PLANTSmolcadARTend

