@<TRIPOS>MOLECULE
aspirin_entry_00001_conf_08
20 20 1
SMALL
NO_CHARGES


@<TRIPOS>ATOM
      1 C           9.1755   26.9215   -7.1642 C.3       1 UNL1        0.0000
      2 C          10.4195   27.7177   -7.0115 C.2       1 UNL1        0.0000
      3 C          11.4114   26.3024   -5.2925 C.ar      1 UNL1        0.0000
      4 C          10.9435   25.0487   -5.6247 C.ar      1 UNL1        0.0000
      5 C          10.9768   23.9706   -4.7625 C.ar      1 UNL1        0.0000
      6 C          11.5050   24.1591   -3.5084 C.ar      1 UNL1        0.0000
      7 C          11.9863   25.3917   -3.1245 C.ar      1 UNL1        0.0000
      8 C          11.9359   26.4576   -4.0240 C.ar      1 UNL1        0.0000
      9 C          12.4556   27.7447   -3.5780 C.2       1 UNL1        0.0000
     10 O          10.6570   28.7523   -7.7058 O.2       1 UNL1        0.0000
     11 O          11.3983   27.3972   -6.1137 O.3       1 UNL1        0.0000
     12 O          12.7051   27.9561   -2.3637 O.co2     1 UNL1       -0.5000
     13 O          12.6912   28.7789   -4.4682 O.co2     1 UNL1       -0.5000
     14 H           8.5618   27.3617   -7.9222 H         1 UNL1        0.0000
     15 H           8.6432   26.9107   -6.2362 H         1 UNL1        0.0000
     16 H           9.4257   25.9197   -7.4435 H         1 UNL1        0.0000
     17 H          10.5479   24.9086   -6.5672 H         1 UNL1        0.0000
     18 H          10.6155   23.0480   -5.0529 H         1 UNL1        0.0000
     19 H          11.5414   23.3688   -2.8456 H         1 UNL1        0.0000
     20 H          12.3819   25.5257   -2.1804 H         1 UNL1        0.0000
@<TRIPOS>BOND
     1    1    2 1
     2    1   14 1
     3    1   15 1
     4    1   16 1
     5    2   10 2
     6    2   11 1
     7    3    4 ar
     8    3    8 ar
     9    3   11 1
    10    4    5 ar
    11    4   17 1
    12    5    6 ar
    13    5   18 1
    14    6    7 ar
    15    6   19 1
    16    7    8 ar
    17    7   20 1
    18    8    9 1
    19    9   12 ar
    20    9   13 ar
@<TRIPOS>SUBSTRUCTURE
1 UNL1 1
@<TRIPOS>COMMENT
aspirin
PLANTSproteinTorsions
24
56 125.0337
113 261.6569
248 154.7891
285 331.2625
405 70.8885
445 180.9774
481 225.9450
510 214.9836
526 168.1656
772 41.4494
870 206.4588
949 304.9644
988 266.7759
1001 163.8863
1037 301.7244
1061 100.5429
1095 131.4821
1133 92.1585
1166 241.6975
1200 147.6711
1301 350.1059
1539 151.2339
1611 302.2318
1693 211.6870
PLANTSmolcadARTstart hb
PLANTSmolcadARTstart HB
LINES
PLANTSmolcadARTstart HBCH
LINES
PLANTSmolcadARTstart HB-CHO
LINES
PLANTSmolcadARTend
PLANTSmolcadARTstart HB_WATER
LINES
PLANTSmolcadARTend

PLANTSmolcadARTend

