@<TRIPOS>MOLECULE
aspirin_entry_00001_conf_16
20 20 1
SMALL
NO_CHARGES


@<TRIPOS>ATOM
      1 C          14.0044   28.3599   -3.2533 C.3       1 UNL1        0.0000
      2 C          13.0034   28.8334   -4.2425 C.2       1 UNL1        0.0000
      3 C          11.8287   26.7070   -4.4453 C.ar      1 UNL1        0.0000
      4 C          11.9990   26.1262   -3.2065 C.ar      1 UNL1        0.0000
      5 C          11.8052   24.7809   -2.9633 C.ar      1 UNL1        0.0000
      6 C          11.4218   23.9808   -4.0122 C.ar      1 UNL1        0.0000
      7 C          11.2379   24.5096   -5.2711 C.ar      1 UNL1        0.0000
      8 C          11.4431   25.8745   -5.4779 C.ar      1 UNL1        0.0000
      9 C          11.2376   26.3933   -6.8248 C.2       1 UNL1        0.0000
     10 O          13.0046   30.0154   -4.7023 O.2       1 UNL1        0.0000
     11 O          12.0094   28.0332   -4.7311 O.3       1 UNL1        0.0000
     12 O          11.1185   27.6281   -7.0313 O.co2     1 UNL1       -0.5000
     13 O          11.1641   25.5518   -7.9221 O.co2     1 UNL1       -0.5000
     14 H          14.6797   29.1567   -3.0210 H         1 UNL1        0.0000
     15 H          14.5512   27.5378   -3.6652 H         1 UNL1        0.0000
     16 H          13.5033   28.0445   -2.3624 H         1 UNL1        0.0000
     17 H          12.2863   26.7286   -2.4196 H         1 UNL1        0.0000
     18 H          11.9438   24.3873   -2.0188 H         1 UNL1        0.0000
     19 H          11.2703   22.9719   -3.8561 H         1 UNL1        0.0000
     20 H          10.9496   23.9021   -6.0544 H         1 UNL1        0.0000
@<TRIPOS>BOND
     1    1    2 1
     2    1   14 1
     3    1   15 1
     4    1   16 1
     5    2   10 2
     6    2   11 1
     7    3    4 ar
     8    3    8 ar
     9    3   11 1
    10    4    5 ar
    11    4   17 1
    12    5    6 ar
    13    5   18 1
    14    6    7 ar
    15    6   19 1
    16    7    8 ar
    17    7   20 1
    18    8    9 1
    19    9   12 ar
    20    9   13 ar
@<TRIPOS>SUBSTRUCTURE
1 UNL1 1
@<TRIPOS>COMMENT
aspirin
PLANTSproteinTorsions
24
56 236.4896
113 331.8217
248 176.0368
285 29.5232
405 13.6101
445 26.6697
481 183.6331
510 229.2790
526 16.1172
772 67.1944
870 70.6006
949 77.5295
988 9.8290
1001 177.8386
1037 238.0871
1061 7.0942
1095 335.8888
1133 204.2665
1166 77.9752
1200 34.8370
1301 247.0271
1539 122.8093
1611 105.6432
1693 292.9987
PLANTSmolcadARTstart hb
PLANTSmolcadARTstart HB
LINES
PLANTSmolcadARTstart HBCH
LINES
PLANTSmolcadARTstart HB-CHO
LINES
PLANTSmolcadARTend
PLANTSmolcadARTstart HB_WATER
LINES
PLANTSmolcadARTend

PLANTSmolcadARTend

