@<TRIPOS>MOLECULE
aspirin_entry_00001_conf_66
20 20 1
SMALL
NO_CHARGES


@<TRIPOS>ATOM
      1 C          11.7183   13.1182   11.4826 C.3       1 UNL1        0.0000
      2 C          10.6678   12.9034   10.4555 C.2       1 UNL1        0.0000
      3 C           9.2911   14.8083   11.1024 C.ar      1 UNL1        0.0000
      4 C          10.2302   15.7263   11.5223 C.ar      1 UNL1        0.0000
      5 C           9.9200   16.8448   12.2702 C.ar      1 UNL1        0.0000
      6 C           8.6058   17.0524   12.6123 C.ar      1 UNL1        0.0000
      7 C           7.6269   16.1660   12.2192 C.ar      1 UNL1        0.0000
      8 C           7.9793   15.0468   11.4635 C.ar      1 UNL1        0.0000
      9 C           6.9132   14.1342   11.0682 C.2       1 UNL1        0.0000
     10 O          10.7345   11.9740    9.5950 O.2       1 UNL1        0.0000
     11 O           9.5532   13.6881   10.3611 O.3       1 UNL1        0.0000
     12 O           7.1053   13.2577   10.1871 O.co2     1 UNL1       -0.5000
     13 O           5.6547   14.1980   11.6425 O.co2     1 UNL1       -0.5000
     14 H          12.4889   12.3856   11.3623 H         1 UNL1        0.0000
     15 H          11.2876   13.0258   12.4576 H         1 UNL1        0.0000
     16 H          12.1343   14.0970   11.3677 H         1 UNL1        0.0000
     17 H          11.2166   15.5694   11.2639 H         1 UNL1        0.0000
     18 H          10.6556   17.5074   12.5634 H         1 UNL1        0.0000
     19 H           8.3482   17.8813   13.1707 H         1 UNL1        0.0000
     20 H           6.6414   16.3287   12.4799 H         1 UNL1        0.0000
@<TRIPOS>BOND
     1    1    2 1
     2    1   14 1
     3    1   15 1
     4    1   16 1
     5    2   10 2
     6    2   11 1
     7    3    4 ar
     8    3    8 ar
     9    3   11 1
    10    4    5 ar
    11    4   17 1
    12    5    6 ar
    13    5   18 1
    14    6    7 ar
    15    6   19 1
    16    7    8 ar
    17    7   20 1
    18    8    9 1
    19    9   12 ar
    20    9   13 ar
@<TRIPOS>SUBSTRUCTURE
1 UNL1 1
@<TRIPOS>COMMENT
aspirin
PLANTSproteinTorsions
24
56 237.2636
113 130.3385
248 280.3090
285 16.5481
405 141.1898
445 157.4204
481 47.2255
510 121.3298
526 239.2305
772 10.9492
870 174.7664
949 255.2348
988 152.4735
1001 272.5248
1037 151.5150
1061 174.7164
1095 97.9717
1133 225.3792
1166 210.8846
1200 266.6082
1301 53.9954
1539 123.9161
1611 114.4169
1693 83.3476
PLANTSmolcadARTstart hb
PLANTSmolcadARTstart HB
LINES
PLANTSmolcadARTstart HBCH
LINES
PLANTSmolcadARTstart HB-CHO
LINES
PLANTSmolcadARTend
PLANTSmolcadARTstart HB_WATER
LINES
PLANTSmolcadARTend

PLANTSmolcadARTend

