@<TRIPOS>MOLECULE
aspirin_entry_00001_conf_51
20 20 1
SMALL
NO_CHARGES


@<TRIPOS>ATOM
      1 C           8.5909   12.9197    8.3061 C.3       1 UNL1        0.0000
      2 C           9.5088   12.3115    7.3099 C.2       1 UNL1        0.0000
      3 C           8.6842   13.5863    5.4028 C.ar      1 UNL1        0.0000
      4 C           7.3593   13.8004    5.7185 C.ar      1 UNL1        0.0000
      5 C           6.5742   14.7542    5.1016 C.ar      1 UNL1        0.0000
      6 C           7.1456   15.5303    4.1225 C.ar      1 UNL1        0.0000
      7 C           8.4657   15.3578    3.7676 C.ar      1 UNL1        0.0000
      8 C           9.2275   14.3834    4.4141 C.ar      1 UNL1        0.0000
      9 C          10.6199   14.2336    4.0085 C.2       1 UNL1        0.0000
     10 O          10.3661   11.4299    7.6208 O.2       1 UNL1        0.0000
     11 O           9.4982   12.6541    5.9873 O.3       1 UNL1        0.0000
     12 O          11.0487   14.7718    2.9559 O.co2     1 UNL1       -0.5000
     13 O          11.5184   13.4958    4.7608 O.co2     1 UNL1       -0.5000
     14 H           8.7817   12.4973    9.2705 H         1 UNL1        0.0000
     15 H           7.5779   12.7220    8.0244 H         1 UNL1        0.0000
     16 H           8.7519   13.9766    8.3403 H         1 UNL1        0.0000
     17 H           6.9319   13.2172    6.4546 H         1 UNL1        0.0000
     18 H           5.5852   14.8813    5.3697 H         1 UNL1        0.0000
     19 H           6.5798   16.2504    3.6466 H         1 UNL1        0.0000
     20 H           8.8882   15.9448    3.0310 H         1 UNL1        0.0000
@<TRIPOS>BOND
     1    1    2 1
     2    1   14 1
     3    1   15 1
     4    1   16 1
     5    2   10 2
     6    2   11 1
     7    3    4 ar
     8    3    8 ar
     9    3   11 1
    10    4    5 ar
    11    4   17 1
    12    5    6 ar
    13    5   18 1
    14    6    7 ar
    15    6   19 1
    16    7    8 ar
    17    7   20 1
    18    8    9 1
    19    9   12 ar
    20    9   13 ar
@<TRIPOS>SUBSTRUCTURE
1 UNL1 1
@<TRIPOS>COMMENT
aspirin
PLANTSproteinTorsions
24
56 262.7956
113 94.2998
248 348.7435
285 294.2181
405 118.9301
445 81.7044
481 187.3654
510 339.0257
526 163.6435
772 93.3858
870 335.2629
949 75.5421
988 192.6436
1001 27.3838
1037 155.6287
1061 79.9791
1095 292.5993
1133 112.2558
1166 215.1122
1200 67.9921
1301 267.4411
1539 170.1922
1611 249.3601
1693 323.5710
PLANTSmolcadARTstart hb
PLANTSmolcadARTstart HB
LINES
PLANTSmolcadARTstart HBCH
LINES
PLANTSmolcadARTstart HB-CHO
LINES
PLANTSmolcadARTend
PLANTSmolcadARTstart HB_WATER
LINES
PLANTSmolcadARTend

PLANTSmolcadARTend

