@<TRIPOS>MOLECULE
aspirin_entry_00001_conf_41
20 20 1
SMALL
NO_CHARGES


@<TRIPOS>ATOM
      1 C           7.0879   14.9157    2.8670 C.3       1 UNL1        0.0000
      2 C           7.6100   14.4789    1.5474 C.2       1 UNL1        0.0000
      3 C           9.9870   14.6553    2.0585 C.ar      1 UNL1        0.0000
      4 C           9.9683   14.2577    3.3785 C.ar      1 UNL1        0.0000
      5 C          11.0654   14.3375    4.2132 C.ar      1 UNL1        0.0000
      6 C          12.2365   14.8390    3.6991 C.ar      1 UNL1        0.0000
      7 C          12.3101   15.2514    2.3865 C.ar      1 UNL1        0.0000
      8 C          11.1799   15.1549    1.5734 C.ar      1 UNL1        0.0000
      9 C          11.3007   15.6021    0.1909 C.2       1 UNL1        0.0000
     10 O           6.8676   13.9688    0.6545 O.2       1 UNL1        0.0000
     11 O           8.9256   14.5942    1.1966 O.3       1 UNL1        0.0000
     12 O          12.3692   16.1119   -0.2332 O.co2     1 UNL1       -0.5000
     13 O          10.2494   15.4855   -0.7028 O.co2     1 UNL1       -0.5000
     14 H           6.0353   14.7285    2.9130 H         1 UNL1        0.0000
     15 H           7.2697   15.9624    2.9934 H         1 UNL1        0.0000
     16 H           7.5823   14.3713    3.6438 H         1 UNL1        0.0000
     17 H           9.0882   13.8805    3.7629 H         1 UNL1        0.0000
     18 H          11.0073   14.0277    5.1965 H         1 UNL1        0.0000
     19 H          13.0707   14.9086    4.3027 H         1 UNL1        0.0000
     20 H          13.1937   15.6272    2.0072 H         1 UNL1        0.0000
@<TRIPOS>BOND
     1    1    2 1
     2    1   14 1
     3    1   15 1
     4    1   16 1
     5    2   10 2
     6    2   11 1
     7    3    4 ar
     8    3    8 ar
     9    3   11 1
    10    4    5 ar
    11    4   17 1
    12    5    6 ar
    13    5   18 1
    14    6    7 ar
    15    6   19 1
    16    7    8 ar
    17    7   20 1
    18    8    9 1
    19    9   12 ar
    20    9   13 ar
@<TRIPOS>SUBSTRUCTURE
1 UNL1 1
@<TRIPOS>COMMENT
aspirin
PLANTSproteinTorsions
24
56 130.4384
113 72.5782
248 301.0584
285 309.0102
405 154.4724
445 124.5277
481 176.4162
510 214.5226
526 31.9254
772 95.4276
870 230.2531
949 110.4112
988 49.6116
1001 237.1565
1037 352.2310
1061 213.8267
1095 54.7807
1133 53.9948
1166 248.9698
1200 248.9742
1301 163.0888
1539 254.3093
1611 258.0027
1693 266.2596
PLANTSmolcadARTstart hb
PLANTSmolcadARTstart HB
LINES
12.3692 16.1119 -0.233189 13.382 14.258 -0.352 0 255 0 5
PLANTSmolcadARTstart HBCH
LINES
PLANTSmolcadARTstart HB-CHO
LINES
PLANTSmolcadARTend
PLANTSmolcadARTstart HB_WATER
LINES
PLANTSmolcadARTend

PLANTSmolcadARTend

