@<TRIPOS>MOLECULE
aspirin_entry_00001_conf_54
20 20 1
SMALL
NO_CHARGES


@<TRIPOS>ATOM
      1 C           3.0928   13.2965   13.1214 C.3       1 UNL1        0.0000
      2 C           4.3049   13.9196   12.5320 C.2       1 UNL1        0.0000
      3 C           6.2625   15.3530   12.7670 C.ar      1 UNL1        0.0000
      4 C           7.1452   14.7773   11.8781 C.ar      1 UNL1        0.0000
      5 C           8.2969   15.3993   11.4382 C.ar      1 UNL1        0.0000
      6 C           8.5756   16.6584   11.9120 C.ar      1 UNL1        0.0000
      7 C           7.7275   17.2798   12.8025 C.ar      1 UNL1        0.0000
      8 C           6.5725   16.6192   13.2238 C.ar      1 UNL1        0.0000
      9 C           5.7024   17.3121   14.1665 C.2       1 UNL1        0.0000
     10 O           4.6732   13.7003   11.3382 O.2       1 UNL1        0.0000
     11 O           5.1115   14.7742   13.2290 O.3       1 UNL1        0.0000
     12 O           4.5503   16.8780   14.4228 O.co2     1 UNL1       -0.5000
     13 O           6.1074   18.4690   14.8108 O.co2     1 UNL1       -0.5000
     14 H           2.6240   12.6698   12.3916 H         1 UNL1        0.0000
     15 H           2.4102   14.0623   13.4250 H         1 UNL1        0.0000
     16 H           3.3712   12.7094   13.9711 H         1 UNL1        0.0000
     17 H           6.9341   13.8321   11.5226 H         1 UNL1        0.0000
     18 H           8.9306   14.9313   10.7708 H         1 UNL1        0.0000
     19 H           9.4301   17.1446   11.5981 H         1 UNL1        0.0000
     20 H           7.9434   18.2261   13.1541 H         1 UNL1        0.0000
@<TRIPOS>BOND
     1    1    2 1
     2    1   14 1
     3    1   15 1
     4    1   16 1
     5    2   10 2
     6    2   11 1
     7    3    4 ar
     8    3    8 ar
     9    3   11 1
    10    4    5 ar
    11    4   17 1
    12    5    6 ar
    13    5   18 1
    14    6    7 ar
    15    6   19 1
    16    7    8 ar
    17    7   20 1
    18    8    9 1
    19    9   12 ar
    20    9   13 ar
@<TRIPOS>SUBSTRUCTURE
1 UNL1 1
@<TRIPOS>COMMENT
aspirin
PLANTSproteinTorsions
24
56 13.2304
113 235.5115
248 244.2390
285 356.4993
405 177.9742
445 355.4064
481 205.0042
510 293.8056
526 161.8022
772 314.8582
870 85.9957
949 245.4625
988 174.5265
1001 344.6585
1037 251.7849
1061 140.5797
1095 41.7792
1133 249.3176
1166 303.7901
1200 222.5445
1301 56.0237
1539 39.0378
1611 282.7026
1693 345.8053
PLANTSmolcadARTstart hb
PLANTSmolcadARTstart HB
LINES
PLANTSmolcadARTstart HBCH
LINES
PLANTSmolcadARTstart HB-CHO
LINES
PLANTSmolcadARTend
PLANTSmolcadARTstart HB_WATER
LINES
PLANTSmolcadARTend

PLANTSmolcadARTend

