@<TRIPOS>MOLECULE
aspirin_entry_00001_conf_44_protein
58 34 24
SMALL
NO_CHARGES


@<TRIPOS>ATOM
      1 HH         -1.9284   17.4821   12.0741 H         3 TYR3        0.0000
      2 OH         -1.6020   16.7770   11.4470 O.3       3 TYR3        0.0000
      3 HZ1         0.0189   13.0907    8.4269 H         6 LYS6        0.0000
      4 NZ          0.7290   12.4920    8.0610 N.4       6 LYS6        1.0000
      5 HZ2         0.3990   11.5508    8.0379 H         6 LYS6        0.0000
      6 HZ3         1.5467   12.5496    8.6307 H         6 LYS6        0.0000
      7 HG         -2.7443   14.3005   -7.1421 H        15 SER15       0.0000
      8 OG         -3.1540   13.8910   -7.9560 O.3      15 SER15       0.0000
      9 HG         -1.5022    7.7749   -2.1189 H        18 SER18       0.0000
     10 OG         -0.6150    7.3650   -1.9170 O.3      18 SER18       0.0000
     11 HH          9.7326   10.4418  -11.8237 H        25 TYR25       0.0000
     12 OH          9.8250   11.3330  -11.3900 O.3      25 TYR25       0.0000
     13 HH         22.2726   17.9203   -6.6571 H        28 TYR28       0.0000
     14 OH         22.2670   17.1330   -6.0410 O.3      28 TYR28       0.0000
     15 HZ1        16.3719   10.9963    7.0936 H        31 LYS31       0.0000
     16 NZ         16.3160   10.5650    6.1960 N.4      31 LYS31       1.0000
     17 HZ2        16.8564   11.0828    5.5368 H        31 LYS31       0.0000
     18 HZ3        15.3645   10.5243    5.8972 H        31 LYS31       0.0000
     19 HG         25.3551   12.2747   -2.8875 H        34 SER34       0.0000
     20 OG         24.5230   12.7050   -3.2370 O.3      34 SER34       0.0000
     21 HG1        24.7679   14.9413  -13.0354 H        36 THR36       0.0000
     22 OG1        24.1270   15.4830  -12.4810 O.3      36 THR36       0.0000
     23 HH         11.0403   20.7770    6.0001 H        52 TYR52       0.0000
     24 OH         11.0460   21.3600    5.1880 O.3      52 TYR52       0.0000
     25 HG         21.1845   30.5414   16.6355 H        59 SER59       0.0000
     26 OG         21.4070   31.5140   16.6380 O.3      59 SER59       0.0000
     27 HH         15.5192   14.9654    5.4258 H        64 TYR64       0.0000
     28 OH         15.8460   15.9090    5.4550 O.3      64 TYR64       0.0000
     29 HZ1        10.5849   30.0533   15.7260 H        66 LYS66       0.0000
     30 NZ         10.1520   29.1670   15.6030 N.4      66 LYS66       1.0000
     31 HZ2         9.2026   29.1981   15.8958 H        66 LYS66       0.0000
     32 HZ3        10.6478   28.4649   16.1001 H        66 LYS66       0.0000
     33 HG1         5.4848   22.8047   15.3726 H        67 THR67       0.0000
     34 OG1         6.3160   23.3030   15.1040 O.3      67 THR67       0.0000
     35 HG          0.1767   30.6045   10.4118 H        69 SER69       0.0000
     36 OG          0.5240   31.0060   11.2580 O.3      69 SER69       0.0000
     37 HH         -0.5449   21.9331    6.6271 H        70 TYR70       0.0000
     38 OH          0.0580   22.2220    7.3660 O.3      70 TYR70       0.0000
     39 HG1        -6.9931   29.3471    2.8051 H        73 THR73       0.0000
     40 OG1        -7.4680   28.6970    3.4100 O.3      73 THR73       0.0000
     41 HG1        -6.5394   30.3241   -2.9512 H        76 THR76       0.0000
     42 OG1        -5.5890   30.0600   -3.1300 O.3      76 THR76       0.0000
     43 HG1        -1.9623   32.3083    0.9022 H        78 THR78       0.0000
     44 OG1        -2.4070   31.9470    1.7280 O.3      78 THR78       0.0000
     45 HZ1        -4.3355   30.4825    9.9547 H        80 LYS80       0.0000
     46 NZ         -3.8080   31.2920   10.2060 N.4      80 LYS80       1.0000
     47 HZ2        -3.1772   31.0657   10.9471 H        80 LYS80       0.0000
     48 HZ3        -4.4260   32.0193   10.5002 H        80 LYS80       0.0000
     49 HG         14.7297   32.6312    5.1637 H        89 SER89       0.0000
     50 OG         13.9740   32.5660    5.8140 O.3      89 SER89       0.0000
     51 HH          6.0157    7.4299   -6.7266 H       106 TYR106      0.0000
     52 OH          6.5520    8.2720   -6.7200 O.3     106 TYR106      0.0000
     53 HH          7.6949    5.3994   -1.3380 H       111 TYR111      0.0000
     54 OH          7.9460    4.5620   -1.8170 O.3     111 TYR111      0.0000
     55 HZ1        29.0449    2.1586   -3.7848 H       116 LYS116      0.0000
     56 NZ         28.8420    1.3950   -3.1800 N.4     116 LYS116      1.0000
     57 HZ2        29.6742    0.8876   -2.9760 H       116 LYS116      0.0000
     58 HZ3        28.1660    0.7947   -3.5972 H       116 LYS116      0.0000
@<TRIPOS>BOND
     1    2    1 1
     2    4    5 1
     3    4    3 1
     4    4    6 1
     5    8    7 1
     6   10    9 1
     7   12   11 1
     8   14   13 1
     9   16   15 1
    10   16   17 1
    11   16   18 1
    12   20   19 1
    13   22   21 1
    14   24   23 1
    15   26   25 1
    16   28   27 1
    17   30   29 1
    18   30   31 1
    19   30   32 1
    20   34   33 1
    21   36   35 1
    22   38   37 1
    23   40   39 1
    24   42   41 1
    25   44   43 1
    26   46   45 1
    27   46   48 1
    28   46   47 1
    29   50   49 1
    30   52   51 1
    31   54   53 1
    32   56   55 1
    33   56   57 1
    34   56   58 1
@<TRIPOS>SUBSTRUCTURE
3 TYR3 1
6 LYS6 3
15 SER15 7
18 SER18 9
25 TYR25 11
28 TYR28 13
31 LYS31 15
34 SER34 19
36 THR36 21
52 TYR52 23
59 SER59 25
64 TYR64 27
66 LYS66 29
67 THR67 33
69 SER69 35
70 TYR70 37
73 THR73 39
76 THR76 41
78 THR78 43
80 LYS80 45
89 SER89 49
106 TYR106 51
111 TYR111 53
116 LYS116 55
@<TRIPOS>COMMENT
