@<TRIPOS>MOLECULE
aspirin_entry_00001_conf_25
20 20 1
SMALL
NO_CHARGES


@<TRIPOS>ATOM
      1 C          12.7213   16.8291   19.2538 C.3       1 UNL1        0.0000
      2 C          13.6582   17.5436   18.3502 C.2       1 UNL1        0.0000
      3 C          12.1129   19.3267   17.7378 C.ar      1 UNL1        0.0000
      4 C          10.9001   18.6709   17.7400 C.ar      1 UNL1        0.0000
      5 C           9.6825   19.3221   17.7408 C.ar      1 UNL1        0.0000
      6 C           9.6817   20.6959   17.7403 C.ar      1 UNL1        0.0000
      7 C          10.8654   21.4012   17.7376 C.ar      1 UNL1        0.0000
      8 C          12.0765   20.7075   17.7372 C.ar      1 UNL1        0.0000
      9 C          13.3056   21.4918   17.7344 C.2       1 UNL1        0.0000
     10 O          14.8187   17.1055   18.0855 O.2       1 UNL1        0.0000
     11 O          13.3411   18.7228   17.7370 O.3       1 UNL1        0.0000
     12 O          13.2821   22.7306   17.5193 O.co2     1 UNL1       -0.5000
     13 O          14.5391   20.9064   17.9650 O.co2     1 UNL1       -0.5000
     14 H          13.1856   15.9343   19.6125 H         1 UNL1        0.0000
     15 H          11.8305   16.5781   18.7171 H         1 UNL1        0.0000
     16 H          12.4735   17.4601   20.0813 H         1 UNL1        0.0000
     17 H          10.9024   17.6391   17.7412 H         1 UNL1        0.0000
     18 H           8.7971   18.7911   17.7429 H         1 UNL1        0.0000
     19 H           8.7846   21.2061   17.7412 H         1 UNL1        0.0000
     20 H          10.8569   22.4335   17.7374 H         1 UNL1        0.0000
@<TRIPOS>BOND
     1    1    2 1
     2    1   14 1
     3    1   15 1
     4    1   16 1
     5    2   10 2
     6    2   11 1
     7    3    4 ar
     8    3    8 ar
     9    3   11 1
    10    4    5 ar
    11    4   17 1
    12    5    6 ar
    13    5   18 1
    14    6    7 ar
    15    6   19 1
    16    7    8 ar
    17    7   20 1
    18    8    9 1
    19    9   12 ar
    20    9   13 ar
@<TRIPOS>SUBSTRUCTURE
1 UNL1 1
@<TRIPOS>COMMENT
aspirin
PLANTSproteinTorsions
24
56 129.0675
113 180.6371
248 342.3511
285 234.3735
405 104.7655
445 129.0693
481 323.8047
510 119.3703
526 267.1954
772 304.8033
870 263.3177
949 344.0614
988 311.9606
1001 156.2380
1037 67.1160
1061 177.4455
1095 177.9412
1133 68.8427
1166 227.0539
1200 134.5690
1301 23.2051
1539 206.0593
1611 10.6073
1693 235.5730
PLANTSmolcadARTstart hb
PLANTSmolcadARTstart HB
LINES
PLANTSmolcadARTstart HBCH
LINES
13.2821 22.7306 17.5193 15.119 22.973 16.622 255 0 0 5
13.2821 22.7306 17.5193 14.374 24.398 18.177 255 0 0 5
PLANTSmolcadARTstart HB-CHO
LINES
PLANTSmolcadARTend
PLANTSmolcadARTstart HB_WATER
LINES
PLANTSmolcadARTend

PLANTSmolcadARTend

