@<TRIPOS>MOLECULE
aspirin_entry_00001_conf_92
20 20 1
SMALL
NO_CHARGES


@<TRIPOS>ATOM
      1 C          11.4308   30.1952   -6.4600 C.3       1 UNL1        0.0000
      2 C          11.7216   28.8065   -6.8980 C.2       1 UNL1        0.0000
      3 C          12.4183   27.9868   -4.7106 C.ar      1 UNL1        0.0000
      4 C          13.0441   29.0917   -4.1736 C.ar      1 UNL1        0.0000
      5 C          13.3485   29.2175   -2.8326 C.ar      1 UNL1        0.0000
      6 C          13.0083   28.1866   -1.9908 C.ar      1 UNL1        0.0000
      7 C          12.3819   27.0590   -2.4750 C.ar      1 UNL1        0.0000
      8 C          12.0901   26.9685   -3.8369 C.ar      1 UNL1        0.0000
      9 C          11.4268   25.7586   -4.3079 C.2       1 UNL1        0.0000
     10 O          11.6406   28.4422   -8.1102 O.2       1 UNL1        0.0000
     11 O          12.0981   27.8201   -6.0308 O.3       1 UNL1        0.0000
     12 O          10.8931   25.7145   -5.4458 O.co2     1 UNL1       -0.5000
     13 O          11.3572   24.6186   -3.5248 O.co2     1 UNL1       -0.5000
     14 H          11.1585   30.7866   -7.3091 H         1 UNL1        0.0000
     15 H          12.3010   30.6130   -5.9988 H         1 UNL1        0.0000
     16 H          10.6244   30.1857   -5.7573 H         1 UNL1        0.0000
     17 H          13.2982   29.8655   -4.8070 H         1 UNL1        0.0000
     18 H          13.8179   30.0637   -2.4725 H         1 UNL1        0.0000
     19 H          13.2248   28.2566   -0.9841 H         1 UNL1        0.0000
     20 H          12.1292   26.2883   -1.8363 H         1 UNL1        0.0000
@<TRIPOS>BOND
     1    1    2 1
     2    1   14 1
     3    1   15 1
     4    1   16 1
     5    2   10 2
     6    2   11 1
     7    3    4 ar
     8    3    8 ar
     9    3   11 1
    10    4    5 ar
    11    4   17 1
    12    5    6 ar
    13    5   18 1
    14    6    7 ar
    15    6   19 1
    16    7    8 ar
    17    7   20 1
    18    8    9 1
    19    9   12 ar
    20    9   13 ar
@<TRIPOS>SUBSTRUCTURE
1 UNL1 1
@<TRIPOS>COMMENT
aspirin
PLANTSproteinTorsions
24
56 213.0619
113 223.4475
248 242.2576
285 244.2828
405 134.5963
445 121.4209
481 225.9155
510 150.8507
526 100.5787
772 53.0465
870 264.8347
949 346.2802
988 134.5994
1001 222.8672
1037 224.1045
1061 195.4666
1095 199.8248
1133 272.1200
1166 31.9784
1200 91.7906
1301 25.3012
1539 326.7770
1611 216.8269
1693 234.1699
PLANTSmolcadARTstart hb
PLANTSmolcadARTstart HB
LINES
PLANTSmolcadARTstart HBCH
LINES
PLANTSmolcadARTstart HB-CHO
LINES
PLANTSmolcadARTend
PLANTSmolcadARTstart HB_WATER
LINES
PLANTSmolcadARTend

PLANTSmolcadARTend

