@<TRIPOS>MOLECULE
aspirin_entry_00001_conf_47
20 20 1
SMALL
NO_CHARGES


@<TRIPOS>ATOM
      1 C          11.2787   24.0994   -5.9217 C.3       1 UNL1        0.0000
      2 C          11.5043   24.6212   -4.5500 C.2       1 UNL1        0.0000
      3 C          11.3698   26.9799   -5.1505 C.ar      1 UNL1        0.0000
      4 C          10.5476   26.9910   -6.2573 C.ar      1 UNL1        0.0000
      5 C          10.4737   28.0502   -7.1402 C.ar      1 UNL1        0.0000
      6 C          11.2612   29.1502   -6.9010 C.ar      1 UNL1        0.0000
      7 C          12.1014   29.1913   -5.8097 C.ar      1 UNL1        0.0000
      8 C          12.1483   28.1013   -4.9393 C.ar      1 UNL1        0.0000
      9 C          13.0505   28.1855   -3.7972 C.2       1 UNL1        0.0000
     10 O          11.7412   23.8625   -3.5616 O.2       1 UNL1        0.0000
     11 O          11.4747   25.9541   -4.2507 O.3       1 UNL1        0.0000
     12 O          13.9254   29.0863   -3.7289 O.co2     1 UNL1       -0.5000
     13 O          12.9811   27.2814   -2.7506 O.co2     1 UNL1       -0.5000
     14 H          11.3503   23.0318   -5.9127 H         1 UNL1        0.0000
     15 H          12.0187   24.5008   -6.5819 H         1 UNL1        0.0000
     16 H          10.3056   24.3897   -6.2579 H         1 UNL1        0.0000
     17 H           9.9562   26.1645   -6.4351 H         1 UNL1        0.0000
     18 H           9.8432   28.0166   -7.9571 H         1 UNL1        0.0000
     19 H          11.2240   29.9549   -7.5460 H         1 UNL1        0.0000
     20 H          12.6902   30.0214   -5.6364 H         1 UNL1        0.0000
@<TRIPOS>BOND
     1    1    2 1
     2    1   14 1
     3    1   15 1
     4    1   16 1
     5    2   10 2
     6    2   11 1
     7    3    4 ar
     8    3    8 ar
     9    3   11 1
    10    4    5 ar
    11    4   17 1
    12    5    6 ar
    13    5   18 1
    14    6    7 ar
    15    6   19 1
    16    7    8 ar
    17    7   20 1
    18    8    9 1
    19    9   12 ar
    20    9   13 ar
@<TRIPOS>SUBSTRUCTURE
1 UNL1 1
@<TRIPOS>COMMENT
aspirin
PLANTSproteinTorsions
24
56 76.6419
113 237.9818
248 250.6830
285 254.6834
405 189.1443
445 99.2044
481 112.3912
510 154.0061
526 96.4021
772 29.5982
870 196.8553
949 298.3455
988 198.5472
1001 172.5745
1037 55.4777
1061 318.4652
1095 127.4029
1133 15.9730
1166 251.6395
1200 353.3455
1301 305.1247
1539 193.8384
1611 42.7796
1693 143.7025
PLANTSmolcadARTstart hb
PLANTSmolcadARTstart HB
LINES
PLANTSmolcadARTstart HBCH
LINES
PLANTSmolcadARTstart HB-CHO
LINES
PLANTSmolcadARTend
PLANTSmolcadARTstart HB_WATER
LINES
PLANTSmolcadARTend

PLANTSmolcadARTend

