@<TRIPOS>MOLECULE
aspirin_entry_00001_conf_56
20 20 1
SMALL
NO_CHARGES


@<TRIPOS>ATOM
      1 C          12.4865   16.6653    3.6391 C.3       1 UNL1        0.0000
      2 C          12.2412   16.4561    2.1897 C.2       1 UNL1        0.0000
      3 C          10.8847   14.4481    2.4539 C.ar      1 UNL1        0.0000
      4 C          11.4525   13.8282    3.5466 C.ar      1 UNL1        0.0000
      5 C          10.8235   12.8345    4.2703 C.ar      1 UNL1        0.0000
      6 C           9.5653   12.4451    3.8796 C.ar      1 UNL1        0.0000
      7 C           8.9516   13.0313    2.7942 C.ar      1 UNL1        0.0000
      8 C           9.6191   14.0330    2.0878 C.ar      1 UNL1        0.0000
      9 C           8.9342   14.6269    0.9459 C.2       1 UNL1        0.0000
     10 O          12.7329   17.2126    1.2982 O.2       1 UNL1        0.0000
     11 O          11.4705   15.4355    1.7088 O.3       1 UNL1        0.0000
     12 O           9.5502   15.3630    0.1333 O.co2     1 UNL1       -0.5000
     13 O           7.5868   14.4068    0.7143 O.co2     1 UNL1       -0.5000
     14 H          13.1158   17.5201    3.7739 H         1 UNL1        0.0000
     15 H          12.9670   15.8010    4.0475 H         1 UNL1        0.0000
     16 H          11.5544   16.8249    4.1389 H         1 UNL1        0.0000
     17 H          12.3972   14.1223    3.8393 H         1 UNL1        0.0000
     18 H          11.2858   12.3970    5.0833 H         1 UNL1        0.0000
     19 H           9.0739   11.7046    4.4044 H         1 UNL1        0.0000
     20 H           8.0059   12.7336    2.5067 H         1 UNL1        0.0000
@<TRIPOS>BOND
     1    1    2 1
     2    1   14 1
     3    1   15 1
     4    1   16 1
     5    2   10 2
     6    2   11 1
     7    3    4 ar
     8    3    8 ar
     9    3   11 1
    10    4    5 ar
    11    4   17 1
    12    5    6 ar
    13    5   18 1
    14    6    7 ar
    15    6   19 1
    16    7    8 ar
    17    7   20 1
    18    8    9 1
    19    9   12 ar
    20    9   13 ar
@<TRIPOS>SUBSTRUCTURE
1 UNL1 1
@<TRIPOS>COMMENT
aspirin
PLANTSproteinTorsions
24
56 153.5997
113 13.4358
248 77.2696
285 70.7466
405 119.5947
445 75.5345
481 313.0746
510 107.3683
526 230.6535
772 46.5659
870 187.2859
949 255.8960
988 85.3503
1001 252.3708
1037 140.5691
1061 125.7953
1095 357.4208
1133 174.8573
1166 130.9758
1200 320.8367
1301 266.7776
1539 234.6885
1611 191.5546
1693 232.6897
PLANTSmolcadARTstart hb
PLANTSmolcadARTstart HB
LINES
PLANTSmolcadARTstart HBCH
LINES
PLANTSmolcadARTstart HB-CHO
LINES
PLANTSmolcadARTend
PLANTSmolcadARTstart HB_WATER
LINES
PLANTSmolcadARTend

PLANTSmolcadARTend

