@<TRIPOS>MOLECULE
aspirin_entry_00001_conf_54_protein
58 34 24
SMALL
NO_CHARGES


@<TRIPOS>ATOM
      1 HH         -2.0160   16.7283   10.5397 H         3 TYR3        0.0000
      2 OH         -1.6020   16.7770   11.4470 O.3       3 TYR3        0.0000
      3 HZ1         0.1714   11.6651    8.0183 H         6 LYS6        0.0000
      4 NZ          0.7290   12.4920    8.0610 N.4       6 LYS6        1.0000
      5 HZ2         1.5722   12.3059    8.5608 H         6 LYS6        0.0000
      6 HZ3         0.2199   13.2202    8.5161 H         6 LYS6        0.0000
      7 HG         -3.3226   14.5591   -8.6793 H        15 SER15       0.0000
      8 OG         -3.1540   13.8910   -7.9560 O.3      15 SER15       0.0000
      9 HG         -1.2015    7.8937   -2.5273 H        18 SER18       0.0000
     10 OG         -0.6150    7.3650   -1.9170 O.3      18 SER18       0.0000
     11 HH          8.9575   10.8953  -11.6062 H        25 TYR25       0.0000
     12 OH          9.8250   11.3330  -11.3900 O.3      25 TYR25       0.0000
     13 HH         22.4975   16.5960   -6.8522 H        28 TYR28       0.0000
     14 OH         22.2670   17.1330   -6.0410 O.3      28 TYR28       0.0000
     15 HZ1        16.2003   10.9309    7.1166 H        31 LYS31       0.0000
     16 NZ         16.3160   10.5650    6.1960 N.4      31 LYS31       1.0000
     17 HZ2        16.9572   11.1318    5.6840 H        31 LYS31       0.0000
     18 HZ3        15.4354   10.5407    5.7268 H        31 LYS31       0.0000
     19 HG         23.6949   12.4603   -3.7410 H        34 SER34       0.0000
     20 OG         24.5230   12.7050   -3.2370 O.3      34 SER34       0.0000
     21 HG1        23.9905   15.9474  -13.3626 H        36 THR36       0.0000
     22 OG1        24.1270   15.4830  -12.4810 O.3      36 THR36       0.0000
     23 HH         10.4851   22.1792    5.3053 H        52 TYR52       0.0000
     24 OH         11.0460   21.3600    5.1880 O.3      52 TYR52       0.0000
     25 HG         22.3673   31.4632   16.9039 H        59 SER59       0.0000
     26 OG         21.4070   31.5140   16.6380 O.3      59 SER59       0.0000
     27 HH         15.1247   15.3926    4.9954 H        64 TYR64       0.0000
     28 OH         15.8460   15.9090    5.4550 O.3      64 TYR64       0.0000
     29 HZ1        10.0505   28.3244   16.1205 H        66 LYS66       0.0000
     30 NZ         10.1520   29.1670   15.6030 N.4      66 LYS66       1.0000
     31 HZ2        11.0054   29.6200   15.8367 H        66 LYS66       0.0000
     32 HZ3         9.3805   29.7707   15.7651 H        66 LYS66       0.0000
     33 HG1         7.1684   22.9985   14.6658 H        67 THR67       0.0000
     34 OG1         6.3160   23.3030   15.1040 O.3      67 THR67       0.0000
     35 HG          0.0397   30.7226   12.0844 H        69 SER69       0.0000
     36 OG          0.5240   31.0060   11.2580 O.3      69 SER69       0.0000
     37 HH         -0.2916   22.1057    8.2919 H        70 TYR70       0.0000
     38 OH          0.0580   22.2220    7.3660 O.3      70 TYR70       0.0000
     39 HG1        -6.6784   28.9338    2.8316 H        73 THR73       0.0000
     40 OG1        -7.4680   28.6970    3.4100 O.3      73 THR73       0.0000
     41 HG1        -5.0182   29.7861   -3.9073 H        76 THR76       0.0000
     42 OG1        -5.5890   30.0600   -3.1300 O.3      76 THR76       0.0000
     43 HG1        -2.9365   31.1007    1.6106 H        78 THR78       0.0000
     44 OG1        -2.4070   31.9470    1.7280 O.3      78 THR78       0.0000
     45 HZ1        -4.5535   31.9321   10.3824 H        80 LYS80       0.0000
     46 NZ         -3.8080   31.2920   10.2060 N.4      80 LYS80       1.0000
     47 HZ2        -4.1813   30.3845   10.0177 H        80 LYS80       0.0000
     48 HZ3        -3.2047   31.2496   11.0008 H        80 LYS80       0.0000
     49 HG         14.5291   32.7688    6.6196 H        89 SER89       0.0000
     50 OG         13.9740   32.5660    5.8140 O.3      89 SER89       0.0000
     51 HH          6.1906    8.5716   -5.8388 H       106 TYR106      0.0000
     52 OH          6.5520    8.2720   -6.7200 O.3     106 TYR106      0.0000
     53 HH          8.7212    4.1120   -1.3807 H       111 TYR111      0.0000
     54 OH          7.9460    4.5620   -1.8170 O.3     111 TYR111      0.0000
     55 HZ1        29.3296    0.5498   -2.9850 H       116 LYS116      0.0000
     56 NZ         28.8420    1.3950   -3.1800 N.4     116 LYS116      1.0000
     57 HZ2        28.0905    1.2208   -3.8098 H       116 LYS116      0.0000
     58 HZ3        29.4638    2.0712   -3.5642 H       116 LYS116      0.0000
@<TRIPOS>BOND
     1    2    1 1
     2    4    5 1
     3    4    3 1
     4    4    6 1
     5    8    7 1
     6   10    9 1
     7   12   11 1
     8   14   13 1
     9   16   15 1
    10   16   17 1
    11   16   18 1
    12   20   19 1
    13   22   21 1
    14   24   23 1
    15   26   25 1
    16   28   27 1
    17   30   29 1
    18   30   31 1
    19   30   32 1
    20   34   33 1
    21   36   35 1
    22   38   37 1
    23   40   39 1
    24   42   41 1
    25   44   43 1
    26   46   45 1
    27   46   48 1
    28   46   47 1
    29   50   49 1
    30   52   51 1
    31   54   53 1
    32   56   55 1
    33   56   57 1
    34   56   58 1
@<TRIPOS>SUBSTRUCTURE
3 TYR3 1
6 LYS6 3
15 SER15 7
18 SER18 9
25 TYR25 11
28 TYR28 13
31 LYS31 15
34 SER34 19
36 THR36 21
52 TYR52 23
59 SER59 25
64 TYR64 27
66 LYS66 29
67 THR67 33
69 SER69 35
70 TYR70 37
73 THR73 39
76 THR76 41
78 THR78 43
80 LYS80 45
89 SER89 49
106 TYR106 51
111 TYR111 53
116 LYS116 55
@<TRIPOS>COMMENT
