@<TRIPOS>MOLECULE
aspirin_entry_00001_conf_97
20 20 1
SMALL
NO_CHARGES


@<TRIPOS>ATOM
      1 C          -6.7647   33.1828    3.3399 C.3       1 UNL1        0.0000
      2 C          -5.5953   33.2813    2.4303 C.2       1 UNL1        0.0000
      3 C          -6.7188   32.3437    0.4806 C.ar      1 UNL1        0.0000
      4 C          -7.5996   31.4288    1.0173 C.ar      1 UNL1        0.0000
      5 C          -8.6819   30.9191    0.3278 C.ar      1 UNL1        0.0000
      6 C          -8.8908   31.3481   -0.9605 C.ar      1 UNL1        0.0000
      7 C          -8.0407   32.2611   -1.5456 C.ar      1 UNL1        0.0000
      8 C          -6.9574   32.7540   -0.8166 C.ar      1 UNL1        0.0000
      9 C          -6.0826   33.7181   -1.4729 C.2       1 UNL1        0.0000
     10 O          -4.4776   33.7502    2.8039 O.2       1 UNL1        0.0000
     11 O          -5.6351   32.8744    1.1265 O.3       1 UNL1        0.0000
     12 O          -5.2696   34.4108   -0.8089 O.co2     1 UNL1       -0.5000
     13 O          -6.1140   33.9091   -2.8440 O.co2     1 UNL1       -0.5000
     14 H          -6.4974   33.5590    4.3053 H         1 UNL1        0.0000
     15 H          -7.0636   32.1592    3.4265 H         1 UNL1        0.0000
     16 H          -7.5742   33.7586    2.9432 H         1 UNL1        0.0000
     17 H          -7.4419   31.1082    1.9852 H         1 UNL1        0.0000
     18 H          -9.3173   30.2351    0.7688 H         1 UNL1        0.0000
     19 H          -9.6930   30.9823   -1.4969 H         1 UNL1        0.0000
     20 H          -8.2041   32.5789   -2.5141 H         1 UNL1        0.0000
@<TRIPOS>BOND
     1    1    2 1
     2    1   14 1
     3    1   15 1
     4    1   16 1
     5    2   10 2
     6    2   11 1
     7    3    4 ar
     8    3    8 ar
     9    3   11 1
    10    4    5 ar
    11    4   17 1
    12    5    6 ar
    13    5   18 1
    14    6    7 ar
    15    6   19 1
    16    7    8 ar
    17    7   20 1
    18    8    9 1
    19    9   12 ar
    20    9   13 ar
@<TRIPOS>SUBSTRUCTURE
1 UNL1 1
@<TRIPOS>COMMENT
aspirin
PLANTSproteinTorsions
24
56 39.4063
113 41.8365
248 117.7038
285 225.3466
405 74.9026
445 205.8138
481 179.9222
510 255.4155
526 215.0551
772 268.1289
870 150.2455
949 123.2050
988 254.4063
1001 259.0951
1037 29.0530
1061 353.6379
1095 247.9854
1133 258.8935
1166 55.7631
1200 244.2778
1301 143.0555
1539 87.3009
1611 84.3269
1693 256.3731
PLANTSmolcadARTstart hb
PLANTSmolcadARTstart HB
LINES
-4.47757 33.7502 2.80386 -3.11736 32.6037 2.00078 0 255 0 5
PLANTSmolcadARTstart HBCH
LINES
PLANTSmolcadARTstart HB-CHO
LINES
PLANTSmolcadARTend
PLANTSmolcadARTstart HB_WATER
LINES
PLANTSmolcadARTend

PLANTSmolcadARTend

