@<TRIPOS>MOLECULE
aspirin_entry_00001_conf_69
20 20 1
SMALL
NO_CHARGES


@<TRIPOS>ATOM
      1 C          11.1165   23.8284   -5.4774 C.3       1 UNL1        0.0000
      2 C          11.1641   25.0623   -4.6527 C.2       1 UNL1        0.0000
      3 C          10.7488   26.6239   -6.4779 C.ar      1 UNL1        0.0000
      4 C           9.8139   25.9480   -7.2330 C.ar      1 UNL1        0.0000
      5 C           9.4879   26.2941   -8.5293 C.ar      1 UNL1        0.0000
      6 C          10.1295   27.3695   -9.0944 C.ar      1 UNL1        0.0000
      7 C          11.0728   28.0799   -8.3845 C.ar      1 UNL1        0.0000
      8 C          11.3753   27.6999   -7.0761 C.ar      1 UNL1        0.0000
      9 C          12.3791   28.4782   -6.3602 C.2       1 UNL1        0.0000
     10 O          11.2664   25.0349   -3.3888 O.2       1 UNL1        0.0000
     11 O          11.1024   26.3162   -5.1921 O.3       1 UNL1        0.0000
     12 O          12.4894   28.3981   -5.1101 O.co2     1 UNL1       -0.5000
     13 O          13.2434   29.3320   -7.0247 O.co2     1 UNL1       -0.5000
     14 H          11.1811   22.9715   -4.8399 H         1 UNL1        0.0000
     15 H          11.9382   23.8258   -6.1625 H         1 UNL1        0.0000
     16 H          10.1969   23.7998   -6.0231 H         1 UNL1        0.0000
     17 H           9.3324   25.1411   -6.8069 H         1 UNL1        0.0000
     18 H           8.7806   25.7600   -9.0589 H         1 UNL1        0.0000
     19 H           9.9033   27.6485  -10.0620 H         1 UNL1        0.0000
     20 H          11.5507   28.8869   -8.8157 H         1 UNL1        0.0000
@<TRIPOS>BOND
     1    1    2 1
     2    1   14 1
     3    1   15 1
     4    1   16 1
     5    2   10 2
     6    2   11 1
     7    3    4 ar
     8    3    8 ar
     9    3   11 1
    10    4    5 ar
    11    4   17 1
    12    5    6 ar
    13    5   18 1
    14    6    7 ar
    15    6   19 1
    16    7    8 ar
    17    7   20 1
    18    8    9 1
    19    9   12 ar
    20    9   13 ar
@<TRIPOS>SUBSTRUCTURE
1 UNL1 1
@<TRIPOS>COMMENT
aspirin
PLANTSproteinTorsions
24
56 89.7747
113 97.0488
248 110.1483
285 186.4118
405 86.6917
445 11.7041
481 30.1994
510 347.4733
526 14.4607
772 176.1251
870 131.2834
949 291.7852
988 341.9470
1001 45.9510
1037 42.4295
1061 100.2468
1095 156.5519
1133 23.6631
1166 228.6257
1200 358.6365
1301 80.0375
1539 18.8822
1611 126.6446
1693 297.9184
PLANTSmolcadARTstart hb
PLANTSmolcadARTstart HB
LINES
PLANTSmolcadARTstart HBCH
LINES
PLANTSmolcadARTstart HB-CHO
LINES
PLANTSmolcadARTend
PLANTSmolcadARTstart HB_WATER
LINES
PLANTSmolcadARTend

PLANTSmolcadARTend

