@<TRIPOS>MOLECULE
aspirin_entry_00001_conf_36
20 20 1
SMALL
NO_CHARGES


@<TRIPOS>ATOM
      1 C          12.4357   16.9698   -0.0701 C.3       1 UNL1        0.0000
      2 C          11.6579   15.8713    0.5569 C.2       1 UNL1        0.0000
      3 C          10.9466   14.6723    2.5566 C.ar      1 UNL1        0.0000
      4 C           9.7176   14.1455    2.2203 C.ar      1 UNL1        0.0000
      5 C           9.1247   13.1011    2.9019 C.ar      1 UNL1        0.0000
      6 C           9.7969   12.5594    3.9706 C.ar      1 UNL1        0.0000
      7 C          11.0280   13.0482    4.3498 C.ar      1 UNL1        0.0000
      8 C          11.5954   14.1047    3.6360 C.ar      1 UNL1        0.0000
      9 C          12.8992   14.5919    4.0701 C.2       1 UNL1        0.0000
     10 O          11.0212   15.0111   -0.1238 O.2       1 UNL1        0.0000
     11 O          11.5706   15.7048    1.9103 O.3       1 UNL1        0.0000
     12 O          13.3325   15.7090    3.6883 O.co2     1 UNL1       -0.5000
     13 O          13.7071   13.8471    4.9129 O.co2     1 UNL1       -0.5000
     14 H          12.3588   16.8976   -1.1349 H         1 UNL1        0.0000
     15 H          13.4626   16.8895    0.2194 H         1 UNL1        0.0000
     16 H          12.0464   17.9120    0.2537 H         1 UNL1        0.0000
     17 H           9.2145   14.5529    1.4170 H         1 UNL1        0.0000
     18 H           8.2021   12.7368    2.6155 H         1 UNL1        0.0000
     19 H           9.3750   11.7778    4.4962 H         1 UNL1        0.0000
     20 H          11.5272   12.6359    5.1539 H         1 UNL1        0.0000
@<TRIPOS>BOND
     1    1    2 1
     2    1   14 1
     3    1   15 1
     4    1   16 1
     5    2   10 2
     6    2   11 1
     7    3    4 ar
     8    3    8 ar
     9    3   11 1
    10    4    5 ar
    11    4   17 1
    12    5    6 ar
    13    5   18 1
    14    6    7 ar
    15    6   19 1
    16    7    8 ar
    17    7   20 1
    18    8    9 1
    19    9   12 ar
    20    9   13 ar
@<TRIPOS>SUBSTRUCTURE
1 UNL1 1
@<TRIPOS>COMMENT
aspirin
PLANTSproteinTorsions
24
56 197.1908
113 75.7581
248 355.2284
285 89.8555
405 181.8327
445 260.5341
481 356.2161
510 318.3415
526 13.7651
772 129.6183
870 91.7302
949 61.6024
988 43.5729
1001 251.3487
1037 100.3528
1061 160.6223
1095 310.2968
1133 6.3030
1166 282.8613
1200 159.7971
1301 78.6019
1539 206.7557
1611 222.2563
1693 265.3449
PLANTSmolcadARTstart hb
PLANTSmolcadARTstart HB
LINES
PLANTSmolcadARTstart HBCH
LINES
PLANTSmolcadARTstart HB-CHO
LINES
PLANTSmolcadARTend
PLANTSmolcadARTstart HB_WATER
LINES
PLANTSmolcadARTend

PLANTSmolcadARTend

