@<TRIPOS>MOLECULE
aspirin_entry_00001_conf_21
20 20 1
SMALL
NO_CHARGES


@<TRIPOS>ATOM
      1 C          12.9979   12.3612    6.4858 C.3       1 UNL1        0.0000
      2 C          13.7537   13.0219    5.3917 C.2       1 UNL1        0.0000
      3 C          11.8266   14.1279    4.3891 C.ar      1 UNL1        0.0000
      4 C          10.7769   13.2824    4.6796 C.ar      1 UNL1        0.0000
      5 C           9.4517   13.6654    4.6190 C.ar      1 UNL1        0.0000
      6 C           9.1661   14.9576    4.2503 C.ar      1 UNL1        0.0000
      7 C          10.1770   15.8440    3.9488 C.ar      1 UNL1        0.0000
      8 C          11.5047   15.4200    4.0218 C.ar      1 UNL1        0.0000
      9 C          12.5436   16.3892    3.6948 C.2       1 UNL1        0.0000
     10 O          15.0117   12.9153    5.2701 O.2       1 UNL1        0.0000
     11 O          13.1524   13.7914    4.4361 O.3       1 UNL1        0.0000
     12 O          13.7590   16.0669    3.7161 O.co2     1 UNL1       -0.5000
     13 O          12.2346   17.6948    3.3521 O.co2     1 UNL1       -0.5000
     14 H          13.6763   11.8154    7.1078 H         1 UNL1        0.0000
     15 H          12.2790   11.6889    6.0667 H         1 UNL1        0.0000
     16 H          12.4948   13.1028    7.0698 H         1 UNL1        0.0000
     17 H          10.9930   12.3124    4.9571 H         1 UNL1        0.0000
     18 H           8.6962   12.9990    4.8455 H         1 UNL1        0.0000
     19 H           8.1834   15.2684    4.1978 H         1 UNL1        0.0000
     20 H           9.9548   16.8136    3.6726 H         1 UNL1        0.0000
@<TRIPOS>BOND
     1    1    2 1
     2    1   14 1
     3    1   15 1
     4    1   16 1
     5    2   10 2
     6    2   11 1
     7    3    4 ar
     8    3    8 ar
     9    3   11 1
    10    4    5 ar
    11    4   17 1
    12    5    6 ar
    13    5   18 1
    14    6    7 ar
    15    6   19 1
    16    7    8 ar
    17    7   20 1
    18    8    9 1
    19    9   12 ar
    20    9   13 ar
@<TRIPOS>SUBSTRUCTURE
1 UNL1 1
@<TRIPOS>COMMENT
aspirin
PLANTSproteinTorsions
24
56 141.9632
113 86.7483
248 34.9638
285 119.0792
405 211.2175
445 332.6112
481 236.8814
510 358.8864
526 222.3816
772 70.6204
870 126.2034
949 263.9964
988 239.1209
1001 232.0867
1037 62.8579
1061 37.4191
1095 293.9522
1133 142.9732
1166 189.8255
1200 255.2221
1301 27.0294
1539 142.2256
1611 94.4974
1693 278.3613
PLANTSmolcadARTstart hb
PLANTSmolcadARTstart HB
LINES
13.759 16.0669 3.71607 15.1037 15.6513 4.838 0 255 0 5
PLANTSmolcadARTstart HBCH
LINES
PLANTSmolcadARTstart HB-CHO
LINES
12.2346 17.6948 3.35207 11.62 19.933 2.538 0 255 255 5
PLANTSmolcadARTend
PLANTSmolcadARTstart HB_WATER
LINES
PLANTSmolcadARTend

PLANTSmolcadARTend

