@<TRIPOS>MOLECULE
aspirin_entry_00001_conf_89
20 20 1
SMALL
NO_CHARGES


@<TRIPOS>ATOM
      1 C          10.3930    9.4294    5.8306 C.3       1 UNL1        0.0000
      2 C           9.3719   10.0820    4.9725 C.2       1 UNL1        0.0000
      3 C          10.7381   12.0128    4.3831 C.ar      1 UNL1        0.0000
      4 C          12.0253   11.5237    4.4525 C.ar      1 UNL1        0.0000
      5 C          13.1432   12.3305    4.5300 C.ar      1 UNL1        0.0000
      6 C          12.9611   13.6922    4.5376 C.ar      1 UNL1        0.0000
      7 C          11.6961   14.2342    4.4707 C.ar      1 UNL1        0.0000
      8 C          10.5904   13.3862    4.3929 C.ar      1 UNL1        0.0000
      9 C           9.2699   14.0005    4.3238 C.2       1 UNL1        0.0000
     10 O           8.2126    9.5964    4.8018 O.2       1 UNL1        0.0000
     11 O           9.6035   11.2515    4.3050 O.3       1 UNL1        0.0000
     12 O           9.1296   15.2460    4.4262 O.co2     1 UNL1       -0.5000
     13 O           8.1258   13.2410    4.1458 O.co2     1 UNL1       -0.5000
     14 H           9.9866    8.5317    6.2475 H         1 UNL1        0.0000
     15 H          10.6725   10.0947    6.6205 H         1 UNL1        0.0000
     16 H          11.2543    9.1926    5.2422 H         1 UNL1        0.0000
     17 H          12.1605   10.5008    4.4459 H         1 UNL1        0.0000
     18 H          14.0900   11.9216    4.5800 H         1 UNL1        0.0000
     19 H          13.7807   14.3167    4.5946 H         1 UNL1        0.0000
     20 H          11.5671   15.2584    4.4767 H         1 UNL1        0.0000
@<TRIPOS>BOND
     1    1    2 1
     2    1   14 1
     3    1   15 1
     4    1   16 1
     5    2   10 2
     6    2   11 1
     7    3    4 ar
     8    3    8 ar
     9    3   11 1
    10    4    5 ar
    11    4   17 1
    12    5    6 ar
    13    5   18 1
    14    6    7 ar
    15    6   19 1
    16    7    8 ar
    17    7   20 1
    18    8    9 1
    19    9   12 ar
    20    9   13 ar
@<TRIPOS>SUBSTRUCTURE
1 UNL1 1
@<TRIPOS>COMMENT
aspirin
PLANTSproteinTorsions
24
56 253.8452
113 103.5493
248 293.2765
285 291.4145
405 213.1127
445 142.5856
481 307.3362
510 121.8698
526 2.3619
772 173.2731
870 51.2451
949 231.5106
988 161.8665
1001 214.4761
1037 189.4273
1061 219.5099
1095 212.2159
1133 116.5350
1166 56.1093
1200 252.2668
1301 88.0252
1539 179.9749
1611 293.9700
1693 262.5222
PLANTSmolcadARTstart hb
PLANTSmolcadARTstart HB
LINES
8.1258 13.241 4.14581 6.321 12.2 3.751 0 255 0 5
PLANTSmolcadARTstart HBCH
LINES
PLANTSmolcadARTstart HB-CHO
LINES
PLANTSmolcadARTend
PLANTSmolcadARTstart HB_WATER
LINES
PLANTSmolcadARTend

PLANTSmolcadARTend

