@<TRIPOS>MOLECULE
aspirin_entry_00001_conf_82
20 20 1
SMALL
NO_CHARGES


@<TRIPOS>ATOM
      1 C         -10.3827   23.0663   -2.5500 C.3       1 UNL1        0.0000
      2 C          -9.7270   23.1062   -1.2184 C.2       1 UNL1        0.0000
      3 C          -9.8971   23.0652    1.2130 C.ar      1 UNL1        0.0000
      4 C          -8.7769   22.3507    1.5813 C.ar      1 UNL1        0.0000
      5 C          -8.2734   22.3339    2.8670 C.ar      1 UNL1        0.0000
      6 C          -8.9239   23.0690    3.8281 C.ar      1 UNL1        0.0000
      7 C         -10.0484   23.8008    3.5143 C.ar      1 UNL1        0.0000
      8 C         -10.5272   23.7934    2.2033 C.ar      1 UNL1        0.0000
      9 C         -11.7194   24.5810    1.9138 C.2       1 UNL1        0.0000
     10 O          -8.4668   23.1397   -1.0789 O.2       1 UNL1        0.0000
     11 O         -10.4300   23.1107   -0.0468 O.3       1 UNL1        0.0000
     12 O         -12.3570   24.4196    0.8420 O.co2     1 UNL1       -0.5000
     13 O         -12.1920   25.5332    2.8014 O.co2     1 UNL1       -0.5000
     14 H          -9.6348   23.0712   -3.3153 H         1 UNL1        0.0000
     15 H         -11.0134   23.9231   -2.6625 H         1 UNL1        0.0000
     16 H         -10.9714   22.1769   -2.6309 H         1 UNL1        0.0000
     17 H          -8.2890   21.7997    0.8582 H         1 UNL1        0.0000
     18 H          -7.4305   21.7846    3.0993 H         1 UNL1        0.0000
     19 H          -8.5671   23.0730    4.7965 H         1 UNL1        0.0000
     20 H         -10.5319   24.3510    4.2418 H         1 UNL1        0.0000
@<TRIPOS>BOND
     1    1    2 1
     2    1   14 1
     3    1   15 1
     4    1   16 1
     5    2   10 2
     6    2   11 1
     7    3    4 ar
     8    3    8 ar
     9    3   11 1
    10    4    5 ar
    11    4   17 1
    12    5    6 ar
    13    5   18 1
    14    6    7 ar
    15    6   19 1
    16    7    8 ar
    17    7   20 1
    18    8    9 1
    19    9   12 ar
    20    9   13 ar
@<TRIPOS>SUBSTRUCTURE
1 UNL1 1
@<TRIPOS>COMMENT
aspirin
PLANTSproteinTorsions
24
56 132.0259
113 111.7715
248 73.3137
285 66.7804
405 82.4185
445 151.8212
481 178.0285
510 102.3863
526 205.2397
772 10.5644
870 85.4730
949 131.0385
988 341.6791
1001 75.0318
1037 91.8704
1061 191.1767
1095 26.1331
1133 209.9626
1166 186.8772
1200 174.8283
1301 220.4125
1539 135.7758
1611 249.3473
1693 282.6788
PLANTSmolcadARTstart hb
PLANTSmolcadARTstart HB
LINES
-8.46677 23.1397 -1.07891 -7.829 24.98 -1.692 0 255 0 5
PLANTSmolcadARTstart HBCH
LINES
PLANTSmolcadARTstart HB-CHO
LINES
PLANTSmolcadARTend
PLANTSmolcadARTstart HB_WATER
LINES
PLANTSmolcadARTend

PLANTSmolcadARTend

