@<TRIPOS>MOLECULE
aspirin_entry_00001_conf_90
20 20 1
SMALL
NO_CHARGES


@<TRIPOS>ATOM
      1 C          -1.4963   36.0590    6.8536 C.3       1 UNL1        0.0000
      2 C          -1.8187   36.1960    8.2965 C.2       1 UNL1        0.0000
      3 C          -4.2257   35.8961    8.0547 C.ar      1 UNL1        0.0000
      4 C          -4.4644   36.4967    6.8368 C.ar      1 UNL1        0.0000
      5 C          -5.6371   36.3363    6.1257 C.ar      1 UNL1        0.0000
      6 C          -6.6161   35.5351    6.6614 C.ar      1 UNL1        0.0000
      7 C          -6.4298   34.9113    7.8758 C.ar      1 UNL1        0.0000
      8 C          -5.2305   35.0973    8.5649 C.ar      1 UNL1        0.0000
      9 C          -5.0741   34.4193    9.8462 C.2       1 UNL1        0.0000
     10 O          -0.9419   36.4809    9.1676 O.2       1 UNL1        0.0000
     11 O          -3.0805   36.0269    8.7926 O.3       1 UNL1        0.0000
     12 O          -5.8898   33.5360   10.2146 O.co2     1 UNL1       -0.5000
     13 O          -4.0289   34.7212   10.7029 O.co2     1 UNL1       -0.5000
     14 H          -0.4517   36.2357    6.7039 H         1 UNL1        0.0000
     15 H          -2.0626   36.7727    6.2927 H         1 UNL1        0.0000
     16 H          -1.7426   35.0710    6.5257 H         1 UNL1        0.0000
     17 H          -3.7279   37.0975    6.4354 H         1 UNL1        0.0000
     18 H          -5.7740   36.8049    5.2159 H         1 UNL1        0.0000
     19 H          -7.5017   35.3990    6.1492 H         1 UNL1        0.0000
     20 H          -7.1700   34.3106    8.2720 H         1 UNL1        0.0000
@<TRIPOS>BOND
     1    1    2 1
     2    1   14 1
     3    1   15 1
     4    1   16 1
     5    2   10 2
     6    2   11 1
     7    3    4 ar
     8    3    8 ar
     9    3   11 1
    10    4    5 ar
    11    4   17 1
    12    5    6 ar
    13    5   18 1
    14    6    7 ar
    15    6   19 1
    16    7    8 ar
    17    7   20 1
    18    8    9 1
    19    9   12 ar
    20    9   13 ar
@<TRIPOS>SUBSTRUCTURE
1 UNL1 1
@<TRIPOS>COMMENT
aspirin
PLANTSproteinTorsions
24
56 166.9263
113 28.1299
248 180.1629
285 71.8281
405 344.3133
445 150.4685
481 114.2988
510 260.2273
526 132.0314
772 332.7484
870 339.6341
949 106.0388
988 329.6722
1001 211.2661
1037 343.6604
1061 348.2598
1095 140.0610
1133 97.4124
1166 137.5288
1200 228.2890
1301 235.0545
1539 126.3640
1611 16.5408
1693 340.1448
PLANTSmolcadARTstart hb
PLANTSmolcadARTstart HB
LINES
-0.941894 36.4809 9.16765 0.769 36.124 8.305 0 255 0 5
PLANTSmolcadARTstart HBCH
LINES
-5.88984 33.536 10.2146 -4.60701 31.8783 10.3261 255 0 0 5
PLANTSmolcadARTstart HB-CHO
LINES
PLANTSmolcadARTend
PLANTSmolcadARTstart HB_WATER
LINES
PLANTSmolcadARTend

PLANTSmolcadARTend

