@<TRIPOS>MOLECULE
aspirin_entry_00001_conf_57
20 20 1
SMALL
NO_CHARGES


@<TRIPOS>ATOM
      1 C          -5.8507   10.9652    5.1941 C.3       1 UNL1        0.0000
      2 C          -5.4927   11.7957    4.0164 C.2       1 UNL1        0.0000
      3 C          -4.2557   12.0770    1.9348 C.ar      1 UNL1        0.0000
      4 C          -5.0325   12.9860    1.2484 C.ar      1 UNL1        0.0000
      5 C          -4.5869   13.6899    0.1472 C.ar      1 UNL1        0.0000
      6 C          -3.3012   13.4720   -0.2851 C.ar      1 UNL1        0.0000
      7 C          -2.4822   12.5741    0.3640 C.ar      1 UNL1        0.0000
      8 C          -2.9683   11.8816    1.4740 C.ar      1 UNL1        0.0000
      9 C          -2.0693   10.9409    2.1317 C.2       1 UNL1        0.0000
     10 O          -5.9407   12.9704    3.8482 O.2       1 UNL1        0.0000
     11 O          -4.6556   11.3586    3.0290 O.3       1 UNL1        0.0000
     12 O          -0.8509   10.8879    1.8248 O.co2     1 UNL1       -0.5000
     13 O          -2.5197   10.0730    3.1123 O.co2     1 UNL1       -0.5000
     14 H          -6.5145   11.5145    5.8285 H         1 UNL1        0.0000
     15 H          -4.9633   10.7158    5.7372 H         1 UNL1        0.0000
     16 H          -6.3312   10.0681    4.8646 H         1 UNL1        0.0000
     17 H          -5.9976   13.1491    1.5748 H         1 UNL1        0.0000
     18 H          -5.2028   14.3622   -0.3373 H         1 UNL1        0.0000
     19 H          -2.9444   13.9861   -1.1059 H         1 UNL1        0.0000
     20 H          -1.5171   12.4157    0.0334 H         1 UNL1        0.0000
@<TRIPOS>BOND
     1    1    2 1
     2    1   14 1
     3    1   15 1
     4    1   16 1
     5    2   10 2
     6    2   11 1
     7    3    4 ar
     8    3    8 ar
     9    3   11 1
    10    4    5 ar
    11    4   17 1
    12    5    6 ar
    13    5   18 1
    14    6    7 ar
    15    6   19 1
    16    7    8 ar
    17    7   20 1
    18    8    9 1
    19    9   12 ar
    20    9   13 ar
@<TRIPOS>SUBSTRUCTURE
1 UNL1 1
@<TRIPOS>COMMENT
aspirin
PLANTSproteinTorsions
24
56 36.6539
113 65.4510
248 156.8011
285 203.5192
405 47.7700
445 73.3327
481 95.5348
510 69.3211
526 168.3477
772 18.7714
870 93.5390
949 302.4811
988 101.3619
1001 258.6537
1037 44.1983
1061 317.7230
1095 242.4711
1133 189.2395
1166 153.5921
1200 270.7257
1301 170.8679
1539 54.0310
1611 170.4277
1693 58.4676
PLANTSmolcadARTstart hb
PLANTSmolcadARTstart HB
LINES
-0.850871 10.8879 1.82485 0.418 11.086 0.528 0 255 0 5
PLANTSmolcadARTstart HBCH
LINES
PLANTSmolcadARTstart HB-CHO
LINES
PLANTSmolcadARTend
PLANTSmolcadARTstart HB_WATER
LINES
PLANTSmolcadARTend

PLANTSmolcadARTend

