@<TRIPOS>MOLECULE
aspirin_entry_00001_conf_42
20 20 1
SMALL
NO_CHARGES


@<TRIPOS>ATOM
      1 C          11.8906   14.9805    4.5369 C.3       1 UNL1        0.0000
      2 C          11.1358   14.7304    3.2829 C.2       1 UNL1        0.0000
      3 C           9.0206   14.1926    4.3687 C.ar      1 UNL1        0.0000
      4 C           9.4089   13.6533    5.5767 C.ar      1 UNL1        0.0000
      5 C           8.5613   13.5205    6.6587 C.ar      1 UNL1        0.0000
      6 C           7.2633   13.9496    6.5224 C.ar      1 UNL1        0.0000
      7 C           6.8227   14.4959    5.3367 C.ar      1 UNL1        0.0000
      8 C           7.7092   14.6140    4.2653 C.ar      1 UNL1        0.0000
      9 C           7.2026   15.1974    3.0289 C.2       1 UNL1        0.0000
     10 O          11.6586   14.8591    2.1345 O.2       1 UNL1        0.0000
     11 O           9.8255   14.3432    3.2721 O.3       1 UNL1        0.0000
     12 O           6.0810   15.7652    2.9934 O.co2     1 UNL1       -0.5000
     13 O           7.9311   15.1475    1.8523 O.co2     1 UNL1       -0.5000
     14 H          12.8924   15.2703    4.2976 H         1 UNL1        0.0000
     15 H          11.9088   14.0876    5.1259 H         1 UNL1        0.0000
     16 H          11.4143   15.7628    5.0895 H         1 UNL1        0.0000
     17 H          10.3842   13.3322    5.6778 H         1 UNL1        0.0000
     18 H           8.8942   13.1108    7.5460 H         1 UNL1        0.0000
     19 H           6.6103   13.8615    7.3167 H         1 UNL1        0.0000
     20 H           5.8459   14.8163    5.2418 H         1 UNL1        0.0000
@<TRIPOS>BOND
     1    1    2 1
     2    1   14 1
     3    1   15 1
     4    1   16 1
     5    2   10 2
     6    2   11 1
     7    3    4 ar
     8    3    8 ar
     9    3   11 1
    10    4    5 ar
    11    4   17 1
    12    5    6 ar
    13    5   18 1
    14    6    7 ar
    15    6   19 1
    16    7    8 ar
    17    7   20 1
    18    8    9 1
    19    9   12 ar
    20    9   13 ar
@<TRIPOS>SUBSTRUCTURE
1 UNL1 1
@<TRIPOS>COMMENT
aspirin
PLANTSproteinTorsions
24
56 145.2704
113 117.6328
248 19.0860
285 172.6518
405 159.2158
445 333.9753
481 322.7722
510 207.6078
526 115.7918
772 15.7995
870 268.1303
949 51.3593
988 73.0342
1001 238.0005
1037 113.0851
1061 155.5888
1095 57.3669
1133 32.4628
1166 208.7582
1200 21.9272
1301 237.2304
1539 125.4322
1611 211.7759
1693 266.0653
PLANTSmolcadARTstart hb
PLANTSmolcadARTstart HB
LINES
PLANTSmolcadARTstart HBCH
LINES
PLANTSmolcadARTstart HB-CHO
LINES
PLANTSmolcadARTend
PLANTSmolcadARTstart HB_WATER
LINES
PLANTSmolcadARTend

PLANTSmolcadARTend

