@<TRIPOS>MOLECULE
aspirin_entry_00001_conf_09
20 20 1
SMALL
NO_CHARGES


@<TRIPOS>ATOM
      1 C          14.3403   18.1991    2.9764 C.3       1 UNL1        0.0000
      2 C          13.4685   16.9971    2.9878 C.2       1 UNL1        0.0000
      3 C          11.3731   15.9285    2.3478 C.ar      1 UNL1        0.0000
      4 C          11.0072   15.2948    3.5163 C.ar      1 UNL1        0.0000
      5 C          10.0347   14.3165    3.5795 C.ar      1 UNL1        0.0000
      6 C           9.3990   13.9577    2.4157 C.ar      1 UNL1        0.0000
      7 C           9.7264   14.5588    1.2199 C.ar      1 UNL1        0.0000
      8 C          10.7146   15.5441    1.1960 C.ar      1 UNL1        0.0000
      9 C          11.0305   16.1547   -0.0897 C.2       1 UNL1        0.0000
     10 O          13.7231   15.9761    3.6959 O.2       1 UNL1        0.0000
     11 O          12.3295   16.9014    2.2392 O.3       1 UNL1        0.0000
     12 O          10.3487   15.8955   -1.1141 O.co2     1 UNL1       -0.5000
     13 O          12.0883   17.0369   -0.2325 O.co2     1 UNL1       -0.5000
     14 H          15.1677   18.0450    3.6371 H         1 UNL1        0.0000
     15 H          13.7785   19.0498    3.3009 H         1 UNL1        0.0000
     16 H          14.7017   18.3678    1.9838 H         1 UNL1        0.0000
     17 H          11.4850   15.5659    4.3897 H         1 UNL1        0.0000
     18 H           9.7914   13.8678    4.4770 H         1 UNL1        0.0000
     19 H           8.6683   13.2292    2.4366 H         1 UNL1        0.0000
     20 H           9.2442   14.2841    0.3494 H         1 UNL1        0.0000
@<TRIPOS>BOND
     1    1    2 1
     2    1   14 1
     3    1   15 1
     4    1   16 1
     5    2   10 2
     6    2   11 1
     7    3    4 ar
     8    3    8 ar
     9    3   11 1
    10    4    5 ar
    11    4   17 1
    12    5    6 ar
    13    5   18 1
    14    6    7 ar
    15    6   19 1
    16    7    8 ar
    17    7   20 1
    18    8    9 1
    19    9   12 ar
    20    9   13 ar
@<TRIPOS>SUBSTRUCTURE
1 UNL1 1
@<TRIPOS>COMMENT
aspirin
PLANTSproteinTorsions
24
56 27.1129
113 149.9918
248 59.4521
285 106.1471
405 24.6483
445 116.7398
481 63.6044
510 148.7617
526 163.8545
772 222.0698
870 219.4171
949 278.0869
988 143.5174
1001 32.1793
1037 24.1766
1061 96.8369
1095 10.2655
1133 250.6242
1166 239.5708
1200 149.1586
1301 127.1618
1539 326.7086
1611 58.7354
1693 264.7227
PLANTSmolcadARTstart hb
PLANTSmolcadARTstart HB
LINES
13.7231 15.9761 3.69592 15.1482 15.8569 4.74193 0 255 0 5
PLANTSmolcadARTstart HBCH
LINES
PLANTSmolcadARTstart HB-CHO
LINES
PLANTSmolcadARTend
PLANTSmolcadARTstart HB_WATER
LINES
PLANTSmolcadARTend

PLANTSmolcadARTend

