@<TRIPOS>MOLECULE
aspirin_entry_00001_conf_27
20 20 1
SMALL
NO_CHARGES


@<TRIPOS>ATOM
      1 C           7.6580   16.0546    4.0223 C.3       1 UNL1        0.0000
      2 C           8.6513   15.0764    4.5333 C.2       1 UNL1        0.0000
      3 C          10.0871   15.1261    2.5639 C.ar      1 UNL1        0.0000
      4 C          11.1799   15.9237    2.2983 C.ar      1 UNL1        0.0000
      5 C          11.5066   16.3706    1.0333 C.ar      1 UNL1        0.0000
      6 C          10.6994   15.9993   -0.0145 C.ar      1 UNL1        0.0000
      7 C           9.5942   15.2036    0.1952 C.ar      1 UNL1        0.0000
      8 C           9.2964   14.7711    1.4883 C.ar      1 UNL1        0.0000
      9 C           8.1183   13.9309    1.6664 C.2       1 UNL1        0.0000
     10 O           8.5677   14.5590    5.6883 O.2       1 UNL1        0.0000
     11 O           9.7264   14.6608    3.7995 O.3       1 UNL1        0.0000
     12 O           7.1746   13.9552    0.8356 O.co2     1 UNL1       -0.5000
     13 O           7.9925   13.0801    2.7518 O.co2     1 UNL1       -0.5000
     14 H           6.9099   16.2250    4.7682 H         1 UNL1        0.0000
     15 H           7.1977   15.6662    3.1380 H         1 UNL1        0.0000
     16 H           8.1506   16.9760    3.7927 H         1 UNL1        0.0000
     17 H          11.7856   16.2011    3.0861 H         1 UNL1        0.0000
     18 H          12.3354   16.9668    0.8791 H         1 UNL1        0.0000
     19 H          10.9224   16.3201   -0.9697 H         1 UNL1        0.0000
     20 H           8.9923   14.9284   -0.5971 H         1 UNL1        0.0000
@<TRIPOS>BOND
     1    1    2 1
     2    1   14 1
     3    1   15 1
     4    1   16 1
     5    2   10 2
     6    2   11 1
     7    3    4 ar
     8    3    8 ar
     9    3   11 1
    10    4    5 ar
    11    4   17 1
    12    5    6 ar
    13    5   18 1
    14    6    7 ar
    15    6   19 1
    16    7    8 ar
    17    7   20 1
    18    8    9 1
    19    9   12 ar
    20    9   13 ar
@<TRIPOS>SUBSTRUCTURE
1 UNL1 1
@<TRIPOS>COMMENT
aspirin
PLANTSproteinTorsions
24
56 60.6170
113 98.4872
248 280.4468
285 211.9508
405 133.8169
445 215.0427
481 71.2860
510 217.3416
526 315.4713
772 11.6416
870 46.8282
949 288.2449
988 224.5209
1001 191.3100
1037 35.7648
1061 35.6701
1095 348.3692
1133 285.6877
1166 263.6198
1200 203.4391
1301 149.5195
1539 252.9243
1611 236.1769
1693 197.6304
PLANTSmolcadARTstart hb
PLANTSmolcadARTstart HB
LINES
7.99248 13.0801 2.75175 6.321 12.2 3.751 0 255 0 5
PLANTSmolcadARTstart HBCH
LINES
PLANTSmolcadARTstart HB-CHO
LINES
PLANTSmolcadARTend
PLANTSmolcadARTstart HB_WATER
LINES
PLANTSmolcadARTend

PLANTSmolcadARTend

