@<TRIPOS>MOLECULE
aspirin_entry_00001_conf_71
20 20 1
SMALL
NO_CHARGES


@<TRIPOS>ATOM
      1 C          -4.4811   13.5354    1.9802 C.3       1 UNL1        0.0000
      2 C          -4.5508   13.1172    0.5572 C.2       1 UNL1        0.0000
      3 C          -2.9933   11.2533    0.7632 C.ar      1 UNL1        0.0000
      4 C          -2.0323   11.7306    1.6290 C.ar      1 UNL1        0.0000
      5 C          -1.1443   10.9169    2.3043 C.ar      1 UNL1        0.0000
      6 C          -1.2248    9.5605    2.1020 C.ar      1 UNL1        0.0000
      7 C          -2.1662    9.0303    1.2470 C.ar      1 UNL1        0.0000
      8 C          -3.0470    9.8849    0.5825 C.ar      1 UNL1        0.0000
      9 C          -4.0277    9.2830   -0.3130 C.2       1 UNL1        0.0000
     10 O          -5.2277   13.7511   -0.3081 O.2       1 UNL1        0.0000
     11 O          -3.8922   12.0217    0.0743 O.3       1 UNL1        0.0000
     12 O          -5.0298    9.9332   -0.7060 O.co2     1 UNL1       -0.5000
     13 O          -3.8957    7.9795   -0.7612 O.co2     1 UNL1       -0.5000
     14 H          -5.0729   14.4155    2.1220 H         1 UNL1        0.0000
     15 H          -3.4646   13.7435    2.2411 H         1 UNL1        0.0000
     16 H          -4.8550   12.7490    2.6015 H         1 UNL1        0.0000
     17 H          -1.9736   12.7495    1.7804 H         1 UNL1        0.0000
     18 H          -0.4398   11.3170    2.9444 H         1 UNL1        0.0000
     19 H          -0.5724    8.9310    2.5953 H         1 UNL1        0.0000
     20 H          -2.2208    8.0099    1.1002 H         1 UNL1        0.0000
@<TRIPOS>BOND
     1    1    2 1
     2    1   14 1
     3    1   15 1
     4    1   16 1
     5    2   10 2
     6    2   11 1
     7    3    4 ar
     8    3    8 ar
     9    3   11 1
    10    4    5 ar
    11    4   17 1
    12    5    6 ar
    13    5   18 1
    14    6    7 ar
    15    6   19 1
    16    7    8 ar
    17    7   20 1
    18    8    9 1
    19    9   12 ar
    20    9   13 ar
@<TRIPOS>SUBSTRUCTURE
1 UNL1 1
@<TRIPOS>COMMENT
aspirin
PLANTSproteinTorsions
24
56 219.8238
113 145.9899
248 171.9898
285 37.6825
405 298.1620
445 188.0912
481 303.9437
510 36.4046
526 295.1796
772 34.5063
870 250.0138
949 263.8860
988 117.2422
1001 92.4244
1037 3.4919
1061 283.7703
1095 45.9390
1133 115.0573
1166 51.2760
1200 262.3956
1301 244.4689
1539 313.8094
1611 240.0342
1693 188.8849
PLANTSmolcadARTstart hb
PLANTSmolcadARTstart HB
LINES
PLANTSmolcadARTstart HBCH
LINES
PLANTSmolcadARTstart HB-CHO
LINES
PLANTSmolcadARTend
PLANTSmolcadARTstart HB_WATER
LINES
PLANTSmolcadARTend

PLANTSmolcadARTend

