@<TRIPOS>MOLECULE
aspirin_entry_00001_conf_78
20 20 1
SMALL
NO_CHARGES


@<TRIPOS>ATOM
      1 C          -6.1639   16.4939   -8.3969 C.3       1 UNL1        0.0000
      2 C          -6.2986   17.8309   -7.7650 C.2       1 UNL1        0.0000
      3 C          -3.9599   18.4659   -8.0286 C.ar      1 UNL1        0.0000
      4 C          -3.2984   17.2590   -7.9455 C.ar      1 UNL1        0.0000
      5 C          -1.9957   17.0745   -8.3645 C.ar      1 UNL1        0.0000
      6 C          -1.3254   18.1512   -8.8924 C.ar      1 UNL1        0.0000
      7 C          -1.9391   19.3803   -8.9982 C.ar      1 UNL1        0.0000
      8 C          -3.2574   19.5278   -8.5642 C.ar      1 UNL1        0.0000
      9 C          -3.8693   20.8448   -8.6939 C.2       1 UNL1        0.0000
     10 O          -7.4009   18.2625   -7.3095 O.2       1 UNL1        0.0000
     11 O          -5.2481   18.6935   -7.6264 O.3       1 UNL1        0.0000
     12 O          -3.3121   21.7543   -9.3600 O.co2     1 UNL1       -0.5000
     13 O          -5.0793   21.1442   -8.0907 O.co2     1 UNL1       -0.5000
     14 H          -7.1135   16.0008   -8.3925 H         1 UNL1        0.0000
     15 H          -5.4563   15.9096   -7.8471 H         1 UNL1        0.0000
     16 H          -5.8252   16.6088   -9.4050 H         1 UNL1        0.0000
     17 H          -3.8034   16.4512   -7.5494 H         1 UNL1        0.0000
     18 H          -1.5383   16.1523   -8.2840 H         1 UNL1        0.0000
     19 H          -0.3509   18.0390   -9.2131 H         1 UNL1        0.0000
     20 H          -1.4291   20.1849   -9.3961 H         1 UNL1        0.0000
@<TRIPOS>BOND
     1    1    2 1
     2    1   14 1
     3    1   15 1
     4    1   16 1
     5    2   10 2
     6    2   11 1
     7    3    4 ar
     8    3    8 ar
     9    3   11 1
    10    4    5 ar
    11    4   17 1
    12    5    6 ar
    13    5   18 1
    14    6    7 ar
    15    6   19 1
    16    7    8 ar
    17    7   20 1
    18    8    9 1
    19    9   12 ar
    20    9   13 ar
@<TRIPOS>SUBSTRUCTURE
1 UNL1 1
@<TRIPOS>COMMENT
aspirin
PLANTSproteinTorsions
24
56 124.0101
113 66.7236
248 330.7310
285 10.3848
405 21.9394
445 50.0284
481 174.8750
510 181.0462
526 48.9975
772 147.1445
870 103.1112
949 116.8582
988 17.2136
1001 161.7489
1037 233.3179
1061 51.0620
1095 192.9225
1133 239.5324
1166 334.6294
1200 238.9947
1301 38.1882
1539 129.7998
1611 194.4183
1693 113.5913
PLANTSmolcadARTstart hb
PLANTSmolcadARTstart HB
LINES
PLANTSmolcadARTstart HBCH
LINES
PLANTSmolcadARTstart HB-CHO
LINES
PLANTSmolcadARTend
PLANTSmolcadARTstart HB_WATER
LINES
PLANTSmolcadARTend

PLANTSmolcadARTend

