@<TRIPOS>MOLECULE
aspirin_entry_00001_conf_35
20 20 1
SMALL
NO_CHARGES


@<TRIPOS>ATOM
      1 C          -0.5448    8.6610    3.5144 C.3       1 UNL1        0.0000
      2 C          -1.1702    9.8038    2.8019 C.2       1 UNL1        0.0000
      3 C          -2.3140   10.6875    0.8389 C.ar      1 UNL1        0.0000
      4 C          -2.0786   12.0415    0.9489 C.ar      1 UNL1        0.0000
      5 C          -2.7761   12.9959    0.2352 C.ar      1 UNL1        0.0000
      6 C          -3.7553   12.5717   -0.6301 C.ar      1 UNL1        0.0000
      7 C          -4.0318   11.2300   -0.7781 C.ar      1 UNL1        0.0000
      8 C          -3.3051   10.2949   -0.0396 C.ar      1 UNL1        0.0000
      9 C          -3.6292    8.8857   -0.2260 C.2       1 UNL1        0.0000
     10 O          -1.3021   10.9487    3.3316 O.2       1 UNL1        0.0000
     11 O          -1.6482    9.7084    1.5254 O.3       1 UNL1        0.0000
     12 O          -4.4197    8.5180   -1.1323 O.co2     1 UNL1       -0.5000
     13 O          -3.0844    7.9036    0.5841 O.co2     1 UNL1       -0.5000
     14 H          -0.2481    8.9719    4.4943 H         1 UNL1        0.0000
     15 H           0.3144    8.3290    2.9703 H         1 UNL1        0.0000
     16 H          -1.2498    7.8602    3.5913 H         1 UNL1        0.0000
     17 H          -1.3424   12.3584    1.5985 H         1 UNL1        0.0000
     18 H          -2.5668   14.0006    0.3481 H         1 UNL1        0.0000
     19 H          -4.2907   13.2655   -1.1752 H         1 UNL1        0.0000
     20 H          -4.7690   10.9188   -1.4303 H         1 UNL1        0.0000
@<TRIPOS>BOND
     1    1    2 1
     2    1   14 1
     3    1   15 1
     4    1   16 1
     5    2   10 2
     6    2   11 1
     7    3    4 ar
     8    3    8 ar
     9    3   11 1
    10    4    5 ar
    11    4   17 1
    12    5    6 ar
    13    5   18 1
    14    6    7 ar
    15    6   19 1
    16    7    8 ar
    17    7   20 1
    18    8    9 1
    19    9   12 ar
    20    9   13 ar
@<TRIPOS>SUBSTRUCTURE
1 UNL1 1
@<TRIPOS>COMMENT
aspirin
PLANTSproteinTorsions
24
56 80.3779
113 163.0545
248 36.1436
285 229.4368
405 144.4399
445 194.2065
481 87.1102
510 175.5675
526 99.9564
772 171.5824
870 30.8062
949 269.7231
988 140.3116
1001 209.7669
1037 134.0601
1061 171.6343
1095 122.0146
1133 291.6087
1166 38.7804
1200 113.5607
1301 194.2165
1539 233.0782
1611 83.6732
1693 207.0802
PLANTSmolcadARTstart hb
PLANTSmolcadARTstart HB
LINES
-1.30215 10.9487 3.33162 -1.171 12.864 3.882 0 255 0 5
PLANTSmolcadARTstart HBCH
LINES
PLANTSmolcadARTstart HB-CHO
LINES
PLANTSmolcadARTend
PLANTSmolcadARTstart HB_WATER
LINES
PLANTSmolcadARTend

PLANTSmolcadARTend

