@<TRIPOS>MOLECULE
aspirin_entry_00001_conf_91_protein
58 34 24
SMALL
NO_CHARGES


@<TRIPOS>ATOM
      1 HH         -1.8126   16.2713   12.2818 H         3 TYR3        0.0000
      2 OH         -1.6020   16.7770   11.4470 O.3       3 TYR3        0.0000
      3 HZ1         0.8947   13.2489    8.6904 H         6 LYS6        0.0000
      4 NZ          0.7290   12.4920    8.0610 N.4       6 LYS6        1.0000
      5 HZ2        -0.2325   12.2279    8.0953 H         6 LYS6        0.0000
      6 HZ3         1.3025   11.7136    8.3096 H         6 LYS6        0.0000
      7 HG         -3.2091   14.2173   -8.8986 H        15 SER15       0.0000
      8 OG         -3.1540   13.8910   -7.9560 O.3      15 SER15       0.0000
      9 HG         -1.1945    7.8937   -2.5339 H        18 SER18       0.0000
     10 OG         -0.6150    7.3650   -1.9170 O.3      18 SER18       0.0000
     11 HH          9.0614   11.9654  -11.4789 H        25 TYR25       0.0000
     12 OH          9.8250   11.3330  -11.3900 O.3      25 TYR25       0.0000
     13 HH         22.7209   16.2840   -6.3108 H        28 TYR28       0.0000
     14 OH         22.2670   17.1330   -6.0410 O.3      28 TYR28       0.0000
     15 HZ1        17.0586   11.1898    5.9659 H        31 LYS31       0.0000
     16 NZ         16.3160   10.5650    6.1960 N.4      31 LYS31       1.0000
     17 HZ2        15.6153   10.5955    5.4870 H        31 LYS31       0.0000
     18 HZ3        15.9192   10.8184    7.0761 H        31 LYS31       0.0000
     19 HG         23.5560   12.4768   -3.1248 H        34 SER34       0.0000
     20 OG         24.5230   12.7050   -3.2370 O.3      34 SER34       0.0000
     21 HG1        24.9456   14.8998  -12.5186 H        36 THR36       0.0000
     22 OG1        24.1270   15.4830  -12.4810 O.3      36 THR36       0.0000
     23 HH         10.4596   22.1697    5.1762 H        52 TYR52       0.0000
     24 OH         11.0460   21.3600    5.1880 O.3      52 TYR52       0.0000
     25 HG         22.3563   31.2768   16.8333 H        59 SER59       0.0000
     26 OG         21.4070   31.5140   16.6380 O.3      59 SER59       0.0000
     27 HH         15.1645   15.9009    4.7245 H        64 TYR64       0.0000
     28 OH         15.8460   15.9090    5.4550 O.3      64 TYR64       0.0000
     29 HZ1         9.3433   29.7181   15.7772 H        66 LYS66       0.0000
     30 NZ         10.1520   29.1670   15.6030 N.4      66 LYS66       1.0000
     31 HZ2        10.1164   28.3202   16.1224 H        66 LYS66       0.0000
     32 HZ3        10.9752   29.6769   15.8226 H        66 LYS66       0.0000
     33 HG1         5.5566   22.6751   14.9031 H        67 THR67       0.0000
     34 OG1         6.3160   23.3030   15.1040 O.3      67 THR67       0.0000
     35 HG          0.0891   30.3189   10.6778 H        69 SER69       0.0000
     36 OG          0.5240   31.0060   11.2580 O.3      69 SER69       0.0000
     37 HH         -0.6600   22.1634    8.0545 H        70 TYR70       0.0000
     38 OH          0.0580   22.2220    7.3660 O.3      70 TYR70       0.0000
     39 HG1        -6.5697   28.6813    2.9552 H        73 THR73       0.0000
     40 OG1        -7.4680   28.6970    3.4100 O.3      73 THR73       0.0000
     41 HG1        -5.7647   31.0467   -3.1519 H        76 THR76       0.0000
     42 OG1        -5.5890   30.0600   -3.1300 O.3      76 THR76       0.0000
     43 HG1        -2.6054   31.0585    1.3020 H        78 THR78       0.0000
     44 OG1        -2.4070   31.9470    1.7280 O.3      78 THR78       0.0000
     45 HZ1        -4.2234   32.0794   10.6578 H        80 LYS80       0.0000
     46 NZ         -3.8080   31.2920   10.2060 N.4      80 LYS80       1.0000
     47 HZ2        -4.5224   30.6627    9.9028 H        80 LYS80       0.0000
     48 HZ3        -3.1942   30.8243   10.8401 H        80 LYS80       0.0000
     49 HG         14.4211   32.8081    6.6741 H        89 SER89       0.0000
     50 OG         13.9740   32.5660    5.8140 O.3      89 SER89       0.0000
     51 HH          6.4021    8.6983   -5.8297 H       106 TYR106      0.0000
     52 OH          6.5520    8.2720   -6.7200 O.3     106 TYR106      0.0000
     53 HH          8.3158    3.6639   -1.5925 H       111 TYR111      0.0000
     54 OH          7.9460    4.5620   -1.8170 O.3     111 TYR111      0.0000
     55 HZ1        29.7515    1.7755   -3.3144 H       116 LYS116      0.0000
     56 NZ         28.8420    1.3950   -3.1800 N.4     116 LYS116      1.0000
     57 HZ2        28.8908    0.4024   -3.1157 H       116 LYS116      0.0000
     58 HZ3        28.2420    1.6627   -3.9282 H       116 LYS116      0.0000
@<TRIPOS>BOND
     1    2    1 1
     2    4    5 1
     3    4    3 1
     4    4    6 1
     5    8    7 1
     6   10    9 1
     7   12   11 1
     8   14   13 1
     9   16   15 1
    10   16   17 1
    11   16   18 1
    12   20   19 1
    13   22   21 1
    14   24   23 1
    15   26   25 1
    16   28   27 1
    17   30   29 1
    18   30   31 1
    19   30   32 1
    20   34   33 1
    21   36   35 1
    22   38   37 1
    23   40   39 1
    24   42   41 1
    25   44   43 1
    26   46   45 1
    27   46   48 1
    28   46   47 1
    29   50   49 1
    30   52   51 1
    31   54   53 1
    32   56   55 1
    33   56   57 1
    34   56   58 1
@<TRIPOS>SUBSTRUCTURE
3 TYR3 1
6 LYS6 3
15 SER15 7
18 SER18 9
25 TYR25 11
28 TYR28 13
31 LYS31 15
34 SER34 19
36 THR36 21
52 TYR52 23
59 SER59 25
64 TYR64 27
66 LYS66 29
67 THR67 33
69 SER69 35
70 TYR70 37
73 THR73 39
76 THR76 41
78 THR78 43
80 LYS80 45
89 SER89 49
106 TYR106 51
111 TYR111 53
116 LYS116 55
@<TRIPOS>COMMENT
