@<TRIPOS>MOLECULE
aspirin_entry_00001_conf_84
20 20 1
SMALL
NO_CHARGES


@<TRIPOS>ATOM
      1 C          14.2886   16.1281    2.1116 C.3       1 UNL1        0.0000
      2 C          13.2969   17.0688    2.6916 C.2       1 UNL1        0.0000
      3 C          11.4485   16.4464    1.2294 C.ar      1 UNL1        0.0000
      4 C          11.3999   16.9531   -0.0519 C.ar      1 UNL1        0.0000
      5 C          10.8493   16.2720   -1.1195 C.ar      1 UNL1        0.0000
      6 C          10.3236   15.0235   -0.8909 C.ar      1 UNL1        0.0000
      7 C          10.3457   14.4700    0.3707 C.ar      1 UNL1        0.0000
      8 C          10.9112   15.1889    1.4248 C.ar      1 UNL1        0.0000
      9 C          10.9142   14.5670    2.7434 C.2       1 UNL1        0.0000
     10 O          13.6037   17.9232    3.5774 O.2       1 UNL1        0.0000
     11 O          11.9836   17.0852    2.3151 O.3       1 UNL1        0.0000
     12 O          11.1726   15.2383    3.7749 O.co2     1 UNL1       -0.5000
     13 O          10.6363   13.2206    2.9102 O.co2     1 UNL1       -0.5000
     14 H          15.2461   16.3010    2.5569 H         1 UNL1        0.0000
     15 H          14.3532   16.2851    1.0553 H         1 UNL1        0.0000
     16 H          13.9807   15.1221    2.3046 H         1 UNL1        0.0000
     17 H          11.7958   17.8905   -0.2222 H         1 UNL1        0.0000
     18 H          10.8342   16.6893   -2.0639 H         1 UNL1        0.0000
     19 H           9.9066   14.4940   -1.6725 H         1 UNL1        0.0000
     20 H           9.9488   13.5312    0.5348 H         1 UNL1        0.0000
@<TRIPOS>BOND
     1    1    2 1
     2    1   14 1
     3    1   15 1
     4    1   16 1
     5    2   10 2
     6    2   11 1
     7    3    4 ar
     8    3    8 ar
     9    3   11 1
    10    4    5 ar
    11    4   17 1
    12    5    6 ar
    13    5   18 1
    14    6    7 ar
    15    6   19 1
    16    7    8 ar
    17    7   20 1
    18    8    9 1
    19    9   12 ar
    20    9   13 ar
@<TRIPOS>SUBSTRUCTURE
1 UNL1 1
@<TRIPOS>COMMENT
aspirin
PLANTSproteinTorsions
24
56 146.1226
113 351.0475
248 358.8131
285 232.5757
405 65.0487
445 212.1856
481 274.5693
510 26.0870
526 313.7767
772 212.2758
870 49.4430
949 155.1198
988 95.3593
1001 349.4918
1037 72.0837
1061 164.5856
1095 166.8005
1133 352.1464
1166 179.0023
1200 147.1125
1301 65.0900
1539 169.5210
1611 18.2938
1693 225.4333
PLANTSmolcadARTstart hb
PLANTSmolcadARTstart HB
LINES
PLANTSmolcadARTstart HBCH
LINES
PLANTSmolcadARTstart HB-CHO
LINES
PLANTSmolcadARTend
PLANTSmolcadARTstart HB_WATER
LINES
PLANTSmolcadARTend

PLANTSmolcadARTend

