@<TRIPOS>MOLECULE
aspirin_entry_00001_conf_12
20 20 1
SMALL
NO_CHARGES


@<TRIPOS>ATOM
      1 C          12.6230   16.9650    2.9502 C.3       1 UNL1        0.0000
      2 C          12.6694   15.5224    3.2986 C.2       1 UNL1        0.0000
      3 C          10.8319   14.8542    1.8428 C.ar      1 UNL1        0.0000
      4 C          11.0405   15.4835    0.6339 C.ar      1 UNL1        0.0000
      5 C          10.0387   15.7113   -0.2887 C.ar      1 UNL1        0.0000
      6 C           8.7679   15.2870    0.0156 C.ar      1 UNL1        0.0000
      7 C           8.5039   14.6532    1.2102 C.ar      1 UNL1        0.0000
      8 C           9.5429   14.4404    2.1175 C.ar      1 UNL1        0.0000
      9 C           9.2208   13.7663    3.3694 C.2       1 UNL1        0.0000
     10 O          13.5273   15.0409    4.0991 O.2       1 UNL1        0.0000
     11 O          11.7934   14.6081    2.7851 O.3       1 UNL1        0.0000
     12 O           9.9516   13.9015    4.3838 O.co2     1 UNL1       -0.5000
     13 O           8.1056   12.9541    3.4889 O.co2     1 UNL1       -0.5000
     14 H          13.4014   17.4823    3.4712 H         1 UNL1        0.0000
     15 H          11.6741   17.3697    3.2339 H         1 UNL1        0.0000
     16 H          12.7596   17.0816    1.8957 H         1 UNL1        0.0000
     17 H          11.9956   15.8008    0.4064 H         1 UNL1        0.0000
     18 H          10.2394   16.1865   -1.1831 H         1 UNL1        0.0000
     19 H           8.0018   15.4452   -0.6575 H         1 UNL1        0.0000
     20 H           7.5465   14.3370    1.4319 H         1 UNL1        0.0000
@<TRIPOS>BOND
     1    1    2 1
     2    1   14 1
     3    1   15 1
     4    1   16 1
     5    2   10 2
     6    2   11 1
     7    3    4 ar
     8    3    8 ar
     9    3   11 1
    10    4    5 ar
    11    4   17 1
    12    5    6 ar
    13    5   18 1
    14    6    7 ar
    15    6   19 1
    16    7    8 ar
    17    7   20 1
    18    8    9 1
    19    9   12 ar
    20    9   13 ar
@<TRIPOS>SUBSTRUCTURE
1 UNL1 1
@<TRIPOS>COMMENT
aspirin
PLANTSproteinTorsions
24
56 42.2242
113 8.6395
248 314.1828
285 170.1675
405 338.3067
445 4.9412
481 135.7698
510 91.6816
526 338.6483
772 191.1429
870 189.3089
949 17.9106
988 3.0531
1001 198.3583
1037 92.3462
1061 33.5501
1095 187.1955
1133 228.9020
1166 145.1286
1200 265.5613
1301 109.5718
1539 260.2971
1611 8.5187
1693 242.4787
PLANTSmolcadARTstart hb
PLANTSmolcadARTstart HB
LINES
8.10556 12.9541 3.48891 6.321 12.2 3.751 0 255 0 5
PLANTSmolcadARTstart HBCH
LINES
PLANTSmolcadARTstart HB-CHO
LINES
PLANTSmolcadARTend
PLANTSmolcadARTstart HB_WATER
LINES
PLANTSmolcadARTend

PLANTSmolcadARTend

