@<TRIPOS>MOLECULE
aspirin_entry_00001_conf_77
20 20 1
SMALL
NO_CHARGES


@<TRIPOS>ATOM
      1 C           7.4590   16.4624  -19.2854 C.3       1 UNL1        0.0000
      2 C           7.7207   15.1086  -19.8362 C.2       1 UNL1        0.0000
      3 C           8.7443   14.2041  -17.8172 C.ar      1 UNL1        0.0000
      4 C           9.3911   15.3083  -17.3042 C.ar      1 UNL1        0.0000
      5 C           9.8754   15.3752  -16.0128 C.ar      1 UNL1        0.0000
      6 C           9.7018   14.2832  -15.1975 C.ar      1 UNL1        0.0000
      7 C           9.0627   13.1534  -15.6597 C.ar      1 UNL1        0.0000
      8 C           8.5865   13.1235  -16.9712 C.ar      1 UNL1        0.0000
      9 C           7.9163   11.9091  -17.4204 C.2       1 UNL1        0.0000
     10 O           7.4714   14.8022  -21.0415 O.2       1 UNL1        0.0000
     11 O           8.2491   14.0944  -19.0883 O.3       1 UNL1        0.0000
     12 O           7.6022   11.0042  -16.6054 O.co2     1 UNL1       -0.5000
     13 O           7.6033   11.7050  -18.7538 O.co2     1 UNL1       -0.5000
     14 H           7.0474   17.0852  -20.0520 H         1 UNL1        0.0000
     15 H           8.3758   16.8877  -18.9345 H         1 UNL1        0.0000
     16 H           6.7661   16.3891  -18.4737 H         1 UNL1        0.0000
     17 H           9.5200   16.1279  -17.9174 H         1 UNL1        0.0000
     18 H          10.3539   16.2232  -15.6691 H         1 UNL1        0.0000
     19 H          10.0545   14.3085  -14.2279 H         1 UNL1        0.0000
     20 H           8.9358   12.3367  -15.0412 H         1 UNL1        0.0000
@<TRIPOS>BOND
     1    1    2 1
     2    1   14 1
     3    1   15 1
     4    1   16 1
     5    2   10 2
     6    2   11 1
     7    3    4 ar
     8    3    8 ar
     9    3   11 1
    10    4    5 ar
    11    4   17 1
    12    5    6 ar
    13    5   18 1
    14    6    7 ar
    15    6   19 1
    16    7    8 ar
    17    7   20 1
    18    8    9 1
    19    9   12 ar
    20    9   13 ar
@<TRIPOS>SUBSTRUCTURE
1 UNL1 1
@<TRIPOS>COMMENT
aspirin
PLANTSproteinTorsions
24
56 92.6734
113 236.0833
248 286.4684
285 352.0587
405 71.9726
445 217.6909
481 0.1788
510 78.1434
526 55.6451
772 343.4845
870 236.4561
949 260.8857
988 276.6823
1001 287.0840
1037 115.5566
1061 42.6467
1095 11.3027
1133 238.1835
1166 229.9874
1200 261.3539
1301 237.9237
1539 244.5285
1611 123.9860
1693 227.4192
PLANTSmolcadARTstart hb
PLANTSmolcadARTstart HB
LINES
PLANTSmolcadARTstart HBCH
LINES
PLANTSmolcadARTstart HB-CHO
LINES
PLANTSmolcadARTend
PLANTSmolcadARTstart HB_WATER
LINES
PLANTSmolcadARTend

PLANTSmolcadARTend

