@<TRIPOS>MOLECULE
aspirin_entry_00001_conf_99
20 20 1
SMALL
NO_CHARGES


@<TRIPOS>ATOM
      1 C          11.2405   33.5308    1.6244 C.3       1 UNL1        0.0000
      2 C          12.5349   32.9013    1.9891 C.2       1 UNL1        0.0000
      3 C          14.2498   31.2197    1.5726 C.ar      1 UNL1        0.0000
      4 C          14.4760   30.4961    2.7242 C.ar      1 UNL1        0.0000
      5 C          15.6617   29.8405    2.9908 C.ar      1 UNL1        0.0000
      6 C          16.6674   29.9137    2.0578 C.ar      1 UNL1        0.0000
      7 C          16.4946   30.6239    0.8898 C.ar      1 UNL1        0.0000
      8 C          15.2815   31.2731    0.6556 C.ar      1 UNL1        0.0000
      9 C          15.1400   32.0133   -0.5925 C.2       1 UNL1        0.0000
     10 O          13.2111   33.2664    2.9981 O.2       1 UNL1        0.0000
     11 O          13.0926   31.8837    1.2676 O.3       1 UNL1        0.0000
     12 O          14.0055   32.3390   -1.0266 O.co2     1 UNL1       -0.5000
     13 O          16.2423   32.3825   -1.3450 O.co2     1 UNL1       -0.5000
     14 H          11.0068   34.2994    2.3313 H         1 UNL1        0.0000
     15 H          10.4686   32.7901    1.6350 H         1 UNL1        0.0000
     16 H          11.3140   33.9555    0.6454 H         1 UNL1        0.0000
     17 H          13.7195   30.4414    3.4236 H         1 UNL1        0.0000
     18 H          15.7884   29.3090    3.8669 H         1 UNL1        0.0000
     19 H          17.5631   29.4321    2.2335 H         1 UNL1        0.0000
     20 H          17.2548   30.6743    0.1933 H         1 UNL1        0.0000
@<TRIPOS>BOND
     1    1    2 1
     2    1   14 1
     3    1   15 1
     4    1   16 1
     5    2   10 2
     6    2   11 1
     7    3    4 ar
     8    3    8 ar
     9    3   11 1
    10    4    5 ar
    11    4   17 1
    12    5    6 ar
    13    5   18 1
    14    6    7 ar
    15    6   19 1
    16    7    8 ar
    17    7   20 1
    18    8    9 1
    19    9   12 ar
    20    9   13 ar
@<TRIPOS>SUBSTRUCTURE
1 UNL1 1
@<TRIPOS>COMMENT
aspirin
PLANTSproteinTorsions
24
56 303.3909
113 164.0592
248 46.1190
285 240.4324
405 155.0499
445 350.3826
481 57.8382
510 218.9558
526 158.2579
772 224.8657
870 9.9971
949 64.7498
988 3.8038
1001 98.9666
1037 221.7515
1061 77.5779
1095 258.5220
1133 275.7705
1166 217.9779
1200 258.3333
1301 141.1996
1539 239.7121
1611 13.0975
1693 172.0604
PLANTSmolcadARTstart hb
PLANTSmolcadARTstart HB
LINES
PLANTSmolcadARTstart HBCH
LINES
PLANTSmolcadARTstart HB-CHO
LINES
PLANTSmolcadARTend
PLANTSmolcadARTstart HB_WATER
LINES
PLANTSmolcadARTend

PLANTSmolcadARTend

