@<TRIPOS>MOLECULE
aspirin_entry_00001_conf_28
20 20 1
SMALL
NO_CHARGES


@<TRIPOS>ATOM
      1 C          10.3578   11.3290    4.2002 C.3       1 UNL1        0.0000
      2 C          10.2473   11.7755    5.6120 C.2       1 UNL1        0.0000
      3 C           8.7411   13.6394    5.1654 C.ar      1 UNL1        0.0000
      4 C           9.1242   14.0478    3.9055 C.ar      1 UNL1        0.0000
      5 C           8.3513   14.8618    3.1012 C.ar      1 UNL1        0.0000
      6 C           7.1366   15.2853    3.5835 C.ar      1 UNL1        0.0000
      7 C           6.7053   14.9072    4.8363 C.ar      1 UNL1        0.0000
      8 C           7.5144   14.0831    5.6199 C.ar      1 UNL1        0.0000
      9 C           7.0207   13.7065    6.9390 C.2       1 UNL1        0.0000
     10 O          10.8661   11.2025    6.5594 O.2       1 UNL1        0.0000
     11 O           9.4738   12.8346    5.9952 O.3       1 UNL1        0.0000
     12 O           5.8302   13.9348    7.2737 O.co2     1 UNL1       -0.5000
     13 O           7.8389   13.0885    7.8697 O.co2     1 UNL1       -0.5000
     14 H          11.0163   10.4875    4.1434 H         1 UNL1        0.0000
     15 H          10.7470   12.1271    3.6034 H         1 UNL1        0.0000
     16 H           9.3905   11.0514    3.8375 H         1 UNL1        0.0000
     17 H          10.0363   13.7283    3.5444 H         1 UNL1        0.0000
     18 H           8.6770   15.1435    2.1628 H         1 UNL1        0.0000
     19 H           6.5402   15.8942    3.0015 H         1 UNL1        0.0000
     20 H           5.7913   15.2293    5.1919 H         1 UNL1        0.0000
@<TRIPOS>BOND
     1    1    2 1
     2    1   14 1
     3    1   15 1
     4    1   16 1
     5    2   10 2
     6    2   11 1
     7    3    4 ar
     8    3    8 ar
     9    3   11 1
    10    4    5 ar
    11    4   17 1
    12    5    6 ar
    13    5   18 1
    14    6    7 ar
    15    6   19 1
    16    7    8 ar
    17    7   20 1
    18    8    9 1
    19    9   12 ar
    20    9   13 ar
@<TRIPOS>SUBSTRUCTURE
1 UNL1 1
@<TRIPOS>COMMENT
aspirin
PLANTSproteinTorsions
24
56 314.4095
113 56.4421
248 185.7875
285 312.5384
405 131.7357
445 116.8612
481 97.4837
510 77.2969
526 1.1009
772 25.2194
870 175.3350
949 296.7698
988 46.1970
1001 296.5780
1037 94.9838
1061 320.7191
1095 136.7254
1133 336.7875
1166 178.1255
1200 175.5912
1301 145.4315
1539 187.6891
1611 310.2501
1693 60.9389
PLANTSmolcadARTstart hb
PLANTSmolcadARTstart HB
LINES
PLANTSmolcadARTstart HBCH
LINES
PLANTSmolcadARTstart HB-CHO
LINES
PLANTSmolcadARTend
PLANTSmolcadARTstart HB_WATER
LINES
PLANTSmolcadARTend

PLANTSmolcadARTend

