@<TRIPOS>MOLECULE
aspirin_entry_00001_conf_88
20 20 1
SMALL
NO_CHARGES


@<TRIPOS>ATOM
      1 C          13.0031   13.4992    9.9020 C.3       1 UNL1        0.0000
      2 C          13.3617   13.1744   11.3058 C.2       1 UNL1        0.0000
      3 C          11.6378   14.5592   12.3319 C.ar      1 UNL1        0.0000
      4 C          11.5356   15.6113   11.4468 C.ar      1 UNL1        0.0000
      5 C          10.4759   16.4967   11.4358 C.ar      1 UNL1        0.0000
      6 C           9.4714   16.3174   12.3557 C.ar      1 UNL1        0.0000
      7 C           9.5238   15.2823   13.2635 C.ar      1 UNL1        0.0000
      8 C          10.6111   14.4075   13.2434 C.ar      1 UNL1        0.0000
      9 C          10.6276   13.3258   14.2208 C.2       1 UNL1        0.0000
     10 O          14.3396   12.4237   11.6041 O.2       1 UNL1        0.0000
     11 O          12.6679   13.6592   12.3784 O.3       1 UNL1        0.0000
     12 O          11.6835   12.6863   14.4604 O.co2     1 UNL1       -0.5000
     13 O           9.4877   12.9615   14.9177 O.co2     1 UNL1       -0.5000
     14 H          13.6845   13.0096    9.2381 H         1 UNL1        0.0000
     15 H          13.0607   14.5574    9.7552 H         1 UNL1        0.0000
     16 H          12.0067   13.1651    9.7023 H         1 UNL1        0.0000
     17 H          12.2904   15.7442   10.7561 H         1 UNL1        0.0000
     18 H          10.4393   17.2715   10.7543 H         1 UNL1        0.0000
     19 H           8.6684   16.9656   12.3677 H         1 UNL1        0.0000
     20 H           8.7651   15.1538   13.9517 H         1 UNL1        0.0000
@<TRIPOS>BOND
     1    1    2 1
     2    1   14 1
     3    1   15 1
     4    1   16 1
     5    2   10 2
     6    2   11 1
     7    3    4 ar
     8    3    8 ar
     9    3   11 1
    10    4    5 ar
    11    4   17 1
    12    5    6 ar
    13    5   18 1
    14    6    7 ar
    15    6   19 1
    16    7    8 ar
    17    7   20 1
    18    8    9 1
    19    9   12 ar
    20    9   13 ar
@<TRIPOS>SUBSTRUCTURE
1 UNL1 1
@<TRIPOS>COMMENT
aspirin
PLANTSproteinTorsions
24
56 157.6286
113 229.5235
248 75.8125
285 296.3493
405 51.2036
445 147.5374
481 173.0262
510 344.9886
526 115.7060
772 59.0797
870 59.1785
949 55.4628
988 269.3456
1001 289.4446
1037 59.2256
1061 290.9384
1095 98.9133
1133 58.9160
1166 189.1649
1200 237.1631
1301 178.9064
1539 210.4653
1611 160.9736
1693 270.0322
PLANTSmolcadARTstart hb
PLANTSmolcadARTstart HB
LINES
PLANTSmolcadARTstart HBCH
LINES
PLANTSmolcadARTstart HB-CHO
LINES
PLANTSmolcadARTend
PLANTSmolcadARTstart HB_WATER
LINES
PLANTSmolcadARTend

PLANTSmolcadARTend

