@<TRIPOS>MOLECULE
aspirin_entry_00001_conf_75
20 20 1
SMALL
NO_CHARGES


@<TRIPOS>ATOM
      1 C          12.3447   26.0742   19.0075 C.3       1 UNL1        0.0000
      2 C          11.7617   26.2554   17.6539 C.2       1 UNL1        0.0000
      3 C          11.4017   23.8838   17.2199 C.ar      1 UNL1        0.0000
      4 C          12.5628   23.1574   17.3790 C.ar      1 UNL1        0.0000
      5 C          12.5830   21.8190   17.7178 C.ar      1 UNL1        0.0000
      6 C          11.3818   21.1795   17.9067 C.ar      1 UNL1        0.0000
      7 C          10.1916   21.8580   17.7599 C.ar      1 UNL1        0.0000
      8 C          10.2117   23.2107   17.4170 C.ar      1 UNL1        0.0000
      9 C           8.9304   23.8911   17.2717 C.2       1 UNL1        0.0000
     10 O          11.6211   27.3966   17.1185 O.2       1 UNL1        0.0000
     11 O          11.3350   25.2093   16.8855 O.3       1 UNL1        0.0000
     12 O           8.8522   25.0077   16.6984 O.co2     1 UNL1       -0.5000
     13 O           7.7574   23.3388   17.7580 O.co2     1 UNL1       -0.5000
     14 H          12.6048   27.0294   19.4137 H         1 UNL1        0.0000
     15 H          13.2216   25.4652   18.9391 H         1 UNL1        0.0000
     16 H          11.6283   25.5981   19.6433 H         1 UNL1        0.0000
     17 H          13.4640   23.6393   17.2375 H         1 UNL1        0.0000
     18 H          13.4763   21.3130   17.8271 H         1 UNL1        0.0000
     19 H          11.3702   20.1792   18.1608 H         1 UNL1        0.0000
     20 H           9.2929   21.3708   17.9036 H         1 UNL1        0.0000
@<TRIPOS>BOND
     1    1    2 1
     2    1   14 1
     3    1   15 1
     4    1   16 1
     5    2   10 2
     6    2   11 1
     7    3    4 ar
     8    3    8 ar
     9    3   11 1
    10    4    5 ar
    11    4   17 1
    12    5    6 ar
    13    5   18 1
    14    6    7 ar
    15    6   19 1
    16    7    8 ar
    17    7   20 1
    18    8    9 1
    19    9   12 ar
    20    9   13 ar
@<TRIPOS>SUBSTRUCTURE
1 UNL1 1
@<TRIPOS>COMMENT
aspirin
PLANTSproteinTorsions
24
56 122.8649
113 260.3963
248 342.5143
285 186.2945
405 118.5906
445 132.1271
481 63.3460
510 213.2128
526 188.4953
772 181.6250
870 230.5186
949 20.3084
988 111.2194
1001 177.5112
1037 23.4738
1061 91.4866
1095 72.1645
1133 217.3976
1166 46.8232
1200 100.4127
1301 67.3909
1539 186.8420
1611 60.3253
1693 261.2975
PLANTSmolcadARTstart hb
PLANTSmolcadARTstart HB
LINES
11.6211 27.3966 17.1185 10.8778 28.6633 16.0587 0 255 0 5
8.85216 25.0077 16.6984 8.602 24.965 14.609 0 255 0 5
PLANTSmolcadARTstart HBCH
LINES
PLANTSmolcadARTstart HB-CHO
LINES
PLANTSmolcadARTend
PLANTSmolcadARTstart HB_WATER
LINES
PLANTSmolcadARTend

PLANTSmolcadARTend

