@<TRIPOS>MOLECULE
aspirin_entry_00001_conf_94
20 20 1
SMALL
NO_CHARGES


@<TRIPOS>ATOM
      1 C           1.6158   20.5817  -15.8153 C.3       1 UNL1        0.0000
      2 C           2.8549   20.3670  -16.6049 C.2       1 UNL1        0.0000
      3 C           3.0036   17.9690  -16.1930 C.ar      1 UNL1        0.0000
      4 C           2.4919   17.8564  -14.9177 C.ar      1 UNL1        0.0000
      5 C           2.0882   16.6583  -14.3625 C.ar      1 UNL1        0.0000
      6 C           2.2025   15.5198  -15.1229 C.ar      1 UNL1        0.0000
      7 C           2.7078   15.5757  -16.4035 C.ar      1 UNL1        0.0000
      8 C           3.1052   16.8054  -16.9304 C.ar      1 UNL1        0.0000
      9 C           3.6343   16.8204  -18.2889 C.2       1 UNL1        0.0000
     10 O           3.4783   21.3171  -17.1683 O.2       1 UNL1        0.0000
     11 O           3.4153   19.1336  -16.7824 O.3       1 UNL1        0.0000
     12 O           3.5397   15.8097  -19.0313 O.co2     1 UNL1       -0.5000
     13 O           4.2596   17.9403  -18.8107 O.co2     1 UNL1       -0.5000
     14 H           1.3697   21.6231  -15.8152 H         1 UNL1        0.0000
     15 H           1.7726   20.2524  -14.8096 H         1 UNL1        0.0000
     16 H           0.8138   20.0247  -16.2522 H         1 UNL1        0.0000
     17 H           2.4060   18.7124  -14.3482 H         1 UNL1        0.0000
     18 H           1.7098   16.6194  -13.4026 H         1 UNL1        0.0000
     19 H           1.9072   14.6120  -14.7307 H         1 UNL1        0.0000
     20 H           2.7906   14.7160  -16.9689 H         1 UNL1        0.0000
@<TRIPOS>BOND
     1    1    2 1
     2    1   14 1
     3    1   15 1
     4    1   16 1
     5    2   10 2
     6    2   11 1
     7    3    4 ar
     8    3    8 ar
     9    3   11 1
    10    4    5 ar
    11    4   17 1
    12    5    6 ar
    13    5   18 1
    14    6    7 ar
    15    6   19 1
    16    7    8 ar
    17    7   20 1
    18    8    9 1
    19    9   12 ar
    20    9   13 ar
@<TRIPOS>SUBSTRUCTURE
1 UNL1 1
@<TRIPOS>COMMENT
aspirin
PLANTSproteinTorsions
24
56 70.5289
113 89.9057
248 345.9020
285 72.0456
405 352.1422
445 296.1793
481 287.8143
510 152.5546
526 132.4259
772 278.7925
870 98.6474
949 110.6112
988 101.6020
1001 7.4449
1037 95.8461
1061 309.8068
1095 197.7274
1133 136.3476
1166 194.0098
1200 282.2231
1301 258.3266
1539 99.2462
1611 127.4799
1693 216.1054
PLANTSmolcadARTstart hb
PLANTSmolcadARTstart HB
LINES
PLANTSmolcadARTstart HBCH
LINES
PLANTSmolcadARTstart HB-CHO
LINES
PLANTSmolcadARTend
PLANTSmolcadARTstart HB_WATER
LINES
PLANTSmolcadARTend

PLANTSmolcadARTend

