@<TRIPOS>MOLECULE
aspirin_entry_00001_conf_34
20 20 1
SMALL
NO_CHARGES


@<TRIPOS>ATOM
      1 C           9.4095   17.4270   13.2071 C.3       1 UNL1        0.0000
      2 C           8.5118   16.7833   12.2149 C.2       1 UNL1        0.0000
      3 C          10.1420   15.1541   11.4211 C.ar      1 UNL1        0.0000
      4 C          11.3270   15.8525   11.3255 C.ar      1 UNL1        0.0000
      5 C          12.5673   15.2465   11.2928 C.ar      1 UNL1        0.0000
      6 C          12.6213   13.8754   11.3599 C.ar      1 UNL1        0.0000
      7 C          11.4674   13.1287   11.4559 C.ar      1 UNL1        0.0000
      8 C          10.2319   13.7772   11.4866 C.ar      1 UNL1        0.0000
      9 C           9.0357   12.9500   11.5887 C.2       1 UNL1        0.0000
     10 O           7.3278   17.1861   12.0034 O.2       1 UNL1        0.0000
     11 O           8.8930   15.7124   11.4567 O.3       1 UNL1        0.0000
     12 O           7.8970   13.4708   11.7056 O.co2     1 UNL1       -0.5000
     13 O           9.1065   11.5673   11.5633 O.co2     1 UNL1       -0.5000
     14 H           8.8967   18.2409   13.6758 H         1 UNL1        0.0000
     15 H          10.2834   17.7945   12.7113 H         1 UNL1        0.0000
     16 H           9.6946   16.7098   13.9478 H         1 UNL1        0.0000
     17 H          11.2848   16.8822   11.2759 H         1 UNL1        0.0000
     18 H          13.4304   15.8086   11.2209 H         1 UNL1        0.0000
     19 H          13.5364   13.3987   11.3376 H         1 UNL1        0.0000
     20 H          11.5158   12.0987   11.5060 H         1 UNL1        0.0000
@<TRIPOS>BOND
     1    1    2 1
     2    1   14 1
     3    1   15 1
     4    1   16 1
     5    2   10 2
     6    2   11 1
     7    3    4 ar
     8    3    8 ar
     9    3   11 1
    10    4    5 ar
    11    4   17 1
    12    5    6 ar
    13    5   18 1
    14    6    7 ar
    15    6   19 1
    16    7    8 ar
    17    7   20 1
    18    8    9 1
    19    9   12 ar
    20    9   13 ar
@<TRIPOS>SUBSTRUCTURE
1 UNL1 1
@<TRIPOS>COMMENT
aspirin
PLANTSproteinTorsions
24
56 7.8689
113 255.7520
248 88.6743
285 236.0143
405 168.5278
445 268.9599
481 6.3776
510 308.8240
526 151.0382
772 104.8481
870 213.5690
949 38.1614
988 312.9034
1001 207.2057
1037 168.4748
1061 178.5705
1095 357.1908
1133 230.5785
1166 220.8057
1200 272.9711
1301 239.6634
1539 136.4575
1611 220.8572
1693 189.9832
PLANTSmolcadARTstart hb
PLANTSmolcadARTstart HB
LINES
7.32781 17.1861 12.0034 6.478 17.749 10.188 0 255 0 5
PLANTSmolcadARTstart HBCH
LINES
PLANTSmolcadARTstart HB-CHO
LINES
PLANTSmolcadARTend
PLANTSmolcadARTstart HB_WATER
LINES
PLANTSmolcadARTend

PLANTSmolcadARTend

