@<TRIPOS>MOLECULE
aspirin_entry_00001_conf_05
20 20 1
SMALL
NO_CHARGES


@<TRIPOS>ATOM
      1 C          10.9033   17.5805   -0.9673 C.3       1 UNL1        0.0000
      2 C          12.2479   17.1679   -0.4912 C.2       1 UNL1        0.0000
      3 C          11.4595   15.6036    1.2040 C.ar      1 UNL1        0.0000
      4 C          10.3305   15.0892    0.6026 C.ar      1 UNL1        0.0000
      5 C           9.3737   14.3584    1.2787 C.ar      1 UNL1        0.0000
      6 C           9.5587   14.1324    2.6211 C.ar      1 UNL1        0.0000
      7 C          10.6692   14.6242    3.2719 C.ar      1 UNL1        0.0000
      8 C          11.6149   15.3583    2.5545 C.ar      1 UNL1        0.0000
      9 C          12.7750   15.8604    3.2810 C.2       1 UNL1        0.0000
     10 O          13.3187   17.5655   -1.0424 O.2       1 UNL1        0.0000
     11 O          12.4319   16.3319    0.5738 O.3       1 UNL1        0.0000
     12 O          13.0504   15.4366    4.4325 O.co2     1 UNL1       -0.5000
     13 O          13.6122   16.8191    2.7355 O.co2     1 UNL1       -0.5000
     14 H          11.0084   18.2339   -1.8081 H         1 UNL1        0.0000
     15 H          10.3882   18.0915   -0.1810 H         1 UNL1        0.0000
     16 H          10.3457   16.7142   -1.2550 H         1 UNL1        0.0000
     17 H          10.1934   15.2590   -0.4057 H         1 UNL1        0.0000
     18 H           8.5425   13.9911    0.7885 H         1 UNL1        0.0000
     19 H           8.8579   13.5888    3.1489 H         1 UNL1        0.0000
     20 H          10.8015   14.4503    4.2808 H         1 UNL1        0.0000
@<TRIPOS>BOND
     1    1    2 1
     2    1   14 1
     3    1   15 1
     4    1   16 1
     5    2   10 2
     6    2   11 1
     7    3    4 ar
     8    3    8 ar
     9    3   11 1
    10    4    5 ar
    11    4   17 1
    12    5    6 ar
    13    5   18 1
    14    6    7 ar
    15    6   19 1
    16    7    8 ar
    17    7   20 1
    18    8    9 1
    19    9   12 ar
    20    9   13 ar
@<TRIPOS>SUBSTRUCTURE
1 UNL1 1
@<TRIPOS>COMMENT
aspirin
PLANTSproteinTorsions
24
56 304.0835
113 82.6927
248 353.7402
285 251.8240
405 174.4855
445 140.6264
481 177.0358
510 264.7122
526 321.5972
772 223.6558
870 214.7784
949 262.2370
988 152.2952
1001 342.6530
1037 19.2022
1061 106.2536
1095 253.7156
1133 318.6904
1166 121.2569
1200 286.5718
1301 137.4318
1539 181.0734
1611 40.7307
1693 105.5006
PLANTSmolcadARTstart hb
PLANTSmolcadARTstart HB
LINES
13.0504 15.4366 4.43248 15.1018 15.6259 4.85161 0 255 0 5
PLANTSmolcadARTstart HBCH
LINES
PLANTSmolcadARTstart HB-CHO
LINES
PLANTSmolcadARTend
PLANTSmolcadARTstart HB_WATER
LINES
PLANTSmolcadARTend

PLANTSmolcadARTend

