@<TRIPOS>MOLECULE
aspirin_entry_00001_conf_64
20 20 1
SMALL
NO_CHARGES


@<TRIPOS>ATOM
      1 C           0.4372   16.4211   -9.3440 C.3       1 UNL1        0.0000
      2 C           0.5523   15.3542  -10.3702 C.2       1 UNL1        0.0000
      3 C           1.6199   14.4800  -12.3797 C.ar      1 UNL1        0.0000
      4 C           1.6329   13.1276  -12.1119 C.ar      1 UNL1        0.0000
      5 C           1.9029   12.1654  -13.0648 C.ar      1 UNL1        0.0000
      6 C           2.1718   12.5796  -14.3468 C.ar      1 UNL1        0.0000
      7 C           2.1725   13.9193  -14.6689 C.ar      1 UNL1        0.0000
      8 C           1.8945   14.8624  -13.6784 C.ar      1 UNL1        0.0000
      9 C           1.9053   16.2692  -14.0613 C.2       1 UNL1        0.0000
     10 O          -0.0921   14.2642  -10.2967 O.2       1 UNL1        0.0000
     11 O           1.3579   15.4666  -11.4681 O.3       1 UNL1        0.0000
     12 O           2.3546   16.6322  -15.1783 O.co2     1 UNL1       -0.5000
     13 O           1.4262   17.2544  -13.2143 O.co2     1 UNL1       -0.5000
     14 H          -0.2486   16.1110   -8.5834 H         1 UNL1        0.0000
     15 H           0.0791   17.3191   -9.8022 H         1 UNL1        0.0000
     16 H           1.3972   16.6014   -8.9081 H         1 UNL1        0.0000
     17 H           1.4300   12.8181  -11.1489 H         1 UNL1        0.0000
     18 H           1.9017   11.1622  -12.8206 H         1 UNL1        0.0000
     19 H           2.3765   11.8798  -15.0772 H         1 UNL1        0.0000
     20 H           2.3753   14.2229  -15.6345 H         1 UNL1        0.0000
@<TRIPOS>BOND
     1    1    2 1
     2    1   14 1
     3    1   15 1
     4    1   16 1
     5    2   10 2
     6    2   11 1
     7    3    4 ar
     8    3    8 ar
     9    3   11 1
    10    4    5 ar
    11    4   17 1
    12    5    6 ar
    13    5   18 1
    14    6    7 ar
    15    6   19 1
    16    7    8 ar
    17    7   20 1
    18    8    9 1
    19    9   12 ar
    20    9   13 ar
@<TRIPOS>SUBSTRUCTURE
1 UNL1 1
@<TRIPOS>COMMENT
aspirin
PLANTSproteinTorsions
24
56 23.8439
113 220.3353
248 188.5833
285 18.6239
405 59.9765
445 143.0876
481 308.5060
510 189.9684
526 14.6380
772 350.6592
870 173.2375
949 27.0967
988 26.3044
1001 22.0253
1037 102.8119
1061 353.4427
1095 227.9715
1133 245.3800
1166 85.1317
1200 76.6914
1301 123.6786
1539 234.9357
1611 200.2887
1693 139.5914
PLANTSmolcadARTstart hb
PLANTSmolcadARTstart HB
LINES
PLANTSmolcadARTstart HBCH
LINES
PLANTSmolcadARTstart HB-CHO
LINES
PLANTSmolcadARTend
PLANTSmolcadARTstart HB_WATER
LINES
PLANTSmolcadARTend

PLANTSmolcadARTend

