@<TRIPOS>MOLECULE
aspirin_entry_00001_conf_59
20 20 1
SMALL
NO_CHARGES


@<TRIPOS>ATOM
      1 C          -0.9244   17.8833   -9.1888 C.3       1 UNL1        0.0000
      2 C          -1.6959   16.6242   -9.0328 C.2       1 UNL1        0.0000
      3 C           0.1911   15.1171   -9.3648 C.ar      1 UNL1        0.0000
      4 C           1.2188   15.8065   -8.7569 C.ar      1 UNL1        0.0000
      5 C           2.5528   15.4970   -8.9344 C.ar      1 UNL1        0.0000
      6 C           2.8704   14.4458   -9.7599 C.ar      1 UNL1        0.0000
      7 C           1.8824   13.7233  -10.3927 C.ar      1 UNL1        0.0000
      8 C           0.5451   14.0661  -10.1883 C.ar      1 UNL1        0.0000
      9 C          -0.4688   13.2762  -10.8766 C.2       1 UNL1        0.0000
     10 O          -2.9244   16.6112   -8.7175 O.2       1 UNL1        0.0000
     11 O          -1.1422   15.3888   -9.2176 O.3       1 UNL1        0.0000
     12 O          -0.1515   12.4647  -11.7833 O.co2     1 UNL1       -0.5000
     13 O          -1.8126   13.3897  -10.5621 O.co2     1 UNL1       -0.5000
     14 H          -1.5643   18.7190   -8.9964 H         1 UNL1        0.0000
     15 H          -0.5449   17.9473  -10.1871 H         1 UNL1        0.0000
     16 H          -0.1093   17.8899   -8.4962 H         1 UNL1        0.0000
     17 H           0.9786   16.5953   -8.1367 H         1 UNL1        0.0000
     18 H           3.2910   16.0400   -8.4589 H         1 UNL1        0.0000
     19 H           3.8603   14.1943   -9.9086 H         1 UNL1        0.0000
     20 H           2.1288   12.9346  -11.0115 H         1 UNL1        0.0000
@<TRIPOS>BOND
     1    1    2 1
     2    1   14 1
     3    1   15 1
     4    1   16 1
     5    2   10 2
     6    2   11 1
     7    3    4 ar
     8    3    8 ar
     9    3   11 1
    10    4    5 ar
    11    4   17 1
    12    5    6 ar
    13    5   18 1
    14    6    7 ar
    15    6   19 1
    16    7    8 ar
    17    7   20 1
    18    8    9 1
    19    9   12 ar
    20    9   13 ar
@<TRIPOS>SUBSTRUCTURE
1 UNL1 1
@<TRIPOS>COMMENT
aspirin
PLANTSproteinTorsions
24
56 108.7938
113 36.4919
248 160.6260
285 121.6555
405 357.0318
445 134.6539
481 341.2226
510 0.3759
526 85.9351
772 134.1042
870 28.7077
949 93.9669
988 233.3662
1001 40.1418
1037 35.9222
1061 206.5377
1095 227.0673
1133 211.6574
1166 308.4291
1200 165.7305
1301 199.0947
1539 239.8448
1611 241.9522
1693 102.0066
PLANTSmolcadARTstart hb
PLANTSmolcadARTstart HB
LINES
-1.81264 13.3897 -10.5621 -2.76376 13.4369 -8.75567 0 255 0 5
PLANTSmolcadARTstart HBCH
LINES
PLANTSmolcadARTstart HB-CHO
LINES
PLANTSmolcadARTend
PLANTSmolcadARTstart HB_WATER
LINES
PLANTSmolcadARTend

PLANTSmolcadARTend

