@<TRIPOS>MOLECULE
aspirin_entry_00001_conf_58
20 20 1
SMALL
NO_CHARGES


@<TRIPOS>ATOM
      1 C           6.1898   17.1933   13.4477 C.3       1 UNL1        0.0000
      2 C           7.4601   17.2125   12.6790 C.2       1 UNL1        0.0000
      3 C           8.8794   17.8310   14.5619 C.ar      1 UNL1        0.0000
      4 C           8.6195   19.0594   15.1315 C.ar      1 UNL1        0.0000
      5 C           8.8501   19.3455   16.4625 C.ar      1 UNL1        0.0000
      6 C           9.3649   18.3521   17.2597 C.ar      1 UNL1        0.0000
      7 C           9.6434   17.1062   16.7415 C.ar      1 UNL1        0.0000
      8 C           9.3965   16.8547   15.3911 C.ar      1 UNL1        0.0000
      9 C           9.7053   15.5235   14.8831 C.2       1 UNL1        0.0000
     10 O           7.5102   16.9595   11.4372 O.2       1 UNL1        0.0000
     11 O           8.6667   17.5041   13.2500 O.3       1 UNL1        0.0000
     12 O           9.2521   15.1317   13.7774 O.co2     1 UNL1       -0.5000
     13 O          10.5029   14.6432   15.5949 O.co2     1 UNL1       -0.5000
     14 H           5.3815   16.9417   12.7932 H         1 UNL1        0.0000
     15 H           6.0163   18.1593   13.8734 H         1 UNL1        0.0000
     16 H           6.2570   16.4659   14.2291 H         1 UNL1        0.0000
     17 H           8.2322   19.8042   14.5316 H         1 UNL1        0.0000
     18 H           8.6403   20.2800   16.8481 H         1 UNL1        0.0000
     19 H           9.5458   18.5408   18.2581 H         1 UNL1        0.0000
     20 H          10.0300   16.3646   17.3468 H         1 UNL1        0.0000
@<TRIPOS>BOND
     1    1    2 1
     2    1   14 1
     3    1   15 1
     4    1   16 1
     5    2   10 2
     6    2   11 1
     7    3    4 ar
     8    3    8 ar
     9    3   11 1
    10    4    5 ar
    11    4   17 1
    12    5    6 ar
    13    5   18 1
    14    6    7 ar
    15    6   19 1
    16    7    8 ar
    17    7   20 1
    18    8    9 1
    19    9   12 ar
    20    9   13 ar
@<TRIPOS>SUBSTRUCTURE
1 UNL1 1
@<TRIPOS>COMMENT
aspirin
PLANTSproteinTorsions
24
56 203.6203
113 30.1533
248 31.5989
285 331.6726
405 266.4774
445 43.4787
481 137.4400
510 124.6941
526 37.0748
772 171.1916
870 173.3709
949 232.8968
988 339.8591
1001 204.9978
1037 347.1618
1061 110.1151
1095 303.6912
1133 36.6243
1166 89.3752
1200 182.6710
1301 101.2067
1539 176.3380
1611 162.5316
1693 119.1035
PLANTSmolcadARTstart hb
PLANTSmolcadARTstart HB
LINES
7.51018 16.9595 11.4372 6.478 17.749 10.188 0 255 0 5
PLANTSmolcadARTstart HBCH
LINES
PLANTSmolcadARTstart HB-CHO
LINES
PLANTSmolcadARTend
PLANTSmolcadARTstart HB_WATER
LINES
PLANTSmolcadARTend

PLANTSmolcadARTend

