@<TRIPOS>MOLECULE
aspirin_entry_00001_conf_85
20 20 1
SMALL
NO_CHARGES


@<TRIPOS>ATOM
      1 C           9.0765   13.5263   15.8467 C.3       1 UNL1        0.0000
      2 C           9.6603   14.7537   16.4447 C.2       1 UNL1        0.0000
      3 C           9.3953   16.1455   14.4610 C.ar      1 UNL1        0.0000
      4 C           9.6014   15.2748   13.4120 C.ar      1 UNL1        0.0000
      5 C           9.1997   15.5347   12.1167 C.ar      1 UNL1        0.0000
      6 C           8.5605   16.7237   11.8621 C.ar      1 UNL1        0.0000
      7 C           8.3294   17.6302   12.8737 C.ar      1 UNL1        0.0000
      8 C           8.7500   17.3318   14.1706 C.ar      1 UNL1        0.0000
      9 C           8.4859   18.3180   15.2115 C.2       1 UNL1        0.0000
     10 O          10.0929   14.7930   17.6363 O.2       1 UNL1        0.0000
     11 O           9.7758   15.9292   15.7577 O.3       1 UNL1        0.0000
     12 O           9.1000   18.2813   16.3083 O.co2     1 UNL1       -0.5000
     13 O           7.5530   19.3259   15.0347 O.co2     1 UNL1       -0.5000
     14 H           9.0916   12.7367   16.5687 H         1 UNL1        0.0000
     15 H           9.6513   13.2385   14.9915 H         1 UNL1        0.0000
     16 H           8.0673   13.7200   15.5496 H         1 UNL1        0.0000
     17 H          10.0810   14.3818   13.6050 H         1 UNL1        0.0000
     18 H           9.3742   14.8535   11.3606 H         1 UNL1        0.0000
     19 H           8.2501   16.9414   10.9022 H         1 UNL1        0.0000
     20 H           7.8483   18.5216   12.6748 H         1 UNL1        0.0000
@<TRIPOS>BOND
     1    1    2 1
     2    1   14 1
     3    1   15 1
     4    1   16 1
     5    2   10 2
     6    2   11 1
     7    3    4 ar
     8    3    8 ar
     9    3   11 1
    10    4    5 ar
    11    4   17 1
    12    5    6 ar
    13    5   18 1
    14    6    7 ar
    15    6   19 1
    16    7    8 ar
    17    7   20 1
    18    8    9 1
    19    9   12 ar
    20    9   13 ar
@<TRIPOS>SUBSTRUCTURE
1 UNL1 1
@<TRIPOS>COMMENT
aspirin
PLANTSproteinTorsions
24
56 255.3174
113 245.2484
248 133.1500
285 87.3518
405 208.5646
445 131.4041
481 184.9704
510 221.8496
526 103.6435
772 217.9509
870 286.2349
949 75.3838
988 213.8470
1001 293.2392
1037 217.5289
1061 232.0485
1095 261.7399
1133 265.8974
1166 162.4277
1200 227.0948
1301 237.3771
1539 128.3318
1611 146.6137
1693 212.8514
PLANTSmolcadARTstart hb
PLANTSmolcadARTstart HB
LINES
PLANTSmolcadARTstart HBCH
LINES
PLANTSmolcadARTstart HB-CHO
LINES
PLANTSmolcadARTend
PLANTSmolcadARTstart HB_WATER
LINES
PLANTSmolcadARTend

PLANTSmolcadARTend

