@<TRIPOS>MOLECULE
aspirin_entry_00001_conf_31
20 20 1
SMALL
NO_CHARGES


@<TRIPOS>ATOM
      1 C          12.5151   14.2260    3.4631 C.3       1 UNL1        0.0000
      2 C          11.0928   14.2179    3.8897 C.2       1 UNL1        0.0000
      3 C          10.2107   15.2198    1.8500 C.ar      1 UNL1        0.0000
      4 C          11.2634   15.9737    1.3762 C.ar      1 UNL1        0.0000
      5 C          11.3458   16.4343    0.0771 C.ar      1 UNL1        0.0000
      6 C          10.3245   16.1233   -0.7875 C.ar      1 UNL1        0.0000
      7 C           9.2484   15.3732   -0.3659 C.ar      1 UNL1        0.0000
      8 C           9.2007   14.9251    0.9550 C.ar      1 UNL1        0.0000
      9 C           8.0446   14.1344    1.3600 C.2       1 UNL1        0.0000
     10 O          10.7144   13.7222    4.9941 O.2       1 UNL1        0.0000
     11 O          10.0881   14.7431    3.1271 O.3       1 UNL1        0.0000
     12 O           8.0657   13.4514    2.4157 O.co2     1 UNL1       -0.5000
     13 O           6.8863   14.1034    0.6018 O.co2     1 UNL1       -0.5000
     14 H          13.1158   13.7636    4.2182 H         1 UNL1        0.0000
     15 H          12.8381   15.2357    3.3191 H         1 UNL1        0.0000
     16 H          12.6150   13.6851    2.5456 H         1 UNL1        0.0000
     17 H          12.0300   16.2058    2.0265 H         1 UNL1        0.0000
     18 H          12.1535   16.9962   -0.2361 H         1 UNL1        0.0000
     19 H          10.3629   16.4556   -1.7638 H         1 UNL1        0.0000
     20 H           8.4847   15.1433   -1.0214 H         1 UNL1        0.0000
@<TRIPOS>BOND
     1    1    2 1
     2    1   14 1
     3    1   15 1
     4    1   16 1
     5    2   10 2
     6    2   11 1
     7    3    4 ar
     8    3    8 ar
     9    3   11 1
    10    4    5 ar
    11    4   17 1
    12    5    6 ar
    13    5   18 1
    14    6    7 ar
    15    6   19 1
    16    7    8 ar
    17    7   20 1
    18    8    9 1
    19    9   12 ar
    20    9   13 ar
@<TRIPOS>SUBSTRUCTURE
1 UNL1 1
@<TRIPOS>COMMENT
aspirin
PLANTSproteinTorsions
24
56 56.8281
113 223.4101
248 55.9658
285 333.6342
405 156.5207
445 135.6997
481 65.9323
510 313.1406
526 215.3742
772 248.8278
870 97.4225
949 66.2099
988 97.5302
1001 329.1353
1037 345.2830
1061 220.8199
1095 265.4303
1133 293.1950
1166 16.3515
1200 337.1727
1301 114.3918
1539 136.8322
1611 280.9609
1693 300.5027
PLANTSmolcadARTstart hb
PLANTSmolcadARTstart HB
LINES
PLANTSmolcadARTstart HBCH
LINES
PLANTSmolcadARTstart HB-CHO
LINES
PLANTSmolcadARTend
PLANTSmolcadARTstart HB_WATER
LINES
PLANTSmolcadARTend

PLANTSmolcadARTend

