@<TRIPOS>MOLECULE
aspirin_entry_00001_conf_22
20 20 1
SMALL
NO_CHARGES


@<TRIPOS>ATOM
      1 C          16.2084   19.9583   17.9226 C.3       1 UNL1        0.0000
      2 C          14.7861   19.6829   18.2483 C.2       1 UNL1        0.0000
      3 C          12.4259   20.0905   17.7949 C.ar      1 UNL1        0.0000
      4 C          11.9219   18.8122   17.9081 C.ar      1 UNL1        0.0000
      5 C          10.5717   18.5284   17.9636 C.ar      1 UNL1        0.0000
      6 C           9.6856   19.5765   17.9035 C.ar      1 UNL1        0.0000
      7 C          10.1355   20.8739   17.7897 C.ar      1 UNL1        0.0000
      8 C          11.5080   21.1211   17.7369 C.ar      1 UNL1        0.0000
      9 C          11.9417   22.5079   17.6164 C.2       1 UNL1        0.0000
     10 O          14.4334   18.7453   19.0263 O.2       1 UNL1        0.0000
     11 O          13.7537   20.4172   17.7367 O.3       1 UNL1        0.0000
     12 O          11.1287   23.4554   17.7666 O.co2     1 UNL1       -0.5000
     13 O          13.2572   22.8336   17.3317 O.co2     1 UNL1       -0.5000
     14 H          16.8334   19.2590   18.4376 H         1 UNL1        0.0000
     15 H          16.4580   20.9525   18.2291 H         1 UNL1        0.0000
     16 H          16.3575   19.8621   16.8677 H         1 UNL1        0.0000
     17 H          12.5887   18.0262   17.9538 H         1 UNL1        0.0000
     18 H          10.2374   17.5553   18.0489 H         1 UNL1        0.0000
     19 H           8.6712   19.3906   17.9433 H         1 UNL1        0.0000
     20 H           9.4636   21.6564   17.7452 H         1 UNL1        0.0000
@<TRIPOS>BOND
     1    1    2 1
     2    1   14 1
     3    1   15 1
     4    1   16 1
     5    2   10 2
     6    2   11 1
     7    3    4 ar
     8    3    8 ar
     9    3   11 1
    10    4    5 ar
    11    4   17 1
    12    5    6 ar
    13    5   18 1
    14    6    7 ar
    15    6   19 1
    16    7    8 ar
    17    7   20 1
    18    8    9 1
    19    9   12 ar
    20    9   13 ar
@<TRIPOS>SUBSTRUCTURE
1 UNL1 1
@<TRIPOS>COMMENT
aspirin
PLANTSproteinTorsions
24
56 120.9706
113 175.8804
248 263.1317
285 101.1639
405 337.4296
445 314.6828
481 57.3663
510 11.5024
526 69.8115
772 331.2628
870 95.1121
949 244.4408
988 296.8110
1001 257.3333
1037 101.4509
1061 266.1452
1095 125.1417
1133 156.8094
1166 68.6134
1200 81.2582
1301 222.1498
1539 69.3231
1611 64.3353
1693 182.1654
PLANTSmolcadARTstart hb
PLANTSmolcadARTstart HB
LINES
PLANTSmolcadARTstart HBCH
LINES
13.2572 22.8336 17.3317 15.119 22.973 16.622 255 0 0 5
13.2572 22.8336 17.3317 14.374 24.398 18.177 255 0 0 5
PLANTSmolcadARTstart HB-CHO
LINES
PLANTSmolcadARTend
PLANTSmolcadARTstart HB_WATER
LINES
PLANTSmolcadARTend

PLANTSmolcadARTend

