@<TRIPOS>MOLECULE
aspirin_entry_00001_conf_01
20 20 1
SMALL
NO_CHARGES


@<TRIPOS>ATOM
      1 C           7.5731   14.5602    1.5003 C.3       1 UNL1        0.0000
      2 C           8.5517   13.8367    2.3510 C.2       1 UNL1        0.0000
      3 C          10.5330   14.8969    1.4060 C.ar      1 UNL1        0.0000
      4 C          10.1638   15.1268    0.0977 C.ar      1 UNL1        0.0000
      5 C          10.8334   15.9958   -0.7408 C.ar      1 UNL1        0.0000
      6 C          11.9243   16.6663   -0.2429 C.ar      1 UNL1        0.0000
      7 C          12.3367   16.4733    1.0575 C.ar      1 UNL1        0.0000
      8 C          11.6339   15.5868    1.8750 C.ar      1 UNL1        0.0000
      9 C          12.1034   15.4117    3.2442 C.2       1 UNL1        0.0000
     10 O           8.2010   12.9726    3.2107 O.2       1 UNL1        0.0000
     11 O           9.8995   14.0462    2.2711 O.3       1 UNL1        0.0000
     12 O          11.3744   14.8698    4.1138 O.co2     1 UNL1       -0.5000
     13 O          13.3617   15.8347    3.6384 O.co2     1 UNL1       -0.5000
     14 H           6.5830   14.2319    1.7387 H         1 UNL1        0.0000
     15 H           7.7777   14.3569    0.4701 H         1 UNL1        0.0000
     16 H           7.6541   15.6117    1.6794 H         1 UNL1        0.0000
     17 H           9.3439   14.6231   -0.2745 H         1 UNL1        0.0000
     18 H          10.5221   16.1385   -1.7148 H         1 UNL1        0.0000
     19 H          12.4416   17.3216   -0.8496 H         1 UNL1        0.0000
     20 H          13.1573   16.9807    1.4247 H         1 UNL1        0.0000
@<TRIPOS>BOND
     1    1    2 1
     2    1   14 1
     3    1   15 1
     4    1   16 1
     5    2   10 2
     6    2   11 1
     7    3    4 ar
     8    3    8 ar
     9    3   11 1
    10    4    5 ar
    11    4   17 1
    12    5    6 ar
    13    5   18 1
    14    6    7 ar
    15    6   19 1
    16    7    8 ar
    17    7   20 1
    18    8    9 1
    19    9   12 ar
    20    9   13 ar
@<TRIPOS>SUBSTRUCTURE
1 UNL1 1
@<TRIPOS>COMMENT
aspirin
PLANTSproteinTorsions
24
56 253.0594
113 125.7311
248 126.4926
285 235.4186
405 230.6789
445 219.9494
481 12.9553
510 202.2047
526 43.4303
772 47.2397
870 252.3782
949 273.5363
988 235.5720
1001 194.4352
1037 193.2115
1061 48.5027
1095 51.3650
1133 162.2223
1166 162.1056
1200 191.2296
1301 33.9634
1539 233.3413
1611 207.4479
1693 120.6770
PLANTSmolcadARTstart hb
PLANTSmolcadARTstart HB
LINES
8.20103 12.9726 3.2107 6.321 12.2 3.751 0 255 0 5
13.3617 15.8347 3.63839 15.1282 15.7906 4.77026 0 255 0 5
PLANTSmolcadARTstart HBCH
LINES
PLANTSmolcadARTstart HB-CHO
LINES
PLANTSmolcadARTend
PLANTSmolcadARTstart HB_WATER
LINES
PLANTSmolcadARTend

PLANTSmolcadARTend

