@<TRIPOS>MOLECULE
aspirin_entry_00001_conf_17
20 20 1
SMALL
NO_CHARGES


@<TRIPOS>ATOM
      1 C           7.5927   13.4574    8.9997 C.3       1 UNL1        0.0000
      2 C           6.9408   14.0033   10.2170 C.2       1 UNL1        0.0000
      3 C           9.0035   14.7090   11.3078 C.ar      1 UNL1        0.0000
      4 C           9.9156   13.7713   10.8723 C.ar      1 UNL1        0.0000
      5 C          11.2831   13.9387   10.9656 C.ar      1 UNL1        0.0000
      6 C          11.7577   15.1020   11.5213 C.ar      1 UNL1        0.0000
      7 C          10.8899   16.0723   11.9732 C.ar      1 UNL1        0.0000
      8 C           9.5140   15.8670   11.8614 C.ar      1 UNL1        0.0000
      9 C           8.6309   16.9184   12.3516 C.2       1 UNL1        0.0000
     10 O           5.6855   13.9651   10.3944 O.2       1 UNL1        0.0000
     11 O           7.6424   14.5850   11.2350 O.3       1 UNL1        0.0000
     12 O           9.0503   17.7965   13.1482 O.co2     1 UNL1       -0.5000
     13 O           7.3036   16.9894   11.9633 O.co2     1 UNL1       -0.5000
     14 H           6.8470   13.0537    8.3471 H         1 UNL1        0.0000
     15 H           8.2784   12.6850    9.2786 H         1 UNL1        0.0000
     16 H           8.1218   14.2398    8.4975 H         1 UNL1        0.0000
     17 H           9.5576   12.8985   10.4545 H         1 UNL1        0.0000
     18 H          11.9310   13.2100   10.6262 H         1 UNL1        0.0000
     19 H          12.7757   15.2512   11.6021 H         1 UNL1        0.0000
     20 H          11.2540   16.9439   12.3895 H         1 UNL1        0.0000
@<TRIPOS>BOND
     1    1    2 1
     2    1   14 1
     3    1   15 1
     4    1   16 1
     5    2   10 2
     6    2   11 1
     7    3    4 ar
     8    3    8 ar
     9    3   11 1
    10    4    5 ar
    11    4   17 1
    12    5    6 ar
    13    5   18 1
    14    6    7 ar
    15    6   19 1
    16    7    8 ar
    17    7   20 1
    18    8    9 1
    19    9   12 ar
    20    9   13 ar
@<TRIPOS>SUBSTRUCTURE
1 UNL1 1
@<TRIPOS>COMMENT
aspirin
PLANTSproteinTorsions
24
56 202.5957
113 218.9372
248 39.0575
285 181.6194
405 147.5337
445 289.4161
481 306.5455
510 133.3580
526 194.8296
772 106.5834
870 226.5431
949 227.8003
988 231.6460
1001 220.5951
1037 184.4513
1061 84.9541
1095 226.8434
1133 130.6146
1166 251.7661
1200 351.4020
1301 233.9791
1539 221.9786
1611 200.8147
1693 281.1447
PLANTSmolcadARTstart hb
PLANTSmolcadARTstart HB
LINES
7.30357 16.9894 11.9633 6.478 17.749 10.188 0 255 0 5
PLANTSmolcadARTstart HBCH
LINES
PLANTSmolcadARTstart HB-CHO
LINES
PLANTSmolcadARTend
PLANTSmolcadARTstart HB_WATER
LINES
PLANTSmolcadARTend

PLANTSmolcadARTend

