@<TRIPOS>MOLECULE
aspirin_entry_00001_conf_76
20 20 1
SMALL
NO_CHARGES


@<TRIPOS>ATOM
      1 C           7.0928   15.2204   12.6433 C.3       1 UNL1        0.0000
      2 C           8.1580   16.1727   12.2391 C.2       1 UNL1        0.0000
      3 C          10.0108   14.8673   13.1364 C.ar      1 UNL1        0.0000
      4 C           9.4847   14.2574   14.2554 C.ar      1 UNL1        0.0000
      5 C          10.0539   13.1537   14.8595 C.ar      1 UNL1        0.0000
      6 C          11.2045   12.6374   14.3147 C.ar      1 UNL1        0.0000
      7 C          11.7728   13.2084   13.1969 C.ar      1 UNL1        0.0000
      8 C          11.1681   14.3231   12.6141 C.ar      1 UNL1        0.0000
      9 C          11.8017   14.8966   11.4329 C.2       1 UNL1        0.0000
     10 O           7.9102   17.2504   11.6178 O.2       1 UNL1        0.0000
     11 O           9.4811   15.9605   12.5060 O.3       1 UNL1        0.0000
     12 O          11.4892   16.0440   11.0238 O.co2     1 UNL1       -0.5000
     13 O          12.7648   14.2038   10.7188 O.co2     1 UNL1       -0.5000
     14 H           6.1415   15.5963   12.3293 H         1 UNL1        0.0000
     15 H           7.0988   15.1098   13.7074 H         1 UNL1        0.0000
     16 H           7.2712   14.2706   12.1848 H         1 UNL1        0.0000
     17 H           8.6202   14.6459   14.6629 H         1 UNL1        0.0000
     18 H           9.6257   12.7278   15.6969 H         1 UNL1        0.0000
     19 H          11.6490   11.8126   14.7475 H         1 UNL1        0.0000
     20 H          12.6375   12.8147   12.7931 H         1 UNL1        0.0000
@<TRIPOS>BOND
     1    1    2 1
     2    1   14 1
     3    1   15 1
     4    1   16 1
     5    2   10 2
     6    2   11 1
     7    3    4 ar
     8    3    8 ar
     9    3   11 1
    10    4    5 ar
    11    4   17 1
    12    5    6 ar
    13    5   18 1
    14    6    7 ar
    15    6   19 1
    16    7    8 ar
    17    7   20 1
    18    8    9 1
    19    9   12 ar
    20    9   13 ar
@<TRIPOS>SUBSTRUCTURE
1 UNL1 1
@<TRIPOS>COMMENT
aspirin
PLANTSproteinTorsions
24
56 88.8408
113 354.0051
248 95.8554
285 107.9632
405 352.0768
445 327.3138
481 41.8889
510 256.3759
526 299.5483
772 15.1340
870 159.5913
949 58.6276
988 119.1854
1001 167.2005
1037 2.4960
1061 177.6203
1095 94.3889
1133 270.2210
1166 236.2698
1200 122.5566
1301 47.0806
1539 188.0707
1611 274.1477
1693 78.6892
PLANTSmolcadARTstart hb
PLANTSmolcadARTstart HB
LINES
7.91018 17.2504 11.6178 6.478 17.749 10.188 0 255 0 5
PLANTSmolcadARTstart HBCH
LINES
PLANTSmolcadARTstart HB-CHO
LINES
PLANTSmolcadARTend
PLANTSmolcadARTstart HB_WATER
LINES
PLANTSmolcadARTend

PLANTSmolcadARTend

