@<TRIPOS>MOLECULE
aspirin_entry_00001_conf_14
20 20 1
SMALL
NO_CHARGES


@<TRIPOS>ATOM
      1 C          11.1733   17.5206   -0.9447 C.3       1 UNL1        0.0000
      2 C          10.6588   16.1749   -0.5852 C.2       1 UNL1        0.0000
      3 C          11.6515   16.1170    1.6405 C.ar      1 UNL1        0.0000
      4 C          12.8135   16.8431    1.4878 C.ar      1 UNL1        0.0000
      5 C          13.5313   17.3627    2.5468 C.ar      1 UNL1        0.0000
      6 C          13.0605   17.1442    3.8188 C.ar      1 UNL1        0.0000
      7 C          11.9043   16.4247    4.0282 C.ar      1 UNL1        0.0000
      8 C          11.2059   15.9156    2.9324 C.ar      1 UNL1        0.0000
      9 C           9.9875   15.1602    3.1979 C.2       1 UNL1        0.0000
     10 O           9.9511   15.4810   -1.3766 O.2       1 UNL1        0.0000
     11 O          10.9092   15.5845    0.6213 O.3       1 UNL1        0.0000
     12 O           9.4841   15.1282    4.3499 O.co2     1 UNL1       -0.5000
     13 O           9.3421   14.4513    2.1986 O.co2     1 UNL1       -0.5000
     14 H          10.8520   17.7720   -1.9339 H         1 UNL1        0.0000
     15 H          12.2425   17.5148   -0.9079 H         1 UNL1        0.0000
     16 H          10.7964   18.2431   -0.2517 H         1 UNL1        0.0000
     17 H          13.1654   17.0070    0.5318 H         1 UNL1        0.0000
     18 H          14.3974   17.9015    2.3869 H         1 UNL1        0.0000
     19 H          13.5788   17.5225    4.6272 H         1 UNL1        0.0000
     20 H          11.5566   16.2647    4.9870 H         1 UNL1        0.0000
@<TRIPOS>BOND
     1    1    2 1
     2    1   14 1
     3    1   15 1
     4    1   16 1
     5    2   10 2
     6    2   11 1
     7    3    4 ar
     8    3    8 ar
     9    3   11 1
    10    4    5 ar
    11    4   17 1
    12    5    6 ar
    13    5   18 1
    14    6    7 ar
    15    6   19 1
    16    7    8 ar
    17    7   20 1
    18    8    9 1
    19    9   12 ar
    20    9   13 ar
@<TRIPOS>SUBSTRUCTURE
1 UNL1 1
@<TRIPOS>COMMENT
aspirin
PLANTSproteinTorsions
24
56 70.4181
113 202.7290
248 354.5113
285 343.3512
405 347.6382
445 154.7226
481 57.9256
510 153.2287
526 122.6792
772 262.6751
870 197.6631
949 314.2077
988 331.9274
1001 61.2255
1037 8.2266
1061 296.9223
1095 98.9682
1133 254.2397
1166 269.4322
1200 120.5440
1301 266.1893
1539 184.7381
1611 28.4091
1693 248.1118
PLANTSmolcadARTstart hb
PLANTSmolcadARTstart HB
LINES
PLANTSmolcadARTstart HBCH
LINES
PLANTSmolcadARTstart HB-CHO
LINES
PLANTSmolcadARTend
PLANTSmolcadARTstart HB_WATER
LINES
PLANTSmolcadARTend

PLANTSmolcadARTend

