@<TRIPOS>MOLECULE
aspirin_entry_00001_conf_61
20 20 1
SMALL
NO_CHARGES


@<TRIPOS>ATOM
      1 C           6.3610   14.3408   -0.1583 C.3       1 UNL1        0.0000
      2 C           7.6862   14.7640    0.3608 C.2       1 UNL1        0.0000
      3 C           9.3458   14.7664    2.1463 C.ar      1 UNL1        0.0000
      4 C          10.5238   14.9729    1.4603 C.ar      1 UNL1        0.0000
      5 C          11.7012   15.3606    2.0686 C.ar      1 UNL1        0.0000
      6 C          11.6962   15.5509    3.4292 C.ar      1 UNL1        0.0000
      7 C          10.5464   15.3579    4.1634 C.ar      1 UNL1        0.0000
      8 C           9.3754   14.9663    3.5128 C.ar      1 UNL1        0.0000
      9 C           8.1813   14.7731    4.3267 C.2       1 UNL1        0.0000
     10 O           8.4710   15.5106   -0.2991 O.2       1 UNL1        0.0000
     11 O           8.1579   14.3827    1.5852 O.3       1 UNL1        0.0000
     12 O           7.0413   14.7136    3.7990 O.co2     1 UNL1       -0.5000
     13 O           8.2551   14.6504    5.7040 O.co2     1 UNL1       -0.5000
     14 H           6.2091   14.7605   -1.1308 H         1 UNL1        0.0000
     15 H           5.5931   14.6848    0.5024 H         1 UNL1        0.0000
     16 H           6.3267   13.2734   -0.2201 H         1 UNL1        0.0000
     17 H          10.5256   14.8303    0.4384 H         1 UNL1        0.0000
     18 H          12.5613   15.5045    1.5159 H         1 UNL1        0.0000
     19 H          12.5636   15.8410    3.9074 H         1 UNL1        0.0000
     20 H          10.5503   15.5029    5.1855 H         1 UNL1        0.0000
@<TRIPOS>BOND
     1    1    2 1
     2    1   14 1
     3    1   15 1
     4    1   16 1
     5    2   10 2
     6    2   11 1
     7    3    4 ar
     8    3    8 ar
     9    3   11 1
    10    4    5 ar
    11    4   17 1
    12    5    6 ar
    13    5   18 1
    14    6    7 ar
    15    6   19 1
    16    7    8 ar
    17    7   20 1
    18    8    9 1
    19    9   12 ar
    20    9   13 ar
@<TRIPOS>SUBSTRUCTURE
1 UNL1 1
@<TRIPOS>COMMENT
aspirin
PLANTSproteinTorsions
24
56 257.0099
113 89.9399
248 341.5592
285 7.7134
405 151.6498
445 349.0168
481 328.6468
510 210.5843
526 225.3879
772 4.8837
870 239.0306
949 260.6360
988 133.5498
1001 87.5348
1037 158.6019
1061 207.3700
1095 33.2271
1133 185.9000
1166 7.1578
1200 134.4825
1301 277.7712
1539 189.2868
1611 214.0343
1693 255.6176
PLANTSmolcadARTstart hb
PLANTSmolcadARTstart HB
LINES
PLANTSmolcadARTstart HBCH
LINES
PLANTSmolcadARTstart HB-CHO
LINES
PLANTSmolcadARTend
PLANTSmolcadARTstart HB_WATER
LINES
PLANTSmolcadARTend

PLANTSmolcadARTend

