@<TRIPOS>MOLECULE
aspirin_entry_00001_conf_20
20 20 1
SMALL
NO_CHARGES


@<TRIPOS>ATOM
      1 C          10.5906   12.9133    2.4621 C.3       1 UNL1        0.0000
      2 C          10.7711   13.9965    3.4616 C.2       1 UNL1        0.0000
      3 C          11.4746   15.6957    1.8617 C.ar      1 UNL1        0.0000
      4 C          10.8423   15.3044    0.7007 C.ar      1 UNL1        0.0000
      5 C          11.1926   15.7700   -0.5512 C.ar      1 UNL1        0.0000
      6 C          12.2255   16.6712   -0.6423 C.ar      1 UNL1        0.0000
      7 C          12.8921   17.0955    0.4864 C.ar      1 UNL1        0.0000
      8 C          12.5088   16.6026    1.7346 C.ar      1 UNL1        0.0000
      9 C          13.2400   17.0773    2.9033 C.2       1 UNL1        0.0000
     10 O          10.5755   13.8197    4.7023 O.2       1 UNL1        0.0000
     11 O          11.1610   15.2609    3.1209 O.3       1 UNL1        0.0000
     12 O          12.9760   16.6410    4.0528 O.co2     1 UNL1       -0.5000
     13 O          14.2460   18.0226    2.7939 O.co2     1 UNL1       -0.5000
     14 H          10.2846   12.0169    2.9599 H         1 UNL1        0.0000
     15 H          11.5157   12.7404    1.9531 H         1 UNL1        0.0000
     16 H           9.8426   13.2026    1.7542 H         1 UNL1        0.0000
     17 H          10.0662   14.6281    0.7709 H         1 UNL1        0.0000
     18 H          10.6914   15.4503   -1.3953 H         1 UNL1        0.0000
     19 H          12.5063   17.0344   -1.5667 H         1 UNL1        0.0000
     20 H          13.6672   17.7731    0.4101 H         1 UNL1        0.0000
@<TRIPOS>BOND
     1    1    2 1
     2    1   14 1
     3    1   15 1
     4    1   16 1
     5    2   10 2
     6    2   11 1
     7    3    4 ar
     8    3    8 ar
     9    3   11 1
    10    4    5 ar
    11    4   17 1
    12    5    6 ar
    13    5   18 1
    14    6    7 ar
    15    6   19 1
    16    7    8 ar
    17    7   20 1
    18    8    9 1
    19    9   12 ar
    20    9   13 ar
@<TRIPOS>SUBSTRUCTURE
1 UNL1 1
@<TRIPOS>COMMENT
aspirin
PLANTSproteinTorsions
24
56 119.8807
113 256.2432
248 158.4379
285 3.2255
405 328.9745
445 80.3722
481 223.7939
510 229.0286
526 47.2373
772 24.0147
870 92.4800
949 110.2074
988 102.4297
1001 81.5649
1037 8.3634
1061 188.8312
1095 97.2885
1133 171.6342
1166 218.1375
1200 139.0933
1301 46.4718
1539 185.0892
1611 113.0950
1693 72.4610
PLANTSmolcadARTstart hb
PLANTSmolcadARTstart HB
LINES
PLANTSmolcadARTstart HBCH
LINES
PLANTSmolcadARTstart HB-CHO
LINES
PLANTSmolcadARTend
PLANTSmolcadARTstart HB_WATER
LINES
PLANTSmolcadARTend

PLANTSmolcadARTend

