@<TRIPOS>MOLECULE
aspirin_entry_00001_conf_24
20 20 1
SMALL
NO_CHARGES


@<TRIPOS>ATOM
      1 C           8.9426   15.3366    0.5379 C.3       1 UNL1        0.0000
      2 C          10.2871   15.6969    0.0209 C.2       1 UNL1        0.0000
      3 C          11.5104   15.0471    2.0268 C.ar      1 UNL1        0.0000
      4 C          10.7636   13.9867    2.4945 C.ar      1 UNL1        0.0000
      5 C          10.8851   13.4744    3.7710 C.ar      1 UNL1        0.0000
      6 C          11.7994   14.0527    4.6178 C.ar      1 UNL1        0.0000
      7 C          12.5713   15.1154    4.2016 C.ar      1 UNL1        0.0000
      8 C          12.4202   15.6054    2.9035 C.ar      1 UNL1        0.0000
      9 C          13.2563   16.7308    2.5033 C.2       1 UNL1        0.0000
     10 O          10.4714   16.1337   -1.1555 O.2       1 UNL1        0.0000
     11 O          11.4233   15.5861    0.7718 O.3       1 UNL1        0.0000
     12 O          13.1352   17.2547    1.3665 O.co2     1 UNL1       -0.5000
     13 O          14.2118   17.2619    3.3533 O.co2     1 UNL1       -0.5000
     14 H           8.2109   15.5063   -0.2242 H         1 UNL1        0.0000
     15 H           8.7153   15.9407    1.3912 H         1 UNL1        0.0000
     16 H           8.9337   14.3045    0.8189 H         1 UNL1        0.0000
     17 H          10.0780   13.5529    1.8571 H         1 UNL1        0.0000
     18 H          10.3053   12.6779    4.0802 H         1 UNL1        0.0000
     19 H          11.9092   13.6878    5.5769 H         1 UNL1        0.0000
     20 H          13.2564   15.5448    4.8435 H         1 UNL1        0.0000
@<TRIPOS>BOND
     1    1    2 1
     2    1   14 1
     3    1   15 1
     4    1   16 1
     5    2   10 2
     6    2   11 1
     7    3    4 ar
     8    3    8 ar
     9    3   11 1
    10    4    5 ar
    11    4   17 1
    12    5    6 ar
    13    5   18 1
    14    6    7 ar
    15    6   19 1
    16    7    8 ar
    17    7   20 1
    18    8    9 1
    19    9   12 ar
    20    9   13 ar
@<TRIPOS>SUBSTRUCTURE
1 UNL1 1
@<TRIPOS>COMMENT
aspirin
PLANTSproteinTorsions
24
56 87.2136
113 188.0111
248 227.1368
285 230.7014
405 175.8813
445 31.4062
481 190.0823
510 87.2959
526 115.7266
772 276.7055
870 310.6698
949 301.9509
988 181.0966
1001 144.7318
1037 63.5651
1061 177.4158
1095 89.4732
1133 43.4179
1166 261.7019
1200 192.5618
1301 205.6037
1539 234.8807
1611 27.0193
1693 60.8942
PLANTSmolcadARTstart hb
PLANTSmolcadARTstart HB
LINES
14.2118 17.2619 3.35333 15.3338 16.185 4.64284 0 255 0 5
PLANTSmolcadARTstart HBCH
LINES
PLANTSmolcadARTstart HB-CHO
LINES
PLANTSmolcadARTend
PLANTSmolcadARTstart HB_WATER
LINES
PLANTSmolcadARTend

PLANTSmolcadARTend

