@<TRIPOS>MOLECULE
aspirin_entry_00001_conf_81
20 20 1
SMALL
NO_CHARGES


@<TRIPOS>ATOM
      1 C          13.7878   29.3594   17.3750 C.3       1 UNL1        0.0000
      2 C          13.6194   28.7096   16.0506 C.2       1 UNL1        0.0000
      3 C          12.3138   26.8120   16.8488 C.ar      1 UNL1        0.0000
      4 C          11.5553   27.3921   17.8434 C.ar      1 UNL1        0.0000
      5 C          10.8547   26.6673   18.7871 C.ar      1 UNL1        0.0000
      6 C          10.9173   25.2961   18.7296 C.ar      1 UNL1        0.0000
      7 C          11.6609   24.6650   17.7564 C.ar      1 UNL1        0.0000
      8 C          12.3554   25.4316   16.8195 C.ar      1 UNL1        0.0000
      9 C          13.1300   24.7244   15.8068 C.2       1 UNL1        0.0000
     10 O          14.0199   29.2440   14.9723 O.2       1 UNL1        0.0000
     11 O          13.0229   27.4902   15.8947 O.3       1 UNL1        0.0000
     12 O          13.2951   23.4794   15.8711 O.co2     1 UNL1       -0.5000
     13 O          13.7121   25.3923   14.7425 O.co2     1 UNL1       -0.5000
     14 H          14.2793   30.3015   17.2494 H         1 UNL1        0.0000
     15 H          14.3785   28.7308   18.0079 H         1 UNL1        0.0000
     16 H          12.8278   29.5135   17.8211 H         1 UNL1        0.0000
     17 H          11.5087   28.4219   17.8848 H         1 UNL1        0.0000
     18 H          10.2982   27.1430   19.5152 H         1 UNL1        0.0000
     19 H          10.4022   24.7319   19.4234 H         1 UNL1        0.0000
     20 H          11.7031   23.6342   17.7195 H         1 UNL1        0.0000
@<TRIPOS>BOND
     1    1    2 1
     2    1   14 1
     3    1   15 1
     4    1   16 1
     5    2   10 2
     6    2   11 1
     7    3    4 ar
     8    3    8 ar
     9    3   11 1
    10    4    5 ar
    11    4   17 1
    12    5    6 ar
    13    5   18 1
    14    6    7 ar
    15    6   19 1
    16    7    8 ar
    17    7   20 1
    18    8    9 1
    19    9   12 ar
    20    9   13 ar
@<TRIPOS>SUBSTRUCTURE
1 UNL1 1
@<TRIPOS>COMMENT
aspirin
PLANTSproteinTorsions
24
56 131.4398
113 36.3315
248 133.9420
285 241.3907
405 86.9193
445 41.7716
481 186.6209
510 168.4218
526 10.2691
772 343.6617
870 310.3500
949 123.8167
988 114.7528
1001 160.4482
1037 115.1282
1061 178.3282
1095 93.1406
1133 256.3005
1166 150.5771
1200 174.9666
1301 61.9108
1539 126.4966
1611 100.1660
1693 281.0812
PLANTSmolcadARTstart hb
PLANTSmolcadARTstart HB
LINES
13.7121 25.3923 14.7425 15.194 25.699 13.084 0 255 0 5
PLANTSmolcadARTstart HBCH
LINES
13.2951 23.4794 15.8711 15.119 22.973 16.622 255 0 0 5
PLANTSmolcadARTstart HB-CHO
LINES
PLANTSmolcadARTend
PLANTSmolcadARTstart HB_WATER
LINES
PLANTSmolcadARTend

PLANTSmolcadARTend

