@<TRIPOS>MOLECULE
aspirin_entry_00001_conf_45
20 20 1
SMALL
NO_CHARGES


@<TRIPOS>ATOM
      1 C          12.0342   26.6341   -2.3137 C.3       1 UNL1        0.0000
      2 C          12.7033   27.6885   -3.1170 C.2       1 UNL1        0.0000
      3 C          11.6835   27.0656   -5.2417 C.ar      1 UNL1        0.0000
      4 C          11.5099   25.7030   -5.1231 C.ar      1 UNL1        0.0000
      5 C          10.6660   24.9696   -5.9335 C.ar      1 UNL1        0.0000
      6 C           9.9627   25.6348   -6.9083 C.ar      1 UNL1        0.0000
      7 C          10.0991   26.9963   -7.0706 C.ar      1 UNL1        0.0000
      8 C          10.9616   27.7035   -6.2317 C.ar      1 UNL1        0.0000
      9 C          11.0768   29.1423   -6.4371 C.2       1 UNL1        0.0000
     10 O          13.5046   28.5293   -2.6074 O.2       1 UNL1        0.0000
     11 O          12.5075   27.8310   -4.4618 O.3       1 UNL1        0.0000
     12 O          10.2337   29.7663   -7.1309 O.co2     1 UNL1       -0.5000
     13 O          12.1136   29.8729   -5.8814 O.co2     1 UNL1       -0.5000
     14 H          12.3397   26.7176   -1.2917 H         1 UNL1        0.0000
     15 H          12.3086   25.6711   -2.6904 H         1 UNL1        0.0000
     16 H          10.9734   26.7544   -2.3809 H         1 UNL1        0.0000
     17 H          12.0382   25.2049   -4.3900 H         1 UNL1        0.0000
     18 H          10.5657   23.9495   -5.8096 H         1 UNL1        0.0000
     19 H           9.3252   25.1093   -7.5267 H         1 UNL1        0.0000
     20 H           9.5672   27.4893   -7.8052 H         1 UNL1        0.0000
@<TRIPOS>BOND
     1    1    2 1
     2    1   14 1
     3    1   15 1
     4    1   16 1
     5    2   10 2
     6    2   11 1
     7    3    4 ar
     8    3    8 ar
     9    3   11 1
    10    4    5 ar
    11    4   17 1
    12    5    6 ar
    13    5   18 1
    14    6    7 ar
    15    6   19 1
    16    7    8 ar
    17    7   20 1
    18    8    9 1
    19    9   12 ar
    20    9   13 ar
@<TRIPOS>SUBSTRUCTURE
1 UNL1 1
@<TRIPOS>COMMENT
aspirin
PLANTSproteinTorsions
24
56 217.2090
113 129.3483
248 283.0960
285 71.0291
405 158.3567
445 104.3079
481 137.8454
510 253.4836
526 127.8485
772 185.5415
870 314.6379
949 154.3708
988 135.2924
1001 95.1594
1037 169.5395
1061 74.4715
1095 37.0012
1133 82.7894
1166 68.7788
1200 247.1211
1301 148.2257
1539 329.1958
1611 254.5429
1693 228.9189
PLANTSmolcadARTstart hb
PLANTSmolcadARTstart HB
LINES
PLANTSmolcadARTstart HBCH
LINES
PLANTSmolcadARTstart HB-CHO
LINES
PLANTSmolcadARTend
PLANTSmolcadARTstart HB_WATER
LINES
PLANTSmolcadARTend

PLANTSmolcadARTend

