@<TRIPOS>MOLECULE
aspirin_entry_00001_conf_33
20 20 1
SMALL
NO_CHARGES


@<TRIPOS>ATOM
      1 C           8.6512   15.8259   -0.6060 C.3       1 UNL1        0.0000
      2 C          10.0420   15.4028   -0.3035 C.2       1 UNL1        0.0000
      3 C           9.6686   14.9760    2.0673 C.ar      1 UNL1        0.0000
      4 C           8.3320   14.6452    2.1381 C.ar      1 UNL1        0.0000
      5 C           7.6017   14.6738    3.3097 C.ar      1 UNL1        0.0000
      6 C           8.2428   15.0514    4.4646 C.ar      1 UNL1        0.0000
      7 C           9.5777   15.3928    4.4501 C.ar      1 UNL1        0.0000
      8 C          10.2827   15.3513    3.2463 C.ar      1 UNL1        0.0000
      9 C          11.6930   15.7200    3.2749 C.2       1 UNL1        0.0000
     10 O          10.9659   15.4234   -1.1723 O.2       1 UNL1        0.0000
     11 O          10.4300   14.9616    0.9301 O.3       1 UNL1        0.0000
     12 O          12.3130   15.9890    2.2145 O.co2     1 UNL1       -0.5000
     13 O          12.4007   15.7859    4.4634 O.co2     1 UNL1       -0.5000
     14 H           8.5865   16.1305   -1.6297 H         1 UNL1        0.0000
     15 H           8.3823   16.6452    0.0273 H         1 UNL1        0.0000
     16 H           7.9843   15.0077   -0.4334 H         1 UNL1        0.0000
     17 H           7.8522   14.3610    1.2701 H         1 UNL1        0.0000
     18 H           6.6016   14.4175    3.3176 H         1 UNL1        0.0000
     19 H           7.7190   15.0806    5.3533 H         1 UNL1        0.0000
     20 H          10.0527   15.6754    5.3220 H         1 UNL1        0.0000
@<TRIPOS>BOND
     1    1    2 1
     2    1   14 1
     3    1   15 1
     4    1   16 1
     5    2   10 2
     6    2   11 1
     7    3    4 ar
     8    3    8 ar
     9    3   11 1
    10    4    5 ar
    11    4   17 1
    12    5    6 ar
    13    5   18 1
    14    6    7 ar
    15    6   19 1
    16    7    8 ar
    17    7   20 1
    18    8    9 1
    19    9   12 ar
    20    9   13 ar
@<TRIPOS>SUBSTRUCTURE
1 UNL1 1
@<TRIPOS>COMMENT
aspirin
PLANTSproteinTorsions
24
56 207.4895
113 45.4626
248 191.0257
285 253.0903
405 350.8734
445 25.5053
481 5.5460
510 221.6509
526 12.4264
772 255.2591
870 126.2448
949 195.7031
988 30.1756
1001 68.8130
1037 29.8880
1061 275.6303
1095 278.7538
1133 27.2677
1166 224.1793
1200 287.0923
1301 264.4991
1539 227.1772
1611 221.5958
1693 140.0246
PLANTSmolcadARTstart hb
PLANTSmolcadARTstart HB
LINES
PLANTSmolcadARTstart HBCH
LINES
PLANTSmolcadARTstart HB-CHO
LINES
PLANTSmolcadARTend
PLANTSmolcadARTstart HB_WATER
LINES
PLANTSmolcadARTend

PLANTSmolcadARTend

