@<TRIPOS>MOLECULE
aspirin_entry_00001_conf_13
20 20 1
SMALL
NO_CHARGES


@<TRIPOS>ATOM
      1 C           8.0609   14.9330    4.5858 C.3       1 UNL1        0.0000
      2 C           8.8030   13.6615    4.3923 C.2       1 UNL1        0.0000
      3 C          10.9266   14.6968    3.7916 C.ar      1 UNL1        0.0000
      4 C          10.5216   15.8276    3.1148 C.ar      1 UNL1        0.0000
      5 C          11.3578   16.8920    2.8418 C.ar      1 UNL1        0.0000
      6 C          12.6616   16.8186    3.2687 C.ar      1 UNL1        0.0000
      7 C          13.1189   15.7112    3.9491 C.ar      1 UNL1        0.0000
      8 C          12.2434   14.6552    4.2067 C.ar      1 UNL1        0.0000
      9 C          12.7676   13.5025    4.9293 C.2       1 UNL1        0.0000
     10 O           8.2498   12.5253    4.5000 O.2       1 UNL1        0.0000
     11 O          10.1334   13.6203    4.0834 O.3       1 UNL1        0.0000
     12 O          11.9974   12.6161    5.3794 O.co2     1 UNL1       -0.5000
     13 O          14.1253   13.3408    5.1486 O.co2     1 UNL1       -0.5000
     14 H           7.0389   14.7169    4.8179 H         1 UNL1        0.0000
     15 H           8.1076   15.5131    3.6881 H         1 UNL1        0.0000
     16 H           8.5015   15.4839    5.3899 H         1 UNL1        0.0000
     17 H           9.5419   15.8815    2.7955 H         1 UNL1        0.0000
     18 H          11.0124   17.7206    2.3318 H         1 UNL1        0.0000
     19 H          13.3064   17.6013    3.0772 H         1 UNL1        0.0000
     20 H          14.0999   15.6632    4.2669 H         1 UNL1        0.0000
@<TRIPOS>BOND
     1    1    2 1
     2    1   14 1
     3    1   15 1
     4    1   16 1
     5    2   10 2
     6    2   11 1
     7    3    4 ar
     8    3    8 ar
     9    3   11 1
    10    4    5 ar
    11    4   17 1
    12    5    6 ar
    13    5   18 1
    14    6    7 ar
    15    6   19 1
    16    7    8 ar
    17    7   20 1
    18    8    9 1
    19    9   12 ar
    20    9   13 ar
@<TRIPOS>SUBSTRUCTURE
1 UNL1 1
@<TRIPOS>COMMENT
aspirin
PLANTSproteinTorsions
24
56 125.1699
113 193.4449
248 348.5429
285 18.9595
405 84.8578
445 108.5587
481 166.8090
510 90.5824
526 25.2353
772 140.4369
870 219.1673
949 216.9040
988 162.0912
1001 211.7668
1037 136.9541
1061 90.9712
1095 171.6442
1133 41.3376
1166 251.2551
1200 112.3130
1301 267.9142
1539 124.9534
1611 100.1605
1693 160.4195
PLANTSmolcadARTstart hb
PLANTSmolcadARTstart HB
LINES
8.24981 12.5253 4.50005 6.321 12.2 3.751 0 255 0 5
14.1253 13.3408 5.14858 15.3255 15.0764 5.27079 0 255 0 5
PLANTSmolcadARTstart HBCH
LINES
PLANTSmolcadARTstart HB-CHO
LINES
PLANTSmolcadARTend
PLANTSmolcadARTstart HB_WATER
LINES
PLANTSmolcadARTend

PLANTSmolcadARTend

