@<TRIPOS>MOLECULE
aspirin_entry_00001_conf_30
20 20 1
SMALL
NO_CHARGES


@<TRIPOS>ATOM
      1 C          11.4178   11.7913    3.5433 C.3       1 UNL1        0.0000
      2 C          11.0924   12.8291    4.5542 C.2       1 UNL1        0.0000
      3 C           9.7704   14.2308    3.0610 C.ar      1 UNL1        0.0000
      4 C          10.4083   14.0541    1.8515 C.ar      1 UNL1        0.0000
      5 C           9.8506   14.4056    0.6382 C.ar      1 UNL1        0.0000
      6 C           8.5935   14.9598    0.6384 C.ar      1 UNL1        0.0000
      7 C           7.9115   15.1590    1.8189 C.ar      1 UNL1        0.0000
      8 C           8.5080   14.7905    3.0256 C.ar      1 UNL1        0.0000
      9 C           7.7524   15.0183    4.2515 C.2       1 UNL1        0.0000
     10 O          11.5445   12.7935    5.7387 O.2       1 UNL1        0.0000
     11 O          10.2845   13.8976    4.2848 O.3       1 UNL1        0.0000
     12 O           6.7057   15.7153    4.2463 O.co2     1 UNL1       -0.5000
     13 O           8.1565   14.4811    5.4622 O.co2     1 UNL1       -0.5000
     14 H          12.0639   11.0588    3.9804 H         1 UNL1        0.0000
     15 H          11.9089   12.2477    2.7096 H         1 UNL1        0.0000
     16 H          10.5159   11.3209    3.2124 H         1 UNL1        0.0000
     17 H          11.3520   13.6371    1.8529 H         1 UNL1        0.0000
     18 H          10.3639   14.2552   -0.2449 H         1 UNL1        0.0000
     19 H           8.1547   15.2307   -0.2556 H         1 UNL1        0.0000
     20 H           6.9671   15.5758    1.8112 H         1 UNL1        0.0000
@<TRIPOS>BOND
     1    1    2 1
     2    1   14 1
     3    1   15 1
     4    1   16 1
     5    2   10 2
     6    2   11 1
     7    3    4 ar
     8    3    8 ar
     9    3   11 1
    10    4    5 ar
    11    4   17 1
    12    5    6 ar
    13    5   18 1
    14    6    7 ar
    15    6   19 1
    16    7    8 ar
    17    7   20 1
    18    8    9 1
    19    9   12 ar
    20    9   13 ar
@<TRIPOS>SUBSTRUCTURE
1 UNL1 1
@<TRIPOS>COMMENT
aspirin
PLANTSproteinTorsions
24
56 217.3048
113 18.8693
248 16.3062
285 177.2423
405 86.7294
445 340.4966
481 304.5630
510 214.8918
526 92.1441
772 344.0019
870 62.3862
949 55.9250
988 269.8025
1001 224.3927
1037 154.7869
1061 31.6267
1095 290.3038
1133 143.3490
1166 270.3213
1200 93.4060
1301 201.2993
1539 248.3002
1611 225.5294
1693 282.2665
PLANTSmolcadARTstart hb
PLANTSmolcadARTstart HB
LINES
PLANTSmolcadARTstart HBCH
LINES
PLANTSmolcadARTstart HB-CHO
LINES
PLANTSmolcadARTend
PLANTSmolcadARTstart HB_WATER
LINES
PLANTSmolcadARTend

PLANTSmolcadARTend

