@<TRIPOS>MOLECULE
aspirin_entry_00001_conf_86
20 20 1
SMALL
NO_CHARGES


@<TRIPOS>ATOM
      1 C          -2.0271    8.7004    5.0380 C.3       1 UNL1        0.0000
      2 C          -0.8312    8.2398    4.2881 C.2       1 UNL1        0.0000
      3 C          -1.2201    9.6268    2.3215 C.ar      1 UNL1        0.0000
      4 C          -1.0155   10.9900    2.2949 C.ar      1 UNL1        0.0000
      5 C          -1.7736   11.8589    1.5353 C.ar      1 UNL1        0.0000
      6 C          -2.7840   11.3353    0.7657 C.ar      1 UNL1        0.0000
      7 C          -3.0320    9.9800    0.7556 C.ar      1 UNL1        0.0000
      8 C          -2.2439    9.1332    1.5365 C.ar      1 UNL1        0.0000
      9 C          -2.5396    7.7061    1.4969 C.2       1 UNL1        0.0000
     10 O          -0.0404    7.3571    4.7401 O.2       1 UNL1        0.0000
     11 O          -0.4944    8.7301    3.0580 O.3       1 UNL1        0.0000
     12 O          -3.5902    7.2779    0.9543 O.co2     1 UNL1       -0.5000
     13 O          -1.6816    6.7726    2.0536 O.co2     1 UNL1       -0.5000
     14 H          -2.0862    8.1776    5.9697 H         1 UNL1        0.0000
     15 H          -2.9067    8.5030    4.4620 H         1 UNL1        0.0000
     16 H          -1.9494    9.7513    5.2219 H         1 UNL1        0.0000
     17 H          -0.2558   11.3815    2.8728 H         1 UNL1        0.0000
     18 H          -1.5855   12.8741    1.5448 H         1 UNL1        0.0000
     19 H          -3.3647   11.9640    0.1888 H         1 UNL1        0.0000
     20 H          -3.7930    9.5939    0.1746 H         1 UNL1        0.0000
@<TRIPOS>BOND
     1    1    2 1
     2    1   14 1
     3    1   15 1
     4    1   16 1
     5    2   10 2
     6    2   11 1
     7    3    4 ar
     8    3    8 ar
     9    3   11 1
    10    4    5 ar
    11    4   17 1
    12    5    6 ar
    13    5   18 1
    14    6    7 ar
    15    6   19 1
    16    7    8 ar
    17    7   20 1
    18    8    9 1
    19    9   12 ar
    20    9   13 ar
@<TRIPOS>SUBSTRUCTURE
1 UNL1 1
@<TRIPOS>COMMENT
aspirin
PLANTSproteinTorsions
24
56 257.2423
113 37.0641
248 132.5681
285 87.5505
405 262.3425
445 131.6462
481 5.4339
510 244.7458
526 47.1850
772 261.6403
870 302.3066
949 37.8209
988 160.2572
1001 178.9050
1037 207.8665
1061 209.7437
1095 128.0951
1133 198.1407
1166 66.4644
1200 274.3766
1301 184.0279
1539 148.8622
1611 94.2897
1693 134.8407
PLANTSmolcadARTstart hb
PLANTSmolcadARTstart HB
LINES
PLANTSmolcadARTstart HBCH
LINES
PLANTSmolcadARTstart HB-CHO
LINES
PLANTSmolcadARTend
PLANTSmolcadARTstart HB_WATER
LINES
PLANTSmolcadARTend

PLANTSmolcadARTend

