@<TRIPOS>MOLECULE
aspirin_entry_00001_conf_15
20 20 1
SMALL
NO_CHARGES


@<TRIPOS>ATOM
      1 C          11.7353   17.4895   -1.1399 C.3       1 UNL1        0.0000
      2 C          11.9849   16.4813   -0.0788 C.2       1 UNL1        0.0000
      3 C          11.1617   15.3703    1.9288 C.ar      1 UNL1        0.0000
      4 C          12.3016   15.4315    2.7020 C.ar      1 UNL1        0.0000
      5 C          12.4289   14.7976    3.9221 C.ar      1 UNL1        0.0000
      6 C          11.3620   14.0687    4.3888 C.ar      1 UNL1        0.0000
      7 C          10.1990   13.9740    3.6560 C.ar      1 UNL1        0.0000
      8 C          10.1079   14.6291    2.4271 C.ar      1 UNL1        0.0000
      9 C           8.8599   14.5032    1.6838 C.2       1 UNL1        0.0000
     10 O          13.1399   16.0157    0.1622 O.2       1 UNL1        0.0000
     11 O          10.9922   15.9816    0.7161 O.3       1 UNL1        0.0000
     12 O           8.6046   15.2629    0.7147 O.co2     1 UNL1       -0.5000
     13 O           7.9122   13.5495    2.0153 O.co2     1 UNL1       -0.5000
     14 H          12.6572   17.7292   -1.6271 H         1 UNL1        0.0000
     15 H          11.3234   18.3741   -0.7011 H         1 UNL1        0.0000
     16 H          11.0459   17.0916   -1.8545 H         1 UNL1        0.0000
     17 H          13.1018   15.9799    2.3505 H         1 UNL1        0.0000
     18 H          13.3016   14.8703    4.4690 H         1 UNL1        0.0000
     19 H          11.4321   13.5858    5.2982 H         1 UNL1        0.0000
     20 H           9.4013   13.4245    4.0132 H         1 UNL1        0.0000
@<TRIPOS>BOND
     1    1    2 1
     2    1   14 1
     3    1   15 1
     4    1   16 1
     5    2   10 2
     6    2   11 1
     7    3    4 ar
     8    3    8 ar
     9    3   11 1
    10    4    5 ar
    11    4   17 1
    12    5    6 ar
    13    5   18 1
    14    6    7 ar
    15    6   19 1
    16    7    8 ar
    17    7   20 1
    18    8    9 1
    19    9   12 ar
    20    9   13 ar
@<TRIPOS>SUBSTRUCTURE
1 UNL1 1
@<TRIPOS>COMMENT
aspirin
PLANTSproteinTorsions
24
56 354.0161
113 316.7825
248 120.2274
285 229.6644
405 100.1809
445 198.7416
481 319.8557
510 37.4739
526 34.6180
772 36.4644
870 227.6406
949 277.7415
988 76.5761
1001 242.7160
1037 124.0506
1061 299.9671
1095 270.5449
1133 44.8246
1166 187.3718
1200 207.6914
1301 226.1342
1539 222.0004
1611 270.8240
1693 117.2744
PLANTSmolcadARTstart hb
PLANTSmolcadARTstart HB
LINES
13.1399 16.0157 0.162153 13.382 14.258 -0.352 0 255 0 5
PLANTSmolcadARTstart HBCH
LINES
PLANTSmolcadARTstart HB-CHO
LINES
PLANTSmolcadARTend
PLANTSmolcadARTstart HB_WATER
LINES
PLANTSmolcadARTend

PLANTSmolcadARTend

