@<TRIPOS>MOLECULE
aspirin_entry_00001_conf_39
20 20 1
SMALL
NO_CHARGES


@<TRIPOS>ATOM
      1 C          13.8323   16.3148    2.7577 C.3       1 UNL1        0.0000
      2 C          12.6480   16.6983    3.5672 C.2       1 UNL1        0.0000
      3 C          12.1102   14.4380    4.3048 C.ar      1 UNL1        0.0000
      4 C          13.3399   13.8315    4.4496 C.ar      1 UNL1        0.0000
      5 C          13.5126   12.4624    4.4983 C.ar      1 UNL1        0.0000
      6 C          12.3989   11.6642    4.3978 C.ar      1 UNL1        0.0000
      7 C          11.1459   12.2182    4.2512 C.ar      1 UNL1        0.0000
      8 C          11.0114   13.6067    4.2066 C.ar      1 UNL1        0.0000
      9 C           9.6682   14.1518    4.0505 C.2       1 UNL1        0.0000
     10 O          12.2562   17.8996    3.6769 O.2       1 UNL1        0.0000
     11 O          11.8931   15.7882    4.2519 O.3       1 UNL1        0.0000
     12 O           8.6529   13.4457    4.2786 O.co2     1 UNL1       -0.5000
     13 O           9.4594   15.4594    3.6456 O.co2     1 UNL1       -0.5000
     14 H          14.2601   17.1905    2.3160 H         1 UNL1        0.0000
     15 H          13.5324   15.6367    1.9865 H         1 UNL1        0.0000
     16 H          14.5562   15.8416    3.3873 H         1 UNL1        0.0000
     17 H          14.1752   14.4324    4.5258 H         1 UNL1        0.0000
     18 H          14.4527   12.0500    4.6083 H         1 UNL1        0.0000
     19 H          12.5015   10.6378    4.4317 H         1 UNL1        0.0000
     20 H          10.3137   11.6120    4.1765 H         1 UNL1        0.0000
@<TRIPOS>BOND
     1    1    2 1
     2    1   14 1
     3    1   15 1
     4    1   16 1
     5    2   10 2
     6    2   11 1
     7    3    4 ar
     8    3    8 ar
     9    3   11 1
    10    4    5 ar
    11    4   17 1
    12    5    6 ar
    13    5   18 1
    14    6    7 ar
    15    6   19 1
    16    7    8 ar
    17    7   20 1
    18    8    9 1
    19    9   12 ar
    20    9   13 ar
@<TRIPOS>SUBSTRUCTURE
1 UNL1 1
@<TRIPOS>COMMENT
aspirin
PLANTSproteinTorsions
24
56 70.8706
113 102.2305
248 276.5915
285 230.1198
405 167.4661
445 123.7281
481 180.5058
510 275.3758
526 101.3132
772 8.8163
870 127.1234
949 186.0129
988 168.1891
1001 148.0112
1037 70.0071
1061 128.6841
1095 20.0428
1133 155.7409
1166 223.8656
1200 238.2841
1301 192.4185
1539 135.6000
1611 296.3157
1693 268.7902
PLANTSmolcadARTstart hb
PLANTSmolcadARTstart HB
LINES
PLANTSmolcadARTstart HBCH
LINES
PLANTSmolcadARTstart HB-CHO
LINES
12.2562 17.8996 3.67687 11.62 19.933 2.538 0 255 255 5
PLANTSmolcadARTend
PLANTSmolcadARTstart HB_WATER
LINES
PLANTSmolcadARTend

PLANTSmolcadARTend

