@<TRIPOS>MOLECULE
aspirin_entry_00001_conf_93
20 20 1
SMALL
NO_CHARGES


@<TRIPOS>ATOM
      1 C          11.8177   24.1133   -6.8247 C.3       1 UNL1        0.0000
      2 C          10.9003   25.2583   -6.5964 C.2       1 UNL1        0.0000
      3 C           9.3180   26.8833   -7.4899 C.ar      1 UNL1        0.0000
      4 C           7.9826   26.6075   -7.2858 C.ar      1 UNL1        0.0000
      5 C           7.0138   27.5838   -7.1630 C.ar      1 UNL1        0.0000
      6 C           7.4033   28.8985   -7.2482 C.ar      1 UNL1        0.0000
      7 C           8.7251   29.2299   -7.4518 C.ar      1 UNL1        0.0000
      8 C           9.6757   28.2150   -7.5707 C.ar      1 UNL1        0.0000
      9 C          11.0629   28.6089   -7.7855 C.2       1 UNL1        0.0000
     10 O          10.6027   25.6735   -5.4355 O.2       1 UNL1        0.0000
     11 O          10.3103   25.9493   -7.6170 O.3       1 UNL1        0.0000
     12 O          11.3619   29.7977   -8.0661 O.co2     1 UNL1       -0.5000
     13 O          12.0986   27.6946   -7.6914 O.co2     1 UNL1       -0.5000
     14 H          12.1548   23.7340   -5.8827 H         1 UNL1        0.0000
     15 H          12.6591   24.4399   -7.3993 H         1 UNL1        0.0000
     16 H          11.3003   23.3426   -7.3562 H         1 UNL1        0.0000
     17 H           7.6918   25.6197   -7.2213 H         1 UNL1        0.0000
     18 H           6.0240   27.3325   -7.0104 H         1 UNL1        0.0000
     19 H           6.6981   29.6468   -7.1593 H         1 UNL1        0.0000
     20 H           9.0102   30.2201   -7.5146 H         1 UNL1        0.0000
@<TRIPOS>BOND
     1    1    2 1
     2    1   14 1
     3    1   15 1
     4    1   16 1
     5    2   10 2
     6    2   11 1
     7    3    4 ar
     8    3    8 ar
     9    3   11 1
    10    4    5 ar
    11    4   17 1
    12    5    6 ar
    13    5   18 1
    14    6    7 ar
    15    6   19 1
    16    7    8 ar
    17    7   20 1
    18    8    9 1
    19    9   12 ar
    20    9   13 ar
@<TRIPOS>SUBSTRUCTURE
1 UNL1 1
@<TRIPOS>COMMENT
aspirin
PLANTSproteinTorsions
24
56 0.4265
113 354.4123
248 40.0560
285 156.4119
405 8.8846
445 244.6761
481 21.9643
510 109.4532
526 16.6813
772 109.0146
870 75.3607
949 135.3771
988 95.7195
1001 220.5664
1037 282.1682
1061 311.5151
1095 149.0487
1133 281.4454
1166 144.8112
1200 1.4515
1301 253.5585
1539 243.0467
1611 236.0357
1693 239.7278
PLANTSmolcadARTstart hb
PLANTSmolcadARTstart HB
LINES
PLANTSmolcadARTstart HBCH
LINES
PLANTSmolcadARTstart HB-CHO
LINES
PLANTSmolcadARTend
PLANTSmolcadARTstart HB_WATER
LINES
PLANTSmolcadARTend

PLANTSmolcadARTend

