@<TRIPOS>MOLECULE
aspirin_entry_00001_conf_60
20 20 1
SMALL
NO_CHARGES


@<TRIPOS>ATOM
      1 C          -5.3961    7.0919    0.1672 C.3       1 UNL1        0.0000
      2 C          -5.1201    8.5508    0.1853 C.2       1 UNL1        0.0000
      3 C          -3.5197   10.3895    0.1869 C.ar      1 UNL1        0.0000
      4 C          -4.2024   11.3527   -0.5253 C.ar      1 UNL1        0.0000
      5 C          -3.8267   12.6809   -0.5630 C.ar      1 UNL1        0.0000
      6 C          -2.7142   13.0607    0.1480 C.ar      1 UNL1        0.0000
      7 C          -1.9948   12.1386    0.8764 C.ar      1 UNL1        0.0000
      8 C          -2.4059   10.8049    0.8904 C.ar      1 UNL1        0.0000
      9 C          -1.6168    9.8617    1.6737 C.2       1 UNL1        0.0000
     10 O          -6.0424    9.4204    0.1406 O.2       1 UNL1        0.0000
     11 O          -3.8558    9.0644    0.2524 O.3       1 UNL1        0.0000
     12 O          -0.4950   10.1870    2.1395 O.co2     1 UNL1       -0.5000
     13 O          -2.0683    8.5783    1.9318 O.co2     1 UNL1       -0.5000
     14 H          -6.4524    6.9301    0.1128 H         1 UNL1        0.0000
     15 H          -5.0126    6.6456    1.0606 H         1 UNL1        0.0000
     16 H          -4.9222    6.6502   -0.6841 H         1 UNL1        0.0000
     17 H          -5.0381   11.0660   -1.0581 H         1 UNL1        0.0000
     18 H          -4.3677   13.3697   -1.1097 H         1 UNL1        0.0000
     19 H          -2.4130   14.0478    0.1362 H         1 UNL1        0.0000
     20 H          -1.1600   12.4315    1.4083 H         1 UNL1        0.0000
@<TRIPOS>BOND
     1    1    2 1
     2    1   14 1
     3    1   15 1
     4    1   16 1
     5    2   10 2
     6    2   11 1
     7    3    4 ar
     8    3    8 ar
     9    3   11 1
    10    4    5 ar
    11    4   17 1
    12    5    6 ar
    13    5   18 1
    14    6    7 ar
    15    6   19 1
    16    7    8 ar
    17    7   20 1
    18    8    9 1
    19    9   12 ar
    20    9   13 ar
@<TRIPOS>SUBSTRUCTURE
1 UNL1 1
@<TRIPOS>COMMENT
aspirin
PLANTSproteinTorsions
24
56 100.9160
113 355.1929
248 167.3084
285 268.6651
405 314.3461
445 263.0942
481 107.7966
510 101.2794
526 146.7349
772 233.0999
870 225.5077
949 246.9507
988 117.5644
1001 263.1112
1037 89.8257
1061 46.2962
1095 17.7264
1133 190.8490
1166 189.0187
1200 270.2064
1301 228.8026
1539 160.9618
1611 148.3675
1693 222.2118
PLANTSmolcadARTstart hb
PLANTSmolcadARTstart HB
LINES
-0.494956 10.187 2.13954 0.418 11.086 0.528 0 255 0 5
PLANTSmolcadARTstart HBCH
LINES
PLANTSmolcadARTstart HB-CHO
LINES
PLANTSmolcadARTend
PLANTSmolcadARTstart HB_WATER
LINES
PLANTSmolcadARTend

PLANTSmolcadARTend

