@<TRIPOS>MOLECULE
aspirin_entry_00001_conf_63
20 20 1
SMALL
NO_CHARGES


@<TRIPOS>ATOM
      1 C          14.2888   12.7887    4.5794 C.3       1 UNL1        0.0000
      2 C          13.2018   13.1861    5.5096 C.2       1 UNL1        0.0000
      3 C          12.1159   14.7379    3.9750 C.ar      1 UNL1        0.0000
      4 C          13.1767   15.2315    3.2456 C.ar      1 UNL1        0.0000
      5 C          13.0301   15.9057    2.0495 C.ar      1 UNL1        0.0000
      6 C          11.7595   16.0929    1.5620 C.ar      1 UNL1        0.0000
      7 C          10.6637   15.6206    2.2510 C.ar      1 UNL1        0.0000
      8 C          10.8521   14.9433    3.4567 C.ar      1 UNL1        0.0000
      9 C           9.6663   14.4599    4.1538 C.2       1 UNL1        0.0000
     10 O          13.1169   12.7357    6.6923 O.2       1 UNL1        0.0000
     11 O          12.2148   14.0650    5.1626 O.3       1 UNL1        0.0000
     12 O           8.5146   14.8137    3.7933 O.co2     1 UNL1       -0.5000
     13 O           9.7615   13.5993    5.2345 O.co2     1 UNL1       -0.5000
     14 H          14.9409   12.0959    5.0692 H         1 UNL1        0.0000
     15 H          14.8436   13.6559    4.2885 H         1 UNL1        0.0000
     16 H          13.8649   12.3286    3.7117 H         1 UNL1        0.0000
     17 H          14.1305   15.0894    3.6127 H         1 UNL1        0.0000
     18 H          13.8530   16.2586    1.5354 H         1 UNL1        0.0000
     19 H          11.6234   16.5936    0.6699 H         1 UNL1        0.0000
     20 H           9.7119   15.7649    1.8783 H         1 UNL1        0.0000
@<TRIPOS>BOND
     1    1    2 1
     2    1   14 1
     3    1   15 1
     4    1   16 1
     5    2   10 2
     6    2   11 1
     7    3    4 ar
     8    3    8 ar
     9    3   11 1
    10    4    5 ar
    11    4   17 1
    12    5    6 ar
    13    5   18 1
    14    6    7 ar
    15    6   19 1
    16    7    8 ar
    17    7   20 1
    18    8    9 1
    19    9   12 ar
    20    9   13 ar
@<TRIPOS>SUBSTRUCTURE
1 UNL1 1
@<TRIPOS>COMMENT
aspirin
PLANTSproteinTorsions
24
56 152.2406
113 192.0871
248 341.8306
285 0.9327
405 158.9620
445 146.7063
481 136.5824
510 76.0191
526 294.5601
772 206.1671
870 191.1705
949 134.4955
988 122.8901
1001 105.8754
1037 233.7762
1061 178.9587
1095 110.4869
1133 183.9900
1166 253.1156
1200 134.7849
1301 105.5297
1539 139.8008
1611 48.3756
1693 75.6033
PLANTSmolcadARTstart hb
PLANTSmolcadARTstart HB
LINES
PLANTSmolcadARTstart HBCH
LINES
PLANTSmolcadARTstart HB-CHO
LINES
PLANTSmolcadARTend
PLANTSmolcadARTstart HB_WATER
LINES
PLANTSmolcadARTend

PLANTSmolcadARTend

