@<TRIPOS>MOLECULE
aspirin_entry_00001_conf_72
20 20 1
SMALL
NO_CHARGES


@<TRIPOS>ATOM
      1 C          12.6850   25.1059   16.0556 C.3       1 UNL1        0.0000
      2 C          13.5496   26.0580   15.3134 C.2       1 UNL1        0.0000
      3 C          13.6188   27.7498   17.0670 C.ar      1 UNL1        0.0000
      4 C          13.5448   26.9953   18.2186 C.ar      1 UNL1        0.0000
      5 C          13.2327   27.5232   19.4558 C.ar      1 UNL1        0.0000
      6 C          12.9839   28.8715   19.5417 C.ar      1 UNL1        0.0000
      7 C          13.0438   29.6718   18.4217 C.ar      1 UNL1        0.0000
      8 C          13.3629   29.1018   17.1884 C.ar      1 UNL1        0.0000
      9 C          13.4156   29.9838   16.0286 C.2       1 UNL1        0.0000
     10 O          13.9990   25.8100   14.1536 O.2       1 UNL1        0.0000
     11 O          13.9241   27.2695   15.8223 O.3       1 UNL1        0.0000
     12 O          12.5848   30.9172   15.8873 O.co2     1 UNL1       -0.5000
     13 O          14.3754   29.8277   15.0427 O.co2     1 UNL1       -0.5000
     14 H          12.5268   24.2307   15.4608 H         1 UNL1        0.0000
     15 H          11.7438   25.5690   16.2659 H         1 UNL1        0.0000
     16 H          13.1615   24.8332   16.9737 H         1 UNL1        0.0000
     17 H          13.7328   25.9830   18.1526 H         1 UNL1        0.0000
     18 H          13.1886   26.9211   20.2934 H         1 UNL1        0.0000
     19 H          12.7487   29.2902   20.4553 H         1 UNL1        0.0000
     20 H          12.8556   30.6843   18.4941 H         1 UNL1        0.0000
@<TRIPOS>BOND
     1    1    2 1
     2    1   14 1
     3    1   15 1
     4    1   16 1
     5    2   10 2
     6    2   11 1
     7    3    4 ar
     8    3    8 ar
     9    3   11 1
    10    4    5 ar
    11    4   17 1
    12    5    6 ar
    13    5   18 1
    14    6    7 ar
    15    6   19 1
    16    7    8 ar
    17    7   20 1
    18    8    9 1
    19    9   12 ar
    20    9   13 ar
@<TRIPOS>SUBSTRUCTURE
1 UNL1 1
@<TRIPOS>COMMENT
aspirin
PLANTSproteinTorsions
24
56 150.8590
113 248.4440
248 337.1299
285 215.2682
405 87.6495
445 277.9514
481 71.5961
510 156.8951
526 100.6024
772 331.0645
870 289.1014
949 235.7180
988 72.2590
1001 29.4307
1037 217.8045
1061 244.3190
1095 15.4212
1133 163.7712
1166 21.7405
1200 99.7875
1301 126.7428
1539 66.7828
1611 179.6929
1693 218.7878
PLANTSmolcadARTstart hb
PLANTSmolcadARTstart HB
LINES
13.999 25.81 14.1536 15.194 25.699 13.084 0 255 0 5
12.5848 30.9172 15.8873 11.439 31.909 15.45 0 255 0 5
PLANTSmolcadARTstart HBCH
LINES
12.5848 30.9172 15.8873 10.8456 29.8557 15.7777 255 0 0 5
PLANTSmolcadARTstart HB-CHO
LINES
PLANTSmolcadARTend
PLANTSmolcadARTstart HB_WATER
LINES
PLANTSmolcadARTend

PLANTSmolcadARTend

