@<TRIPOS>MOLECULE
aspirin_entry_00001_conf_100
20 20 1
SMALL
NO_CHARGES


@<TRIPOS>ATOM
      1 C          12.5952   25.5485   -2.0103 C.3       1 UNL1        0.0000
      2 C          11.9048   25.7075   -3.3152 C.2       1 UNL1        0.0000
      3 C          12.6230   28.0053   -3.6978 C.ar      1 UNL1        0.0000
      4 C          12.9627   28.3651   -2.4109 C.ar      1 UNL1        0.0000
      5 C          13.6194   29.5384   -2.0966 C.ar      1 UNL1        0.0000
      6 C          13.9515   30.3905   -3.1218 C.ar      1 UNL1        0.0000
      7 C          13.6352   30.0801   -4.4265 C.ar      1 UNL1        0.0000
      8 C          12.9714   28.8844   -4.7048 C.ar      1 UNL1        0.0000
      9 C          12.6555   28.5942   -6.0983 C.2       1 UNL1        0.0000
     10 O          11.2022   24.7867   -3.8323 O.2       1 UNL1        0.0000
     11 O          11.9735   26.8546   -4.0544 O.3       1 UNL1        0.0000
     12 O          13.0088   29.3756   -7.0181 O.co2     1 UNL1       -0.5000
     13 O          11.9566   27.4550   -6.4608 O.co2     1 UNL1       -0.5000
     14 H          12.3971   24.5724   -1.6194 H         1 UNL1        0.0000
     15 H          12.2357   26.2869   -1.3247 H         1 UNL1        0.0000
     16 H          13.6489   25.6719   -2.1473 H         1 UNL1        0.0000
     17 H          12.7133   27.7237   -1.6422 H         1 UNL1        0.0000
     18 H          13.8551   29.7685   -1.1181 H         1 UNL1        0.0000
     19 H          14.4429   31.2737   -2.9130 H         1 UNL1        0.0000
     20 H          13.8881   30.7253   -5.1916 H         1 UNL1        0.0000
@<TRIPOS>BOND
     1    1    2 1
     2    1   14 1
     3    1   15 1
     4    1   16 1
     5    2   10 2
     6    2   11 1
     7    3    4 ar
     8    3    8 ar
     9    3   11 1
    10    4    5 ar
    11    4   17 1
    12    5    6 ar
    13    5   18 1
    14    6    7 ar
    15    6   19 1
    16    7    8 ar
    17    7   20 1
    18    8    9 1
    19    9   12 ar
    20    9   13 ar
@<TRIPOS>SUBSTRUCTURE
1 UNL1 1
@<TRIPOS>COMMENT
aspirin
PLANTSproteinTorsions
24
56 346.2009
113 208.7776
248 185.2522
285 321.1512
405 159.6428
445 111.6049
481 48.4575
510 241.1276
526 102.3676
772 52.3861
870 188.5715
949 291.7330
988 218.6855
1001 152.9862
1037 197.3520
1061 64.5476
1095 184.0725
1133 38.4620
1166 188.2470
1200 136.0498
1301 199.7484
1539 167.0511
1611 61.8999
1693 244.0963
PLANTSmolcadARTstart hb
PLANTSmolcadARTstart HB
LINES
PLANTSmolcadARTstart HBCH
LINES
PLANTSmolcadARTstart HB-CHO
LINES
PLANTSmolcadARTend
PLANTSmolcadARTstart HB_WATER
LINES
PLANTSmolcadARTend

PLANTSmolcadARTend

