@<TRIPOS>MOLECULE
aspirin_entry_00001_conf_70
20 20 1
SMALL
NO_CHARGES


@<TRIPOS>ATOM
      1 C           9.8787   30.0781   -6.5653 C.3       1 UNL1        0.0000
      2 C          10.7695   28.8922   -6.4951 C.2       1 UNL1        0.0000
      3 C           9.1540   27.3136   -7.4120 C.ar      1 UNL1        0.0000
      4 C           7.9466   27.7469   -6.9069 C.ar      1 UNL1        0.0000
      5 C           6.7246   27.3793   -7.4346 C.ar      1 UNL1        0.0000
      6 C           6.7138   26.5380   -8.5207 C.ar      1 UNL1        0.0000
      7 C           7.8918   26.0748   -9.0649 C.ar      1 UNL1        0.0000
      8 C           9.1075   26.4689   -8.5040 C.ar      1 UNL1        0.0000
      9 C          10.3303   25.9561   -9.1101 C.2       1 UNL1        0.0000
     10 O          11.9490   28.9510   -6.0324 O.2       1 UNL1        0.0000
     11 O          10.3862   27.6520   -6.9217 O.3       1 UNL1        0.0000
     12 O          10.3029   25.3591  -10.2166 O.co2     1 UNL1       -0.5000
     13 O          11.5616   26.1037   -8.4939 O.co2     1 UNL1       -0.5000
     14 H          10.3919   30.9324   -6.1757 H         1 UNL1        0.0000
     15 H           8.9977   29.8967   -5.9860 H         1 UNL1        0.0000
     16 H           9.6052   30.2587   -7.5835 H         1 UNL1        0.0000
     17 H           7.9564   28.3793   -6.0917 H         1 UNL1        0.0000
     18 H           5.8434   27.7280   -7.0247 H         1 UNL1        0.0000
     19 H           5.8132   26.2488   -8.9336 H         1 UNL1        0.0000
     20 H           7.8757   25.4430   -9.8811 H         1 UNL1        0.0000
@<TRIPOS>BOND
     1    1    2 1
     2    1   14 1
     3    1   15 1
     4    1   16 1
     5    2   10 2
     6    2   11 1
     7    3    4 ar
     8    3    8 ar
     9    3   11 1
    10    4    5 ar
    11    4   17 1
    12    5    6 ar
    13    5   18 1
    14    6    7 ar
    15    6   19 1
    16    7    8 ar
    17    7   20 1
    18    8    9 1
    19    9   12 ar
    20    9   13 ar
@<TRIPOS>SUBSTRUCTURE
1 UNL1 1
@<TRIPOS>COMMENT
aspirin
PLANTSproteinTorsions
24
56 141.8492
113 114.2987
248 133.0098
285 45.1612
405 153.2574
445 242.2465
481 205.3125
510 241.0371
526 24.4915
772 184.7999
870 150.3987
949 197.6691
988 57.3370
1001 233.8604
1037 42.7298
1061 170.2642
1095 91.9224
1133 344.6985
1166 216.5966
1200 81.7243
1301 273.0448
1539 178.4283
1611 197.7652
1693 88.8797
PLANTSmolcadARTstart hb
PLANTSmolcadARTstart HB
LINES
PLANTSmolcadARTstart HBCH
LINES
PLANTSmolcadARTstart HB-CHO
LINES
PLANTSmolcadARTend
PLANTSmolcadARTstart HB_WATER
LINES
PLANTSmolcadARTend

PLANTSmolcadARTend

