@<TRIPOS>MOLECULE
aspirin_entry_00001_conf_83
20 20 1
SMALL
NO_CHARGES


@<TRIPOS>ATOM
      1 C          18.3357   31.7665   -0.5108 C.3       1 UNL1        0.0000
      2 C          17.2498   30.8469   -0.0867 C.2       1 UNL1        0.0000
      3 C          18.0039   28.9454   -1.4126 C.ar      1 UNL1        0.0000
      4 C          19.3311   28.6673   -1.1630 C.ar      1 UNL1        0.0000
      5 C          20.1614   28.0406   -2.0711 C.ar      1 UNL1        0.0000
      6 C          19.6352   27.6751   -3.2863 C.ar      1 UNL1        0.0000
      7 C          18.3151   27.9297   -3.5878 C.ar      1 UNL1        0.0000
      8 C          17.5067   28.5648   -2.6438 C.ar      1 UNL1        0.0000
      9 C          16.1160   28.8153   -3.0027 C.2       1 UNL1        0.0000
     10 O          16.3427   31.1925    0.7296 O.2       1 UNL1        0.0000
     11 O          17.1460   29.5633   -0.5435 O.3       1 UNL1        0.0000
     12 O          15.7145   28.6593   -4.1843 O.co2     1 UNL1       -0.5000
     13 O          15.1892   29.2341   -2.0629 O.co2     1 UNL1       -0.5000
     14 H          18.2109   32.7122   -0.0260 H         1 UNL1        0.0000
     15 H          18.2945   31.9014   -1.5713 H         1 UNL1        0.0000
     16 H          19.2826   31.3484   -0.2409 H         1 UNL1        0.0000
     17 H          19.7246   28.9417   -0.2496 H         1 UNL1        0.0000
     18 H          21.1503   27.8511   -1.8425 H         1 UNL1        0.0000
     19 H          20.2353   27.2051   -3.9821 H         1 UNL1        0.0000
     20 H          17.9267   27.6520   -4.5030 H         1 UNL1        0.0000
@<TRIPOS>BOND
     1    1    2 1
     2    1   14 1
     3    1   15 1
     4    1   16 1
     5    2   10 2
     6    2   11 1
     7    3    4 ar
     8    3    8 ar
     9    3   11 1
    10    4    5 ar
    11    4   17 1
    12    5    6 ar
    13    5   18 1
    14    6    7 ar
    15    6   19 1
    16    7    8 ar
    17    7   20 1
    18    8    9 1
    19    9   12 ar
    20    9   13 ar
@<TRIPOS>SUBSTRUCTURE
1 UNL1 1
@<TRIPOS>COMMENT
aspirin
PLANTSproteinTorsions
24
56 264.0684
113 247.6797
248 329.0798
285 268.5249
405 111.5609
445 121.6833
481 310.4246
510 14.8276
526 326.9060
772 63.8641
870 278.2019
949 107.9039
988 140.1991
1001 287.7270
1037 69.9222
1061 257.4463
1095 104.7627
1133 110.3241
1166 142.1539
1200 111.2610
1301 242.8470
1539 223.8597
1611 4.9666
1693 310.8480
PLANTSmolcadARTstart hb
PLANTSmolcadARTstart HB
LINES
PLANTSmolcadARTstart HBCH
LINES
PLANTSmolcadARTstart HB-CHO
LINES
PLANTSmolcadARTend
PLANTSmolcadARTstart HB_WATER
LINES
PLANTSmolcadARTend

PLANTSmolcadARTend

