@<TRIPOS>MOLECULE
aspirin_entry_00001_conf_79
20 20 1
SMALL
NO_CHARGES


@<TRIPOS>ATOM
      1 C           7.9368   12.5229    5.9797 C.3       1 UNL1        0.0000
      2 C           8.5980   11.2485    5.6010 C.2       1 UNL1        0.0000
      3 C          10.5720   12.2790    4.6093 C.ar      1 UNL1        0.0000
      4 C          10.1257   13.3688    3.8923 C.ar      1 UNL1        0.0000
      5 C          10.9317   14.4360    3.5486 C.ar      1 UNL1        0.0000
      6 C          12.2472   14.4088    3.9434 C.ar      1 UNL1        0.0000
      7 C          12.7455   13.3437    4.6616 C.ar      1 UNL1        0.0000
      8 C          11.8997   12.2833    4.9906 C.ar      1 UNL1        0.0000
      9 C          12.4668   11.1763    5.7512 C.2       1 UNL1        0.0000
     10 O           8.0804   10.1148    5.8367 O.2       1 UNL1        0.0000
     11 O           9.8098   11.2016    4.9714 O.3       1 UNL1        0.0000
     12 O          11.8752   10.0687    5.8204 O.co2     1 UNL1       -0.5000
     13 O          13.6703   11.3011    6.4246 O.co2     1 UNL1       -0.5000
     14 H           7.0028   12.3113    6.4570 H         1 UNL1        0.0000
     15 H           7.7636   13.1091    5.1016 H         1 UNL1        0.0000
     16 H           8.5674   13.0655    6.6521 H         1 UNL1        0.0000
     17 H           9.1372   13.3880    3.5972 H         1 UNL1        0.0000
     18 H          10.5556   15.2328    3.0104 H         1 UNL1        0.0000
     19 H          12.8701   15.1946    3.6991 H         1 UNL1        0.0000
     20 H          13.7351   13.3303    4.9550 H         1 UNL1        0.0000
@<TRIPOS>BOND
     1    1    2 1
     2    1   14 1
     3    1   15 1
     4    1   16 1
     5    2   10 2
     6    2   11 1
     7    3    4 ar
     8    3    8 ar
     9    3   11 1
    10    4    5 ar
    11    4   17 1
    12    5    6 ar
    13    5   18 1
    14    6    7 ar
    15    6   19 1
    16    7    8 ar
    17    7   20 1
    18    8    9 1
    19    9   12 ar
    20    9   13 ar
@<TRIPOS>SUBSTRUCTURE
1 UNL1 1
@<TRIPOS>COMMENT
aspirin
PLANTSproteinTorsions
24
56 210.1780
113 63.2155
248 191.4524
285 288.4041
405 193.5248
445 129.5549
481 6.1860
510 26.3901
526 169.0513
772 178.5421
870 297.1688
949 305.5515
988 21.2040
1001 250.6446
1037 113.5850
1061 335.1115
1095 24.2851
1133 81.8725
1166 48.6410
1200 159.7100
1301 186.1100
1539 55.4522
1611 217.0018
1693 56.0547
PLANTSmolcadARTstart hb
PLANTSmolcadARTstart HB
LINES
PLANTSmolcadARTstart HBCH
LINES
13.6703 11.3011 6.4246 15.3366 10.5459 6.38309 255 0 0 5
PLANTSmolcadARTstart HB-CHO
LINES
PLANTSmolcadARTend
PLANTSmolcadARTstart HB_WATER
LINES
PLANTSmolcadARTend

PLANTSmolcadARTend

