@<TRIPOS>MOLECULE
aspirin_entry_00001_conf_43
20 20 1
SMALL
NO_CHARGES


@<TRIPOS>ATOM
      1 C           8.1392   15.3299    4.9676 C.3       1 UNL1        0.0000
      2 C           8.2653   15.1369    3.5008 C.2       1 UNL1        0.0000
      3 C          10.5951   14.4210    3.5440 C.ar      1 UNL1        0.0000
      4 C          10.7186   13.7872    4.7622 C.ar      1 UNL1        0.0000
      5 C          11.9330   13.5314    5.3676 C.ar      1 UNL1        0.0000
      6 C          13.0773   13.9293    4.7198 C.ar      1 UNL1        0.0000
      7 C          13.0110   14.5672    3.5003 C.ar      1 UNL1        0.0000
      8 C          11.7650   14.8080    2.9197 C.ar      1 UNL1        0.0000
      9 C          11.7394   15.4854    1.6289 C.2       1 UNL1        0.0000
     10 O           7.3125   15.3714    2.6971 O.2       1 UNL1        0.0000
     11 O           9.4143   14.6944    2.9083 O.3       1 UNL1        0.0000
     12 O          10.6498   15.7783    1.0734 O.co2     1 UNL1       -0.5000
     13 O          12.9065   15.8287    0.9675 O.co2     1 UNL1       -0.5000
     14 H           7.1549   15.6813    5.1970 H         1 UNL1        0.0000
     15 H           8.8600   16.0492    5.2957 H         1 UNL1        0.0000
     16 H           8.3118   14.3991    5.4656 H         1 UNL1        0.0000
     17 H           9.8584   13.4883    5.2471 H         1 UNL1        0.0000
     18 H          11.9797   13.0532    6.2815 H         1 UNL1        0.0000
     19 H          13.9974   13.7493    5.1514 H         1 UNL1        0.0000
     20 H          13.8752   14.8632    3.0195 H         1 UNL1        0.0000
@<TRIPOS>BOND
     1    1    2 1
     2    1   14 1
     3    1   15 1
     4    1   16 1
     5    2   10 2
     6    2   11 1
     7    3    4 ar
     8    3    8 ar
     9    3   11 1
    10    4    5 ar
    11    4   17 1
    12    5    6 ar
    13    5   18 1
    14    6    7 ar
    15    6   19 1
    16    7    8 ar
    17    7   20 1
    18    8    9 1
    19    9   12 ar
    20    9   13 ar
@<TRIPOS>SUBSTRUCTURE
1 UNL1 1
@<TRIPOS>COMMENT
aspirin
PLANTSproteinTorsions
24
56 123.2541
113 207.4031
248 299.8501
285 243.7480
405 149.1666
445 176.4770
481 42.9397
510 120.3100
526 186.0052
772 189.5559
870 184.1536
949 94.0804
988 88.6247
1001 176.1552
1037 7.9407
1061 135.0756
1095 198.1355
1133 296.4423
1166 162.7750
1200 205.4517
1301 75.6313
1539 155.2950
1611 191.7749
1693 230.0755
PLANTSmolcadARTstart hb
PLANTSmolcadARTstart HB
LINES
12.9065 15.8287 0.967462 13.382 14.258 -0.352 0 255 0 5
PLANTSmolcadARTstart HBCH
LINES
PLANTSmolcadARTstart HB-CHO
LINES
PLANTSmolcadARTend
PLANTSmolcadARTstart HB_WATER
LINES
PLANTSmolcadARTend

PLANTSmolcadARTend

