@<TRIPOS>MOLECULE
aspirin_entry_00001_conf_23
20 20 1
SMALL
NO_CHARGES


@<TRIPOS>ATOM
      1 C          10.7169   15.4186    0.0672 C.3       1 UNL1        0.0000
      2 C           9.4642   15.0481    0.7730 C.2       1 UNL1        0.0000
      3 C          10.4917   14.7504    2.9634 C.ar      1 UNL1        0.0000
      4 C          11.5518   15.6316    2.9424 C.ar      1 UNL1        0.0000
      5 C          12.6133   15.5667    3.8231 C.ar      1 UNL1        0.0000
      6 C          12.6106   14.5712    4.7699 C.ar      1 UNL1        0.0000
      7 C          11.5760   13.6636    4.8350 C.ar      1 UNL1        0.0000
      8 C          10.5201   13.7617    3.9277 C.ar      1 UNL1        0.0000
      9 C           9.4457   12.7816    4.0310 C.2       1 UNL1        0.0000
     10 O           8.3474   14.9567    0.1787 O.2       1 UNL1        0.0000
     11 O           9.4208   14.7775    2.1116 O.3       1 UNL1        0.0000
     12 O           9.5975   11.7224    4.6919 O.co2     1 UNL1       -0.5000
     13 O           8.2246   12.9766    3.4078 O.co2     1 UNL1       -0.5000
     14 H          10.5066   15.5819   -0.9692 H         1 UNL1        0.0000
     15 H          11.4292   14.6265    0.1659 H         1 UNL1        0.0000
     16 H          11.1165   16.3132    0.4964 H         1 UNL1        0.0000
     17 H          11.5520   16.3791    2.2313 H         1 UNL1        0.0000
     18 H          13.3873   16.2482    3.7720 H         1 UNL1        0.0000
     19 H          13.3926   14.5015    5.4399 H         1 UNL1        0.0000
     20 H          11.5809   12.9183    5.5494 H         1 UNL1        0.0000
@<TRIPOS>BOND
     1    1    2 1
     2    1   14 1
     3    1   15 1
     4    1   16 1
     5    2   10 2
     6    2   11 1
     7    3    4 ar
     8    3    8 ar
     9    3   11 1
    10    4    5 ar
    11    4   17 1
    12    5    6 ar
    13    5   18 1
    14    6    7 ar
    15    6   19 1
    16    7    8 ar
    17    7   20 1
    18    8    9 1
    19    9   12 ar
    20    9   13 ar
@<TRIPOS>SUBSTRUCTURE
1 UNL1 1
@<TRIPOS>COMMENT
aspirin
PLANTSproteinTorsions
24
56 122.6823
113 26.2562
248 208.3565
285 190.5849
405 15.0278
445 117.4500
481 169.2761
510 152.6578
526 126.0281
772 29.3733
870 192.8746
949 268.0437
988 181.9980
1001 194.6293
1037 80.8381
1061 256.2327
1095 84.2406
1133 248.8882
1166 257.5423
1200 141.2985
1301 167.1549
1539 101.2409
1611 20.4169
1693 251.2874
PLANTSmolcadARTstart hb
PLANTSmolcadARTstart HB
LINES
8.22461 12.9766 3.40776 6.321 12.2 3.751 0 255 0 5
PLANTSmolcadARTstart HBCH
LINES
PLANTSmolcadARTstart HB-CHO
LINES
PLANTSmolcadARTend
PLANTSmolcadARTstart HB_WATER
LINES
PLANTSmolcadARTend

PLANTSmolcadARTend

