@<TRIPOS>MOLECULE
aspirin_entry_00001_conf_68
20 20 1
SMALL
NO_CHARGES


@<TRIPOS>ATOM
      1 C           9.0479   17.6135   13.5692 C.3       1 UNL1        0.0000
      2 C           8.4209   16.2877   13.8012 C.2       1 UNL1        0.0000
      3 C          10.1731   14.9902   12.7110 C.ar      1 UNL1        0.0000
      4 C          10.6664   15.8639   11.7653 C.ar      1 UNL1        0.0000
      5 C          11.8820   15.6942   11.1327 C.ar      1 UNL1        0.0000
      6 C          12.6386   14.5968   11.4651 C.ar      1 UNL1        0.0000
      7 C          12.1928   13.6917   12.4035 C.ar      1 UNL1        0.0000
      8 C          10.9587   13.8974   13.0219 C.ar      1 UNL1        0.0000
      9 C          10.5244   12.9161   14.0089 C.2       1 UNL1        0.0000
     10 O           7.3242   16.1508   14.4236 O.2       1 UNL1        0.0000
     11 O           8.9761   15.1190   13.3619 O.3       1 UNL1        0.0000
     12 O          11.1889   11.8686   14.2156 O.co2     1 UNL1       -0.5000
     13 O           9.3693   13.0971   14.7510 O.co2     1 UNL1       -0.5000
     14 H           8.4351   18.3774   14.0005 H         1 UNL1        0.0000
     15 H           9.1424   17.7838   12.5173 H         1 UNL1        0.0000
     16 H          10.0166   17.6338   14.0224 H         1 UNL1        0.0000
     17 H          10.0973   16.6880   11.5173 H         1 UNL1        0.0000
     18 H          12.2135   16.3741   10.4299 H         1 UNL1        0.0000
     19 H          13.5511   14.4477   11.0066 H         1 UNL1        0.0000
     20 H          12.7670   12.8695   12.6483 H         1 UNL1        0.0000
@<TRIPOS>BOND
     1    1    2 1
     2    1   14 1
     3    1   15 1
     4    1   16 1
     5    2   10 2
     6    2   11 1
     7    3    4 ar
     8    3    8 ar
     9    3   11 1
    10    4    5 ar
    11    4   17 1
    12    5    6 ar
    13    5   18 1
    14    6    7 ar
    15    6   19 1
    16    7    8 ar
    17    7   20 1
    18    8    9 1
    19    9   12 ar
    20    9   13 ar
@<TRIPOS>SUBSTRUCTURE
1 UNL1 1
@<TRIPOS>COMMENT
aspirin
PLANTSproteinTorsions
24
56 83.1711
113 68.2526
248 188.1673
285 80.4607
405 42.4882
445 125.2902
481 3.5330
510 38.4045
526 335.4634
772 191.4344
870 234.9763
949 229.7296
988 238.8311
1001 287.5475
1037 193.4202
1061 53.0453
1095 200.7395
1133 27.1670
1166 180.0409
1200 226.2367
1301 45.6788
1539 144.0548
1611 202.3364
1693 116.8333
PLANTSmolcadARTstart hb
PLANTSmolcadARTstart HB
LINES
PLANTSmolcadARTstart HBCH
LINES
PLANTSmolcadARTstart HB-CHO
LINES
PLANTSmolcadARTend
PLANTSmolcadARTstart HB_WATER
LINES
PLANTSmolcadARTend

PLANTSmolcadARTend

