@<TRIPOS>MOLECULE
aspirin_entry_00001_conf_50
20 20 1
SMALL
NO_CHARGES


@<TRIPOS>ATOM
      1 C          11.5523   15.0951    2.6117 C.3       1 UNL1        0.0000
      2 C          12.0289   14.4987    3.8853 C.2       1 UNL1        0.0000
      3 C           9.8364   14.3748    4.9436 C.ar      1 UNL1        0.0000
      4 C           9.2054   15.4930    4.4411 C.ar      1 UNL1        0.0000
      5 C           7.8411   15.6939    4.5126 C.ar      1 UNL1        0.0000
      6 C           7.0738   14.7271    5.1159 C.ar      1 UNL1        0.0000
      7 C           7.6534   13.5902    5.6355 C.ar      1 UNL1        0.0000
      8 C           9.0359   13.4224    5.5438 C.ar      1 UNL1        0.0000
      9 C           9.6087   12.2053    6.1061 C.2       1 UNL1        0.0000
     10 O          13.2568   14.2874    4.1226 O.2       1 UNL1        0.0000
     11 O          11.1829   14.1348    4.8947 O.3       1 UNL1        0.0000
     12 O          10.7961   11.8741    5.8573 O.co2     1 UNL1       -0.5000
     13 O           8.8715   11.3707    6.9292 O.co2     1 UNL1       -0.5000
     14 H          12.3903   15.2974    1.9779 H         1 UNL1        0.0000
     15 H          11.0328   16.0073    2.8179 H         1 UNL1        0.0000
     16 H          10.8912   14.4106    2.1231 H         1 UNL1        0.0000
     17 H           9.7829   16.2177    3.9876 H         1 UNL1        0.0000
     18 H           7.4095   16.5469    4.1224 H         1 UNL1        0.0000
     19 H           6.0517   14.8537    5.1817 H         1 UNL1        0.0000
     20 H           7.0703   12.8680    6.0873 H         1 UNL1        0.0000
@<TRIPOS>BOND
     1    1    2 1
     2    1   14 1
     3    1   15 1
     4    1   16 1
     5    2   10 2
     6    2   11 1
     7    3    4 ar
     8    3    8 ar
     9    3   11 1
    10    4    5 ar
    11    4   17 1
    12    5    6 ar
    13    5   18 1
    14    6    7 ar
    15    6   19 1
    16    7    8 ar
    17    7   20 1
    18    8    9 1
    19    9   12 ar
    20    9   13 ar
@<TRIPOS>SUBSTRUCTURE
1 UNL1 1
@<TRIPOS>COMMENT
aspirin
PLANTSproteinTorsions
24
56 128.2046
113 66.7708
248 264.6146
285 260.2052
405 219.4813
445 200.2499
481 74.1825
510 83.8690
526 18.5307
772 116.3309
870 237.9510
949 256.2216
988 149.5701
1001 243.9466
1037 129.7730
1061 68.2907
1095 254.8119
1133 146.7802
1166 165.7278
1200 199.3339
1301 204.1974
1539 249.8566
1611 186.8916
1693 89.6307
PLANTSmolcadARTstart hb
PLANTSmolcadARTstart HB
LINES
13.2568 14.2874 4.12256 15.1015 15.5399 4.90048 0 255 0 5
PLANTSmolcadARTstart HBCH
LINES
PLANTSmolcadARTstart HB-CHO
LINES
PLANTSmolcadARTend
PLANTSmolcadARTstart HB_WATER
LINES
PLANTSmolcadARTend

PLANTSmolcadARTend

