@<TRIPOS>MOLECULE
aspirin_entry_00001_conf_29
20 20 1
SMALL
NO_CHARGES


@<TRIPOS>ATOM
      1 C          17.7129   16.1893   10.7473 C.3       1 UNL1        0.0000
      2 C          17.8347   17.4777   10.0192 C.2       1 UNL1        0.0000
      3 C          18.0826   18.6800    7.9132 C.ar      1 UNL1        0.0000
      4 C          17.2475   19.7586    8.1141 C.ar      1 UNL1        0.0000
      5 C          17.2459   20.8805    7.3091 C.ar      1 UNL1        0.0000
      6 C          18.1240   20.9225    6.2534 C.ar      1 UNL1        0.0000
      7 C          18.9804   19.8717    6.0069 C.ar      1 UNL1        0.0000
      8 C          18.9529   18.7546    6.8431 C.ar      1 UNL1        0.0000
      9 C          19.8753   17.6649    6.5473 C.2       1 UNL1        0.0000
     10 O          17.6841   18.6007   10.5894 O.2       1 UNL1        0.0000
     11 O          18.1182   17.5500    8.6846 O.3       1 UNL1        0.0000
     12 O          20.1218   16.7759    7.4019 O.co2     1 UNL1       -0.5000
     13 O          20.5135   17.5683    5.3222 O.co2     1 UNL1       -0.5000
     14 H          17.4889   16.3815   11.7758 H         1 UNL1        0.0000
     15 H          18.6355   15.6522   10.6777 H         1 UNL1        0.0000
     16 H          16.9276   15.6073   10.3128 H         1 UNL1        0.0000
     17 H          16.5892   19.7258    8.9079 H         1 UNL1        0.0000
     18 H          16.6031   21.6665    7.4962 H         1 UNL1        0.0000
     19 H          18.1424   21.7502    5.6371 H         1 UNL1        0.0000
     20 H          19.6375   19.9105    5.2118 H         1 UNL1        0.0000
@<TRIPOS>BOND
     1    1    2 1
     2    1   14 1
     3    1   15 1
     4    1   16 1
     5    2   10 2
     6    2   11 1
     7    3    4 ar
     8    3    8 ar
     9    3   11 1
    10    4    5 ar
    11    4   17 1
    12    5    6 ar
    13    5   18 1
    14    6    7 ar
    15    6   19 1
    16    7    8 ar
    17    7   20 1
    18    8    9 1
    19    9   12 ar
    20    9   13 ar
@<TRIPOS>SUBSTRUCTURE
1 UNL1 1
@<TRIPOS>COMMENT
aspirin
PLANTSproteinTorsions
24
56 187.5085
113 175.7433
248 187.5254
285 303.4374
405 84.0590
445 101.2276
481 109.0554
510 161.8644
526 103.3840
772 79.6570
870 225.6361
949 328.7062
988 175.9238
1001 165.0493
1037 51.2249
1061 4.0674
1095 167.6814
1133 315.1465
1166 71.7408
1200 301.8744
1301 41.5692
1539 188.4902
1611 3.2157
1693 271.0384
PLANTSmolcadARTstart hb
PLANTSmolcadARTstart HB
LINES
PLANTSmolcadARTstart HBCH
LINES
PLANTSmolcadARTstart HB-CHO
LINES
PLANTSmolcadARTend
PLANTSmolcadARTstart HB_WATER
LINES
PLANTSmolcadARTend

PLANTSmolcadARTend

