@<TRIPOS>MOLECULE
aspirin_entry_00001_conf_32
20 20 1
SMALL
NO_CHARGES


@<TRIPOS>ATOM
      1 C          11.1402   24.4064   -6.0133 C.3       1 UNL1        0.0000
      2 C          10.7295   25.7091   -6.5957 C.2       1 UNL1        0.0000
      3 C          11.6714   27.0887   -4.8203 C.ar      1 UNL1        0.0000
      4 C          11.5005   26.2895   -3.7099 C.ar      1 UNL1        0.0000
      5 C          12.1440   26.5085   -2.5080 C.ar      1 UNL1        0.0000
      6 C          12.9999   27.5792   -2.4162 C.ar      1 UNL1        0.0000
      7 C          13.2069   28.4103   -3.4955 C.ar      1 UNL1        0.0000
      8 C          12.5385   28.1565   -4.6941 C.ar      1 UNL1        0.0000
      9 C          12.7858   29.0599   -5.8113 C.2       1 UNL1        0.0000
     10 O          10.0460   25.7954   -7.6606 O.2       1 UNL1        0.0000
     11 O          11.0553   26.9090   -6.0292 O.3       1 UNL1        0.0000
     12 O          12.0250   29.0741   -6.8126 O.co2     1 UNL1       -0.5000
     13 O          13.8625   29.9307   -5.8144 O.co2     1 UNL1       -0.5000
     14 H          10.7717   23.6105   -6.6262 H         1 UNL1        0.0000
     15 H          10.7358   24.3136   -5.0272 H         1 UNL1        0.0000
     16 H          12.2078   24.3575   -5.9672 H         1 UNL1        0.0000
     17 H          10.8580   25.4853   -3.7807 H         1 UNL1        0.0000
     18 H          11.9870   25.8841   -1.7009 H         1 UNL1        0.0000
     19 H          13.4932   27.7641   -1.5287 H         1 UNL1        0.0000
     20 H          13.8516   29.2129   -3.4190 H         1 UNL1        0.0000
@<TRIPOS>BOND
     1    1    2 1
     2    1   14 1
     3    1   15 1
     4    1   16 1
     5    2   10 2
     6    2   11 1
     7    3    4 ar
     8    3    8 ar
     9    3   11 1
    10    4    5 ar
    11    4   17 1
    12    5    6 ar
    13    5   18 1
    14    6    7 ar
    15    6   19 1
    16    7    8 ar
    17    7   20 1
    18    8    9 1
    19    9   12 ar
    20    9   13 ar
@<TRIPOS>SUBSTRUCTURE
1 UNL1 1
@<TRIPOS>COMMENT
aspirin
PLANTSproteinTorsions
24
56 62.5546
113 38.7606
248 221.9488
285 26.9511
405 345.8978
445 127.1898
481 177.5298
510 34.9205
526 139.4568
772 344.7760
870 286.6534
949 209.2479
988 97.5359
1001 206.6299
1037 102.6766
1061 171.6206
1095 174.1659
1133 239.0078
1166 249.6564
1200 93.9945
1301 262.6065
1539 207.4120
1611 38.9511
1693 198.6066
PLANTSmolcadARTstart hb
PLANTSmolcadARTstart HB
LINES
PLANTSmolcadARTstart HBCH
LINES
PLANTSmolcadARTstart HB-CHO
LINES
PLANTSmolcadARTend
PLANTSmolcadARTstart HB_WATER
LINES
PLANTSmolcadARTend

PLANTSmolcadARTend

