@<TRIPOS>MOLECULE
aspirin_entry_00001_conf_19
20 20 1
SMALL
NO_CHARGES


@<TRIPOS>ATOM
      1 C          11.8384   16.9145    3.2980 C.3       1 UNL1        0.0000
      2 C          11.6936   15.8450    2.2783 C.2       1 UNL1        0.0000
      3 C           9.4236   15.2101    2.8998 C.ar      1 UNL1        0.0000
      4 C           9.4202   15.4176    4.2628 C.ar      1 UNL1        0.0000
      5 C           8.2671   15.4901    5.0190 C.ar      1 UNL1        0.0000
      6 C           7.0606   15.3486    4.3772 C.ar      1 UNL1        0.0000
      7 C           7.0067   15.1389    3.0165 C.ar      1 UNL1        0.0000
      8 C           8.1939   15.0719    2.2858 C.ar      1 UNL1        0.0000
      9 C           8.0923   14.8488    0.8486 C.2       1 UNL1        0.0000
     10 O          12.6339   15.5204    1.4914 O.2       1 UNL1        0.0000
     11 O          10.5401   15.1316    2.1122 O.3       1 UNL1        0.0000
     12 O           9.0393   15.1511    0.0784 O.co2     1 UNL1       -0.5000
     13 O           6.9553   14.3006    0.2790 O.co2     1 UNL1       -0.5000
     14 H          12.8235   17.3285    3.2422 H         1 UNL1        0.0000
     15 H          11.6798   16.5018    4.2723 H         1 UNL1        0.0000
     16 H          11.1168   17.6824    3.1141 H         1 UNL1        0.0000
     17 H          10.3270   15.5245    4.7432 H         1 UNL1        0.0000
     18 H           8.3105   15.6474    6.0385 H         1 UNL1        0.0000
     19 H           6.1844   15.3992    4.9202 H         1 UNL1        0.0000
     20 H           6.0964   15.0336    2.5412 H         1 UNL1        0.0000
@<TRIPOS>BOND
     1    1    2 1
     2    1   14 1
     3    1   15 1
     4    1   16 1
     5    2   10 2
     6    2   11 1
     7    3    4 ar
     8    3    8 ar
     9    3   11 1
    10    4    5 ar
    11    4   17 1
    12    5    6 ar
    13    5   18 1
    14    6    7 ar
    15    6   19 1
    16    7    8 ar
    17    7   20 1
    18    8    9 1
    19    9   12 ar
    20    9   13 ar
@<TRIPOS>SUBSTRUCTURE
1 UNL1 1
@<TRIPOS>COMMENT
aspirin
PLANTSproteinTorsions
24
56 19.9593
113 218.1476
248 157.7494
285 47.0020
405 95.3321
445 105.7833
481 266.8095
510 24.2841
526 165.7575
772 10.3927
870 243.4516
949 323.7224
988 245.9235
1001 110.2282
1037 157.0726
1061 230.9575
1095 32.0911
1133 89.3611
1166 55.2668
1200 239.3611
1301 66.5816
1539 270.2250
1611 169.3783
1693 274.6107
PLANTSmolcadARTstart hb
PLANTSmolcadARTstart HB
LINES
12.6339 15.5204 1.49145 13.382 14.258 -0.352 0 255 0 5
PLANTSmolcadARTstart HBCH
LINES
PLANTSmolcadARTstart HB-CHO
LINES
PLANTSmolcadARTend
PLANTSmolcadARTstart HB_WATER
LINES
PLANTSmolcadARTend

PLANTSmolcadARTend

