@<TRIPOS>MOLECULE
aspirin_entry_00001_conf_62
20 20 1
SMALL
NO_CHARGES


@<TRIPOS>ATOM
      1 C          -2.8775   23.5660   -5.4676 C.3       1 UNL1        0.0000
      2 C          -1.9026   23.7539   -6.5717 C.2       1 UNL1        0.0000
      3 C          -0.8854   25.7749   -5.6645 C.ar      1 UNL1        0.0000
      4 C          -1.0006   25.6179   -4.2996 C.ar      1 UNL1        0.0000
      5 C          -0.8858   26.6601   -3.4010 C.ar      1 UNL1        0.0000
      6 C          -0.6432   27.9188   -3.8952 C.ar      1 UNL1        0.0000
      7 C          -0.5197   28.1318   -5.2508 C.ar      1 UNL1        0.0000
      8 C          -0.6416   27.0531   -6.1280 C.ar      1 UNL1        0.0000
      9 C          -0.5043   27.3219   -7.5544 C.2       1 UNL1        0.0000
     10 O          -1.8504   22.9798   -7.5752 O.2       1 UNL1        0.0000
     11 O          -0.9918   24.7722   -6.5900 O.3       1 UNL1        0.0000
     12 O          -0.3200   28.4917   -7.9775 O.co2     1 UNL1       -0.5000
     13 O          -0.5730   26.3061   -8.4930 O.co2     1 UNL1       -0.5000
     14 H          -3.4849   22.7090   -5.6711 H         1 UNL1        0.0000
     15 H          -3.4991   24.4332   -5.3898 H         1 UNL1        0.0000
     16 H          -2.3508   23.4209   -4.5480 H         1 UNL1        0.0000
     17 H          -1.1820   24.6719   -3.9300 H         1 UNL1        0.0000
     18 H          -0.9788   26.4975   -2.3857 H         1 UNL1        0.0000
     19 H          -0.5530   28.7144   -3.2440 H         1 UNL1        0.0000
     20 H          -0.3373   29.0805   -5.6147 H         1 UNL1        0.0000
@<TRIPOS>BOND
     1    1    2 1
     2    1   14 1
     3    1   15 1
     4    1   16 1
     5    2   10 2
     6    2   11 1
     7    3    4 ar
     8    3    8 ar
     9    3   11 1
    10    4    5 ar
    11    4   17 1
    12    5    6 ar
    13    5   18 1
    14    6    7 ar
    15    6   19 1
    16    7    8 ar
    17    7   20 1
    18    8    9 1
    19    9   12 ar
    20    9   13 ar
@<TRIPOS>SUBSTRUCTURE
1 UNL1 1
@<TRIPOS>COMMENT
aspirin
PLANTSproteinTorsions
24
56 207.8391
113 340.7985
248 266.1089
285 293.7454
405 228.3202
445 213.5774
481 200.2782
510 157.0907
526 92.0050
772 35.5108
870 129.4591
949 58.5637
988 160.4280
1001 89.9134
1037 72.6277
1061 84.7420
1095 76.6351
1133 47.7647
1166 168.7229
1200 157.0341
1301 303.8033
1539 160.2461
1611 357.0031
1693 145.2041
PLANTSmolcadARTstart hb
PLANTSmolcadARTstart HB
LINES
PLANTSmolcadARTstart HBCH
LINES
PLANTSmolcadARTstart HB-CHO
LINES
PLANTSmolcadARTend
PLANTSmolcadARTstart HB_WATER
LINES
PLANTSmolcadARTend

PLANTSmolcadARTend

