@<TRIPOS>MOLECULE
aspirin_entry_00001_conf_44
20 20 1
SMALL
NO_CHARGES


@<TRIPOS>ATOM
      1 C          10.5243   15.1097    0.4345 C.3       1 UNL1        0.0000
      2 C           9.0637   14.9391    0.6402 C.2       1 UNL1        0.0000
      3 C           9.2447   13.8655    2.8212 C.ar      1 UNL1        0.0000
      4 C          10.3655   13.0668    2.7394 C.ar      1 UNL1        0.0000
      5 C          11.0496   12.5996    3.8442 C.ar      1 UNL1        0.0000
      6 C          10.5879   12.9510    5.0894 C.ar      1 UNL1        0.0000
      7 C           9.4717   13.7468    5.2283 C.ar      1 UNL1        0.0000
      8 C           8.8070   14.2001    4.0879 C.ar      1 UNL1        0.0000
      9 C           7.6305   15.0397    4.2792 C.2       1 UNL1        0.0000
     10 O           8.2050   15.3288   -0.2080 O.2       1 UNL1        0.0000
     11 O           8.5368   14.3504    1.7549 O.3       1 UNL1        0.0000
     12 O           7.3399   15.4975    5.4139 O.co2     1 UNL1       -0.5000
     13 O           6.7913   15.3620    3.2259 O.co2     1 UNL1       -0.5000
     14 H          10.6976   15.5924   -0.5047 H         1 UNL1        0.0000
     15 H          10.9987   14.1508    0.4353 H         1 UNL1        0.0000
     16 H          10.9279   15.7081    1.2240 H         1 UNL1        0.0000
     17 H          10.7115   12.8044    1.8035 H         1 UNL1        0.0000
     18 H          11.8858   12.0034    3.7371 H         1 UNL1        0.0000
     19 H          11.0819   12.6147    5.9309 H         1 UNL1        0.0000
     20 H           9.1308   14.0068    6.1674 H         1 UNL1        0.0000
@<TRIPOS>BOND
     1    1    2 1
     2    1   14 1
     3    1   15 1
     4    1   16 1
     5    2   10 2
     6    2   11 1
     7    3    4 ar
     8    3    8 ar
     9    3   11 1
    10    4    5 ar
    11    4   17 1
    12    5    6 ar
    13    5   18 1
    14    6    7 ar
    15    6   19 1
    16    7    8 ar
    17    7   20 1
    18    8    9 1
    19    9   12 ar
    20    9   13 ar
@<TRIPOS>SUBSTRUCTURE
1 UNL1 1
@<TRIPOS>COMMENT
aspirin
PLANTSproteinTorsions
24
56 242.8589
113 131.0629
248 8.1047
285 324.3855
405 119.2860
445 87.4220
481 216.2702
510 103.1697
526 73.5992
772 191.6227
870 338.0048
949 200.3283
988 332.5065
1001 190.8404
1037 125.1924
1061 268.1603
1095 73.8041
1133 57.6214
1166 174.3155
1200 330.7544
1301 159.2230
1539 140.2640
1611 44.4549
1693 196.1868
PLANTSmolcadARTstart hb
PLANTSmolcadARTstart HB
LINES
PLANTSmolcadARTstart HBCH
LINES
PLANTSmolcadARTstart HB-CHO
LINES
PLANTSmolcadARTend
PLANTSmolcadARTstart HB_WATER
LINES
PLANTSmolcadARTend

PLANTSmolcadARTend

