@<TRIPOS>MOLECULE
aspirin_entry_00001_conf_65
20 20 1
SMALL
NO_CHARGES


@<TRIPOS>ATOM
      1 C          11.4993   34.5763    3.9220 C.3       1 UNL1        0.0000
      2 C          11.7807   33.9727    2.5948 C.2       1 UNL1        0.0000
      3 C          12.7325   32.1565    1.2766 C.ar      1 UNL1        0.0000
      4 C          11.8086   32.0549    0.2582 C.ar      1 UNL1        0.0000
      5 C          12.0262   31.3316   -0.8978 C.ar      1 UNL1        0.0000
      6 C          13.2276   30.6802   -1.0388 C.ar      1 UNL1        0.0000
      7 C          14.1861   30.7481   -0.0513 C.ar      1 UNL1        0.0000
      8 C          13.9296   31.4896    1.1029 C.ar      1 UNL1        0.0000
      9 C          14.9703   31.5355    2.1230 C.2       1 UNL1        0.0000
     10 O          11.3164   34.4505    1.5155 O.2       1 UNL1        0.0000
     11 O          12.5593   32.8610    2.4371 O.3       1 UNL1        0.0000
     12 O          14.9434   32.3995    3.0363 O.co2     1 UNL1       -0.5000
     13 O          16.0234   30.6363    2.1246 O.co2     1 UNL1       -0.5000
     14 H          10.8717   35.4338    3.7972 H         1 UNL1        0.0000
     15 H          12.4193   34.8716    4.3814 H         1 UNL1        0.0000
     16 H          11.0051   33.8585    4.5423 H         1 UNL1        0.0000
     17 H          10.9072   32.5453    0.3653 H         1 UNL1        0.0000
     18 H          11.3062   31.2825   -1.6361 H         1 UNL1        0.0000
     19 H          13.4146   30.1332   -1.8938 H         1 UNL1        0.0000
     20 H          15.0865   30.2561   -0.1645 H         1 UNL1        0.0000
@<TRIPOS>BOND
     1    1    2 1
     2    1   14 1
     3    1   15 1
     4    1   16 1
     5    2   10 2
     6    2   11 1
     7    3    4 ar
     8    3    8 ar
     9    3   11 1
    10    4    5 ar
    11    4   17 1
    12    5    6 ar
    13    5   18 1
    14    6    7 ar
    15    6   19 1
    16    7    8 ar
    17    7   20 1
    18    8    9 1
    19    9   12 ar
    20    9   13 ar
@<TRIPOS>SUBSTRUCTURE
1 UNL1 1
@<TRIPOS>COMMENT
aspirin
PLANTSproteinTorsions
24
56 125.2588
113 49.7134
248 180.7195
285 250.9025
405 108.4808
445 150.0403
481 73.9438
510 156.4011
526 138.5232
772 80.4814
870 140.2791
949 54.6593
988 30.0928
1001 241.5794
1037 131.4655
1061 227.5089
1095 178.7775
1133 158.2532
1166 148.4604
1200 271.4523
1301 183.8839
1539 58.7275
1611 245.9832
1693 313.9006
PLANTSmolcadARTstart hb
PLANTSmolcadARTstart HB
LINES
14.9434 32.3995 3.03632 14.4152 32.7269 4.93209 0 255 0 5
PLANTSmolcadARTstart HBCH
LINES
PLANTSmolcadARTstart HB-CHO
LINES
PLANTSmolcadARTend
PLANTSmolcadARTstart HB_WATER
LINES
PLANTSmolcadARTend

PLANTSmolcadARTend

