@<TRIPOS>MOLECULE
aspirin_entry_00001_conf_26
20 20 1
SMALL
NO_CHARGES


@<TRIPOS>ATOM
      1 C          11.3038   13.4060    5.3180 C.3       1 UNL1        0.0000
      2 C          11.0974   12.8106    3.9735 C.2       1 UNL1        0.0000
      3 C           8.9332   13.8553    3.5642 C.ar      1 UNL1        0.0000
      4 C           8.3745   13.8879    4.8243 C.ar      1 UNL1        0.0000
      5 C           7.2833   14.6676    5.1532 C.ar      1 UNL1        0.0000
      6 C           6.7271   15.4519    4.1720 C.ar      1 UNL1        0.0000
      7 C           7.2457   15.4569    2.8955 C.ar      1 UNL1        0.0000
      8 C           8.3499   14.6555    2.6012 C.ar      1 UNL1        0.0000
      9 C           8.8674   14.6903    1.2386 C.2       1 UNL1        0.0000
     10 O          11.9162   11.9913    3.4569 O.2       1 UNL1        0.0000
     11 O          10.0125   13.0992    3.1946 O.3       1 UNL1        0.0000
     12 O           8.2259   15.2566    0.3171 O.co2     1 UNL1       -0.5000
     13 O          10.0770   14.1029    0.9077 O.co2     1 UNL1       -0.5000
     14 H          12.2157   13.0336    5.7360 H         1 UNL1        0.0000
     15 H          10.4856   13.1412    5.9544 H         1 UNL1        0.0000
     16 H          11.3584   14.4708    5.2317 H         1 UNL1        0.0000
     17 H           8.7938   13.2989    5.5603 H         1 UNL1        0.0000
     18 H           6.8968   14.6619    6.1106 H         1 UNL1        0.0000
     19 H           5.9110   16.0439    4.3927 H         1 UNL1        0.0000
     20 H           6.8225   16.0490    2.1634 H         1 UNL1        0.0000
@<TRIPOS>BOND
     1    1    2 1
     2    1   14 1
     3    1   15 1
     4    1   16 1
     5    2   10 2
     6    2   11 1
     7    3    4 ar
     8    3    8 ar
     9    3   11 1
    10    4    5 ar
    11    4   17 1
    12    5    6 ar
    13    5   18 1
    14    6    7 ar
    15    6   19 1
    16    7    8 ar
    17    7   20 1
    18    8    9 1
    19    9   12 ar
    20    9   13 ar
@<TRIPOS>SUBSTRUCTURE
1 UNL1 1
@<TRIPOS>COMMENT
aspirin
PLANTSproteinTorsions
24
56 234.0432
113 288.2827
248 166.4120
285 170.1019
405 146.2622
445 89.5159
481 312.6228
510 200.6412
526 282.3198
772 27.8797
870 62.4893
949 86.2915
988 309.4124
1001 227.0376
1037 200.0209
1061 152.4825
1095 105.8489
1133 132.0669
1166 222.4833
1200 285.4652
1301 234.8557
1539 61.6253
1611 303.2146
1693 162.9514
PLANTSmolcadARTstart hb
PLANTSmolcadARTstart HB
LINES
PLANTSmolcadARTstart HBCH
LINES
PLANTSmolcadARTstart HB-CHO
LINES
PLANTSmolcadARTend
PLANTSmolcadARTstart HB_WATER
LINES
PLANTSmolcadARTend

PLANTSmolcadARTend

