@<TRIPOS>MOLECULE
aspirin_entry_00001_conf_40
20 20 1
SMALL
NO_CHARGES


@<TRIPOS>ATOM
      1 C           2.0036   21.7004   14.8787 C.3       1 UNL1        0.0000
      2 C           2.5514   20.3832   14.4669 C.2       1 UNL1        0.0000
      3 C           2.6570   17.9642   14.7492 C.ar      1 UNL1        0.0000
      4 C           3.9678   17.6650   14.4437 C.ar      1 UNL1        0.0000
      5 C           4.4067   16.3920   14.1379 C.ar      1 UNL1        0.0000
      6 C           3.4874   15.3711   14.1394 C.ar      1 UNL1        0.0000
      7 C           2.1644   15.6148   14.4373 C.ar      1 UNL1        0.0000
      8 C           1.7586   16.9150   14.7418 C.ar      1 UNL1        0.0000
      9 C           0.3501   17.1294   15.0511 C.2       1 UNL1        0.0000
     10 O           3.4049   20.2596   13.5369 O.2       1 UNL1        0.0000
     11 O           2.1788   19.2089   15.0578 O.3       1 UNL1        0.0000
     12 O          -0.4249   16.1582   15.2450 O.co2     1 UNL1       -0.5000
     13 O          -0.1864   18.4029   15.1407 O.co2     1 UNL1       -0.5000
     14 H           2.4403   22.4710   14.2783 H         1 UNL1        0.0000
     15 H           2.2350   21.8765   15.9083 H         1 UNL1        0.0000
     16 H           0.9421   21.7022   14.7463 H         1 UNL1        0.0000
     17 H           4.6571   18.4327   14.4437 H         1 UNL1        0.0000
     18 H           5.3987   16.2123   13.9151 H         1 UNL1        0.0000
     19 H           3.7905   14.4106   13.9144 H         1 UNL1        0.0000
     20 H           1.4793   14.8425   14.4366 H         1 UNL1        0.0000
@<TRIPOS>BOND
     1    1    2 1
     2    1   14 1
     3    1   15 1
     4    1   16 1
     5    2   10 2
     6    2   11 1
     7    3    4 ar
     8    3    8 ar
     9    3   11 1
    10    4    5 ar
    11    4   17 1
    12    5    6 ar
    13    5   18 1
    14    6    7 ar
    15    6   19 1
    16    7    8 ar
    17    7   20 1
    18    8    9 1
    19    9   12 ar
    20    9   13 ar
@<TRIPOS>SUBSTRUCTURE
1 UNL1 1
@<TRIPOS>COMMENT
aspirin
PLANTSproteinTorsions
24
56 111.1747
113 69.5308
248 236.0583
285 249.4905
405 109.2795
445 18.0635
481 344.2252
510 167.5589
526 127.4834
772 57.3648
870 6.9439
949 183.4133
988 79.3802
1001 179.3399
1037 215.9213
1061 8.8551
1095 215.5169
1133 31.0010
1166 240.2292
1200 48.4173
1301 81.9637
1539 168.7886
1611 39.5357
1693 256.7718
PLANTSmolcadARTstart hb
PLANTSmolcadARTstart HB
LINES
3.40488 20.2596 13.5369 4.922 20.951 13.253 0 255 0 5
PLANTSmolcadARTstart HBCH
LINES
PLANTSmolcadARTstart HB-CHO
LINES
PLANTSmolcadARTend
PLANTSmolcadARTstart HB_WATER
LINES
PLANTSmolcadARTend

PLANTSmolcadARTend

