@<TRIPOS>MOLECULE
aspirin_entry_00001_conf_49
20 20 1
SMALL
NO_CHARGES


@<TRIPOS>ATOM
      1 C           9.3655   12.6794    5.7427 C.3       1 UNL1        0.0000
      2 C           8.2651   13.4573    5.1191 C.2       1 UNL1        0.0000
      3 C           9.6708   14.6406    3.5172 C.ar      1 UNL1        0.0000
      4 C          10.8464   14.8196    4.2150 C.ar      1 UNL1        0.0000
      5 C          12.0444   15.1540    3.6152 C.ar      1 UNL1        0.0000
      6 C          12.0639   15.3157    2.2511 C.ar      1 UNL1        0.0000
      7 C          10.9173   15.1492    1.5054 C.ar      1 UNL1        0.0000
      8 C           9.7253   14.8108    2.1475 C.ar      1 UNL1        0.0000
      9 C           8.5354   14.6440    1.3216 C.2       1 UNL1        0.0000
     10 O           7.0643   13.3832    5.5206 O.2       1 UNL1        0.0000
     11 O           8.4632   14.3095    4.0695 O.3       1 UNL1        0.0000
     12 O           7.5130   14.0647    1.7693 O.co2     1 UNL1       -0.5000
     13 O           8.4858   15.1123    0.0193 O.co2     1 UNL1       -0.5000
     14 H           8.9732   12.0857    6.5418 H         1 UNL1        0.0000
     15 H          10.1036   13.3517    6.1272 H         1 UNL1        0.0000
     16 H           9.8115   12.0417    5.0088 H         1 UNL1        0.0000
     17 H          10.8303   14.6970    5.2393 H         1 UNL1        0.0000
     18 H          12.9020   15.2781    4.1765 H         1 UNL1        0.0000
     19 H          12.9471   15.5654    1.7790 H         1 UNL1        0.0000
     20 H          10.9398   15.2722    0.4806 H         1 UNL1        0.0000
@<TRIPOS>BOND
     1    1    2 1
     2    1   14 1
     3    1   15 1
     4    1   16 1
     5    2   10 2
     6    2   11 1
     7    3    4 ar
     8    3    8 ar
     9    3   11 1
    10    4    5 ar
    11    4   17 1
    12    5    6 ar
    13    5   18 1
    14    6    7 ar
    15    6   19 1
    16    7    8 ar
    17    7   20 1
    18    8    9 1
    19    9   12 ar
    20    9   13 ar
@<TRIPOS>SUBSTRUCTURE
1 UNL1 1
@<TRIPOS>COMMENT
aspirin
PLANTSproteinTorsions
24
56 341.3063
113 84.0488
248 49.0794
285 62.6875
405 341.7488
445 312.4768
481 51.9646
510 9.6844
526 357.7582
772 241.5828
870 355.7086
949 56.8687
988 159.2337
1001 157.2150
1037 224.3137
1061 187.1879
1095 230.1044
1133 177.4748
1166 193.8822
1200 311.8919
1301 34.7692
1539 97.5299
1611 14.8997
1693 87.5259
PLANTSmolcadARTstart hb
PLANTSmolcadARTstart HB
LINES
7.06427 13.3832 5.52062 6.321 12.2 3.751 0 255 0 5
PLANTSmolcadARTstart HBCH
LINES
PLANTSmolcadARTstart HB-CHO
LINES
PLANTSmolcadARTend
PLANTSmolcadARTstart HB_WATER
LINES
PLANTSmolcadARTend

PLANTSmolcadARTend

