@<TRIPOS>MOLECULE
aspirin_entry_00001_conf_06
20 20 1
SMALL
NO_CHARGES


@<TRIPOS>ATOM
      1 C           8.0850   15.4602    4.2529 C.3       1 UNL1        0.0000
      2 C           8.1798   14.0169    3.9174 C.2       1 UNL1        0.0000
      3 C           9.0029   14.3437    1.6463 C.ar      1 UNL1        0.0000
      4 C           8.2062   14.7700    0.6049 C.ar      1 UNL1        0.0000
      5 C           8.6663   15.5550   -0.4338 C.ar      1 UNL1        0.0000
      6 C           9.9878   15.9305   -0.4268 C.ar      1 UNL1        0.0000
      7 C          10.8282   15.5318    0.5897 C.ar      1 UNL1        0.0000
      8 C          10.3263   14.7389    1.6227 C.ar      1 UNL1        0.0000
      9 C          11.2489   14.3391    2.6784 C.2       1 UNL1        0.0000
     10 O           7.8850   13.1028    4.7458 O.2       1 UNL1        0.0000
     11 O           8.5897   13.5665    2.6942 O.3       1 UNL1        0.0000
     12 O          12.3903   14.8587    2.7712 O.co2     1 UNL1       -0.5000
     13 O          10.9072   13.3761    3.6130 O.co2     1 UNL1       -0.5000
     14 H           7.7427   15.5696    5.2608 H         1 UNL1        0.0000
     15 H           7.3945   15.9359    3.5884 H         1 UNL1        0.0000
     16 H           9.0483   15.9138    4.1510 H         1 UNL1        0.0000
     17 H           7.2138   14.4878    0.6015 H         1 UNL1        0.0000
     18 H           8.0343   15.8522   -1.1942 H         1 UNL1        0.0000
     19 H          10.3560   16.5174   -1.1918 H         1 UNL1        0.0000
     20 H          11.8201   15.8181    0.5882 H         1 UNL1        0.0000
@<TRIPOS>BOND
     1    1    2 1
     2    1   14 1
     3    1   15 1
     4    1   16 1
     5    2   10 2
     6    2   11 1
     7    3    4 ar
     8    3    8 ar
     9    3   11 1
    10    4    5 ar
    11    4   17 1
    12    5    6 ar
    13    5   18 1
    14    6    7 ar
    15    6   19 1
    16    7    8 ar
    17    7   20 1
    18    8    9 1
    19    9   12 ar
    20    9   13 ar
@<TRIPOS>SUBSTRUCTURE
1 UNL1 1
@<TRIPOS>COMMENT
aspirin
PLANTSproteinTorsions
24
56 220.9221
113 163.6549
248 109.4249
285 60.5876
405 142.6419
445 260.5236
481 12.3159
510 98.5409
526 234.4651
772 222.6678
870 2.0635
949 214.9812
988 323.1663
1001 241.2430
1037 83.1878
1061 184.2714
1095 10.5244
1133 280.1513
1166 168.0057
1200 254.8596
1301 263.0741
1539 122.4873
1611 246.5584
1693 126.6780
PLANTSmolcadARTstart hb
PLANTSmolcadARTstart HB
LINES
7.88496 13.1028 4.7458 6.321 12.2 3.751 0 255 0 5
PLANTSmolcadARTstart HBCH
LINES
PLANTSmolcadARTstart HB-CHO
LINES
PLANTSmolcadARTend
PLANTSmolcadARTstart HB_WATER
LINES
PLANTSmolcadARTend

PLANTSmolcadARTend

