@<TRIPOS>MOLECULE
aspirin_entry_00001_conf_02
20 20 1
SMALL
NO_CHARGES


@<TRIPOS>ATOM
      1 C          13.1372   17.3392    3.5427 C.3       1 UNL1        0.0000
      2 C          12.7678   15.9021    3.5992 C.2       1 UNL1        0.0000
      3 C          11.8216   15.7889    1.3555 C.ar      1 UNL1        0.0000
      4 C          12.6290   16.6662    0.6632 C.ar      1 UNL1        0.0000
      5 C          12.3169   17.1637   -0.5865 C.ar      1 UNL1        0.0000
      6 C          11.1397   16.7614   -1.1694 C.ar      1 UNL1        0.0000
      7 C          10.2956   15.8863   -0.5211 C.ar      1 UNL1        0.0000
      8 C          10.6456   15.4047    0.7412 C.ar      1 UNL1        0.0000
      9 C           9.7245   14.4809    1.3923 C.2       1 UNL1        0.0000
     10 O          13.0557   15.1618    4.5880 O.2       1 UNL1        0.0000
     11 O          12.0910   15.2715    2.5936 O.3       1 UNL1        0.0000
     12 O           8.5676   14.2922    0.9369 O.co2     1 UNL1       -0.5000
     13 O          10.0848   13.7811    2.5316 O.co2     1 UNL1       -0.5000
     14 H          13.6577   17.6084    4.4379 H         1 UNL1        0.0000
     15 H          12.2508   17.9317    3.4538 H         1 UNL1        0.0000
     16 H          13.7682   17.5119    2.6963 H         1 UNL1        0.0000
     17 H          13.5131   16.9669    1.1019 H         1 UNL1        0.0000
     18 H          12.9514   17.8193   -1.0700 H         1 UNL1        0.0000
     19 H          10.8839   17.1188   -2.1031 H         1 UNL1        0.0000
     20 H           9.4127   15.5884   -0.9655 H         1 UNL1        0.0000
@<TRIPOS>BOND
     1    1    2 1
     2    1   14 1
     3    1   15 1
     4    1   16 1
     5    2   10 2
     6    2   11 1
     7    3    4 ar
     8    3    8 ar
     9    3   11 1
    10    4    5 ar
    11    4   17 1
    12    5    6 ar
    13    5   18 1
    14    6    7 ar
    15    6   19 1
    16    7    8 ar
    17    7   20 1
    18    8    9 1
    19    9   12 ar
    20    9   13 ar
@<TRIPOS>SUBSTRUCTURE
1 UNL1 1
@<TRIPOS>COMMENT
aspirin
PLANTSproteinTorsions
24
56 63.0962
113 349.0790
248 161.0783
285 163.6992
405 210.7921
445 322.6385
481 76.0008
510 241.2831
526 354.6812
772 105.4423
870 187.1870
949 255.0693
988 124.2389
1001 240.9946
1037 46.7327
1061 38.7076
1095 277.5701
1133 279.1456
1166 199.8520
1200 215.8961
1301 169.4170
1539 148.1385
1611 76.3356
1693 168.2550
PLANTSmolcadARTstart hb
PLANTSmolcadARTstart HB
LINES
13.0557 15.1618 4.58804 15.1025 15.5237 4.91021 0 255 0 5
PLANTSmolcadARTstart HBCH
LINES
PLANTSmolcadARTstart HB-CHO
LINES
PLANTSmolcadARTend
PLANTSmolcadARTstart HB_WATER
LINES
PLANTSmolcadARTend

PLANTSmolcadARTend

