@<TRIPOS>MOLECULE
aspirin_entry_00001_conf_87
20 20 1
SMALL
NO_CHARGES


@<TRIPOS>ATOM
      1 C           8.2286    9.2914    5.5493 C.3       1 UNL1        0.0000
      2 C           9.3960    8.8159    4.7644 C.2       1 UNL1        0.0000
      3 C          10.3825   11.0177    4.4160 C.ar      1 UNL1        0.0000
      4 C           9.2621   11.8197    4.3678 C.ar      1 UNL1        0.0000
      5 C           9.3069   13.1967    4.4611 C.ar      1 UNL1        0.0000
      6 C          10.5335   13.7970    4.6108 C.ar      1 UNL1        0.0000
      7 C          11.6853   13.0427    4.6644 C.ar      1 UNL1        0.0000
      8 C          11.5997   11.6531    4.5670 C.ar      1 UNL1        0.0000
      9 C          12.8420   10.8925    4.6283 C.2       1 UNL1        0.0000
     10 O           9.5536    7.5985    4.4453 O.2       1 UNL1        0.0000
     11 O          10.3845    9.6519    4.3276 O.3       1 UNL1        0.0000
     12 O          12.8887    9.6972    4.2403 O.co2     1 UNL1       -0.5000
     13 O          14.0112   11.4525    5.1152 O.co2     1 UNL1       -0.5000
     14 H           7.5911    8.4626    5.7766 H         1 UNL1        0.0000
     15 H           7.6845   10.0131    4.9769 H         1 UNL1        0.0000
     16 H           8.5694    9.7404    6.4584 H         1 UNL1        0.0000
     17 H           8.3415   11.3673    4.2561 H         1 UNL1        0.0000
     18 H           8.4422   13.7594    4.4206 H         1 UNL1        0.0000
     19 H          10.5937   14.8248    4.6832 H         1 UNL1        0.0000
     20 H          12.6035   13.5009    4.7772 H         1 UNL1        0.0000
@<TRIPOS>BOND
     1    1    2 1
     2    1   14 1
     3    1   15 1
     4    1   16 1
     5    2   10 2
     6    2   11 1
     7    3    4 ar
     8    3    8 ar
     9    3   11 1
    10    4    5 ar
    11    4   17 1
    12    5    6 ar
    13    5   18 1
    14    6    7 ar
    15    6   19 1
    16    7    8 ar
    17    7   20 1
    18    8    9 1
    19    9   12 ar
    20    9   13 ar
@<TRIPOS>SUBSTRUCTURE
1 UNL1 1
@<TRIPOS>COMMENT
aspirin
PLANTSproteinTorsions
24
56 356.8918
113 11.5461
248 198.6225
285 170.3256
405 205.1316
445 142.6423
481 85.4234
510 29.3257
526 312.3951
772 64.8473
870 87.5409
949 314.8485
988 0.3822
1001 226.8219
1037 323.7983
1061 34.7990
1095 124.6665
1133 105.2310
1166 137.6325
1200 213.7664
1301 53.7014
1539 264.8100
1611 57.7582
1693 306.1671
PLANTSmolcadARTstart hb
PLANTSmolcadARTstart HB
LINES
PLANTSmolcadARTstart HBCH
LINES
14.0112 11.4525 5.11522 15.4327 10.5404 5.73352 255 0 0 5
PLANTSmolcadARTstart HB-CHO
LINES
PLANTSmolcadARTend
PLANTSmolcadARTstart HB_WATER
LINES
PLANTSmolcadARTend

PLANTSmolcadARTend

