@<TRIPOS>MOLECULE
aspirin_entry_00001_conf_38
20 20 1
SMALL
NO_CHARGES


@<TRIPOS>ATOM
      1 C          11.9169   11.5649    4.3036 C.3       1 UNL1        0.0000
      2 C          12.1893   12.8554    4.9856 C.2       1 UNL1        0.0000
      3 C          11.0215   14.2462    3.3595 C.ar      1 UNL1        0.0000
      4 C           9.9669   13.4568    2.9524 C.ar      1 UNL1        0.0000
      5 C           9.2464   13.6855    1.7969 C.ar      1 UNL1        0.0000
      6 C           9.6000   14.7572    1.0134 C.ar      1 UNL1        0.0000
      7 C          10.6464   15.5782    1.3733 C.ar      1 UNL1        0.0000
      8 C          11.3510   15.3151    2.5489 C.ar      1 UNL1        0.0000
      9 C          12.4509   16.2081    2.8930 C.2       1 UNL1        0.0000
     10 O          12.8397   12.9293    6.0720 O.2       1 UNL1        0.0000
     11 O          11.7619   14.0569    4.4948 O.3       1 UNL1        0.0000
     12 O          12.6765   17.2460    2.2196 O.co2     1 UNL1       -0.5000
     13 O          13.2861   15.9488    3.9667 O.co2     1 UNL1       -0.5000
     14 H          12.3473   10.7654    4.8697 H         1 UNL1        0.0000
     15 H          12.3482   11.5811    3.3247 H         1 UNL1        0.0000
     16 H          10.8600   11.4193    4.2255 H         1 UNL1        0.0000
     17 H           9.7021   12.6528    3.5423 H         1 UNL1        0.0000
     18 H           8.4627   13.0686    1.5297 H         1 UNL1        0.0000
     19 H           9.0768   14.9495    0.1449 H         1 UNL1        0.0000
     20 H          10.9063   16.3817    0.7795 H         1 UNL1        0.0000
@<TRIPOS>BOND
     1    1    2 1
     2    1   14 1
     3    1   15 1
     4    1   16 1
     5    2   10 2
     6    2   11 1
     7    3    4 ar
     8    3    8 ar
     9    3   11 1
    10    4    5 ar
    11    4   17 1
    12    5    6 ar
    13    5   18 1
    14    6    7 ar
    15    6   19 1
    16    7    8 ar
    17    7   20 1
    18    8    9 1
    19    9   12 ar
    20    9   13 ar
@<TRIPOS>SUBSTRUCTURE
1 UNL1 1
@<TRIPOS>COMMENT
aspirin
PLANTSproteinTorsions
24
56 156.0082
113 195.6735
248 261.9462
285 213.0695
405 68.6010
445 20.1108
481 185.2360
510 83.3340
526 7.8256
772 132.7454
870 187.1320
949 285.0214
988 19.6528
1001 179.1418
1037 343.2983
1061 95.4595
1095 69.2737
1133 98.3831
1166 59.7298
1200 87.5113
1301 81.5031
1539 79.4999
1611 106.4413
1693 280.1964
PLANTSmolcadARTstart hb
PLANTSmolcadARTstart HB
LINES
13.2861 15.9488 3.96668 15.1886 15.9566 4.70422 0 255 0 5
PLANTSmolcadARTstart HBCH
LINES
PLANTSmolcadARTstart HB-CHO
LINES
PLANTSmolcadARTend
PLANTSmolcadARTstart HB_WATER
LINES
PLANTSmolcadARTend

PLANTSmolcadARTend

