@<TRIPOS>MOLECULE
aspirin_entry_00001_conf_98
20 20 1
SMALL
NO_CHARGES


@<TRIPOS>ATOM
      1 C          -0.7520   26.7050   -4.4870 C.3       1 UNL1        0.0000
      2 C          -0.8306   28.1795   -4.3304 C.2       1 UNL1        0.0000
      3 C           0.1086   28.7117   -6.5160 C.ar      1 UNL1        0.0000
      4 C          -0.3195   27.6567   -7.2937 C.ar      1 UNL1        0.0000
      5 C           0.2212   27.3515   -8.5270 C.ar      1 UNL1        0.0000
      6 C           1.2388   28.1424   -9.0029 C.ar      1 UNL1        0.0000
      7 C           1.7052   29.2093   -8.2662 C.ar      1 UNL1        0.0000
      8 C           1.1332   29.4867   -7.0238 C.ar      1 UNL1        0.0000
      9 C           1.6560   30.6243   -6.2768 C.2       1 UNL1        0.0000
     10 O          -1.3055   28.7312   -3.2917 O.2       1 UNL1        0.0000
     11 O          -0.3976   29.0501   -5.2903 O.3       1 UNL1        0.0000
     12 O           2.7165   31.1994   -6.6321 O.co2     1 UNL1       -0.5000
     13 O           1.0105   31.1117   -5.1528 O.co2     1 UNL1       -0.5000
     14 H          -1.1472   26.2326   -3.6120 H         1 UNL1        0.0000
     15 H           0.2693   26.4146   -4.6184 H         1 UNL1        0.0000
     16 H          -1.3207   26.4067   -5.3424 H         1 UNL1        0.0000
     17 H          -1.0843   27.0642   -6.9353 H         1 UNL1        0.0000
     18 H          -0.1304   26.5514   -9.0769 H         1 UNL1        0.0000
     19 H           1.6594   27.9351   -9.9222 H         1 UNL1        0.0000
     20 H           2.4701   29.7992   -8.6304 H         1 UNL1        0.0000
@<TRIPOS>BOND
     1    1    2 1
     2    1   14 1
     3    1   15 1
     4    1   16 1
     5    2   10 2
     6    2   11 1
     7    3    4 ar
     8    3    8 ar
     9    3   11 1
    10    4    5 ar
    11    4   17 1
    12    5    6 ar
    13    5   18 1
    14    6    7 ar
    15    6   19 1
    16    7    8 ar
    17    7   20 1
    18    8    9 1
    19    9   12 ar
    20    9   13 ar
@<TRIPOS>SUBSTRUCTURE
1 UNL1 1
@<TRIPOS>COMMENT
aspirin
PLANTSproteinTorsions
24
56 234.0556
113 286.9591
248 240.6286
285 87.9804
405 4.8248
445 188.3507
481 356.4736
510 241.8260
526 140.1392
772 86.8518
870 313.5997
949 232.9477
988 4.7434
1001 135.3737
1037 148.3541
1061 214.9510
1095 109.7162
1133 346.9856
1166 24.8929
1200 301.7274
1301 174.8277
1539 299.5015
1611 227.9120
1693 190.7008
PLANTSmolcadARTstart hb
PLANTSmolcadARTstart HB
LINES
-1.30547 28.7312 -3.29172 -1.878 28.063 -1.853 0 255 0 5
PLANTSmolcadARTstart HBCH
LINES
PLANTSmolcadARTstart HB-CHO
LINES
PLANTSmolcadARTend
PLANTSmolcadARTstart HB_WATER
LINES
PLANTSmolcadARTend

PLANTSmolcadARTend

