@<TRIPOS>MOLECULE
aspirin_entry_00001_conf_18
20 20 1
SMALL
NO_CHARGES


@<TRIPOS>ATOM
      1 C           7.8963   14.2669    0.6079 C.3       1 UNL1        0.0000
      2 C           9.0130   14.6664    1.5012 C.2       1 UNL1        0.0000
      3 C          11.3171   15.4142    1.7739 C.ar      1 UNL1        0.0000
      4 C          11.6072   15.0961    3.0837 C.ar      1 UNL1        0.0000
      5 C          12.6671   15.6396    3.7823 C.ar      1 UNL1        0.0000
      6 C          13.4742   16.5442    3.1361 C.ar      1 UNL1        0.0000
      7 C          13.2290   16.8979    1.8272 C.ar      1 UNL1        0.0000
      8 C          12.1482   16.3268    1.1538 C.ar      1 UNL1        0.0000
      9 C          11.9240   16.7283   -0.2297 C.2       1 UNL1        0.0000
     10 O           8.8661   14.8164    2.7521 O.2       1 UNL1        0.0000
     11 O          10.2792   14.9008    1.0443 O.3       1 UNL1        0.0000
     12 O          10.8914   16.3662   -0.8494 O.co2     1 UNL1       -0.5000
     13 O          12.8349   17.5174   -0.9119 O.co2     1 UNL1       -0.5000
     14 H           7.0055   14.1394    1.1868 H         1 UNL1        0.0000
     15 H           8.1407   13.3456    0.1221 H         1 UNL1        0.0000
     16 H           7.7389   15.0273   -0.1278 H         1 UNL1        0.0000
     17 H          11.0006   14.4160    3.5674 H         1 UNL1        0.0000
     18 H          12.8484   15.3727    4.7631 H         1 UNL1        0.0000
     19 H          14.2731   16.9644    3.6364 H         1 UNL1        0.0000
     20 H          13.8400   17.5783    1.3480 H         1 UNL1        0.0000
@<TRIPOS>BOND
     1    1    2 1
     2    1   14 1
     3    1   15 1
     4    1   16 1
     5    2   10 2
     6    2   11 1
     7    3    4 ar
     8    3    8 ar
     9    3   11 1
    10    4    5 ar
    11    4   17 1
    12    5    6 ar
    13    5   18 1
    14    6    7 ar
    15    6   19 1
    16    7    8 ar
    17    7   20 1
    18    8    9 1
    19    9   12 ar
    20    9   13 ar
@<TRIPOS>SUBSTRUCTURE
1 UNL1 1
@<TRIPOS>COMMENT
aspirin
PLANTSproteinTorsions
24
56 51.1216
113 165.8913
248 30.6464
285 210.1862
405 111.1835
445 278.9677
481 28.0459
510 55.7285
526 317.7928
772 39.7737
870 30.7575
949 257.5342
988 22.4685
1001 261.2235
1037 59.9079
1061 198.6232
1095 240.7157
1133 237.1520
1166 136.6705
1200 187.5801
1301 143.9016
1539 205.3481
1611 40.8879
1693 182.8948
PLANTSmolcadARTstart hb
PLANTSmolcadARTstart HB
LINES
PLANTSmolcadARTstart HBCH
LINES
PLANTSmolcadARTstart HB-CHO
LINES
PLANTSmolcadARTend
PLANTSmolcadARTstart HB_WATER
LINES
PLANTSmolcadARTend

PLANTSmolcadARTend

