@<TRIPOS>MOLECULE
aspirin_entry_00001_conf_74
20 20 1
SMALL
NO_CHARGES


@<TRIPOS>ATOM
      1 C          -5.3272   34.9233    9.9178 C.3       1 UNL1        0.0000
      2 C          -4.1752   34.5816   10.7901 C.2       1 UNL1        0.0000
      3 C          -2.4999   35.7729    9.4798 C.ar      1 UNL1        0.0000
      4 C          -2.9424   35.5831    8.1879 C.ar      1 UNL1        0.0000
      5 C          -2.4961   36.3267    7.1133 C.ar      1 UNL1        0.0000
      6 C          -1.5625   37.3073    7.3462 C.ar      1 UNL1        0.0000
      7 C          -1.0860   37.5387    8.6181 C.ar      1 UNL1        0.0000
      8 C          -1.5614   36.7666    9.6791 C.ar      1 UNL1        0.0000
      9 C          -1.0313   37.0440   11.0087 C.2       1 UNL1        0.0000
     10 O          -4.2847   33.8192   11.7978 O.2       1 UNL1        0.0000
     11 O          -2.9141   35.0607   10.5727 O.3       1 UNL1        0.0000
     12 O          -1.5923   36.5870   12.0372 O.co2     1 UNL1       -0.5000
     13 O           0.1024   37.8183   11.1897 O.co2     1 UNL1       -0.5000
     14 H          -6.2065   34.4338   10.2814 H         1 UNL1        0.0000
     15 H          -5.1260   34.5988    8.9184 H         1 UNL1        0.0000
     16 H          -5.4782   35.9823    9.9255 H         1 UNL1        0.0000
     17 H          -3.6441   34.8467    8.0148 H         1 UNL1        0.0000
     18 H          -2.8550   36.1511    6.1613 H         1 UNL1        0.0000
     19 H          -1.2133   37.8770    6.5596 H         1 UNL1        0.0000
     20 H          -0.3846   38.2774    8.7854 H         1 UNL1        0.0000
@<TRIPOS>BOND
     1    1    2 1
     2    1   14 1
     3    1   15 1
     4    1   16 1
     5    2   10 2
     6    2   11 1
     7    3    4 ar
     8    3    8 ar
     9    3   11 1
    10    4    5 ar
    11    4   17 1
    12    5    6 ar
    13    5   18 1
    14    6    7 ar
    15    6   19 1
    16    7    8 ar
    17    7   20 1
    18    8    9 1
    19    9   12 ar
    20    9   13 ar
@<TRIPOS>SUBSTRUCTURE
1 UNL1 1
@<TRIPOS>COMMENT
aspirin
PLANTSproteinTorsions
24
56 185.0603
113 74.0373
248 110.9375
285 18.2907
405 240.3376
445 233.5602
481 331.2592
510 148.0171
526 86.7606
772 140.8579
870 232.3694
949 216.9871
988 130.0337
1001 214.5404
1037 84.2189
1061 101.7729
1095 85.5103
1133 235.1020
1166 240.5880
1200 161.0981
1301 88.8860
1539 252.0277
1611 13.0548
1693 152.5134
PLANTSmolcadARTstart hb
PLANTSmolcadARTstart HB
LINES
-4.28467 33.8192 11.7978 -3.75958 31.9828 10.9251 0 255 0 5
PLANTSmolcadARTstart HBCH
LINES
PLANTSmolcadARTstart HB-CHO
LINES
PLANTSmolcadARTend
PLANTSmolcadARTstart HB_WATER
LINES
PLANTSmolcadARTend

PLANTSmolcadARTend

