@<TRIPOS>MOLECULE
aspirin_entry_00001_conf_03
20 20 1
SMALL
NO_CHARGES


@<TRIPOS>ATOM
      1 C          10.8666   14.6039    4.5294 C.3       1 UNL1        0.0000
      2 C          12.0042   14.7226    3.5825 C.2       1 UNL1        0.0000
      3 C          10.6448   14.8048    1.5608 C.ar      1 UNL1        0.0000
      4 C           9.5008   14.1199    1.9119 C.ar      1 UNL1        0.0000
      5 C           8.3151   14.2079    1.2097 C.ar      1 UNL1        0.0000
      6 C           8.2750   15.0219    0.1038 C.ar      1 UNL1        0.0000
      7 C           9.3898   15.7286   -0.2917 C.ar      1 UNL1        0.0000
      8 C          10.5704   15.6142    0.4439 C.ar      1 UNL1        0.0000
      9 C          11.7264   16.3787   -0.0086 C.2       1 UNL1        0.0000
     10 O          13.2088   14.8083    3.9703 O.2       1 UNL1        0.0000
     11 O          11.8393   14.7475    2.2264 O.3       1 UNL1        0.0000
     12 O          12.8843   16.1010    0.3959 O.co2     1 UNL1       -0.5000
     13 O          11.5950   17.4352   -0.8941 O.co2     1 UNL1       -0.5000
     14 H          11.2373   14.6047    5.5331 H         1 UNL1        0.0000
     15 H          10.3423   13.6899    4.3437 H         1 UNL1        0.0000
     16 H          10.2016   15.4306    4.3930 H         1 UNL1        0.0000
     17 H           9.5323   13.5096    2.7432 H         1 UNL1        0.0000
     18 H           7.4813   13.6772    1.5084 H         1 UNL1        0.0000
     19 H           7.4004   15.1049   -0.4378 H         1 UNL1        0.0000
     20 H           9.3521   16.3384   -1.1238 H         1 UNL1        0.0000
@<TRIPOS>BOND
     1    1    2 1
     2    1   14 1
     3    1   15 1
     4    1   16 1
     5    2   10 2
     6    2   11 1
     7    3    4 ar
     8    3    8 ar
     9    3   11 1
    10    4    5 ar
    11    4   17 1
    12    5    6 ar
    13    5   18 1
    14    6    7 ar
    15    6   19 1
    16    7    8 ar
    17    7   20 1
    18    8    9 1
    19    9   12 ar
    20    9   13 ar
@<TRIPOS>SUBSTRUCTURE
1 UNL1 1
@<TRIPOS>COMMENT
aspirin
PLANTSproteinTorsions
24
56 251.8800
113 102.0786
248 175.4818
285 195.1415
405 236.4963
445 141.7953
481 0.4309
510 71.2479
526 59.3770
772 156.9126
870 110.8555
949 249.6807
988 134.7221
1001 265.1648
1037 127.2044
1061 33.3848
1095 235.4612
1133 69.9147
1166 190.6774
1200 204.3526
1301 57.0789
1539 159.0757
1611 247.0958
1693 255.3651
PLANTSmolcadARTstart hb
PLANTSmolcadARTstart HB
LINES
13.2088 14.8083 3.9703 15.112 15.4491 4.95719 0 255 0 5
12.8843 16.101 0.395854 13.382 14.258 -0.352 0 255 0 5
PLANTSmolcadARTstart HBCH
LINES
PLANTSmolcadARTstart HB-CHO
LINES
PLANTSmolcadARTend
PLANTSmolcadARTstart HB_WATER
LINES
PLANTSmolcadARTend

PLANTSmolcadARTend

