@<TRIPOS>MOLECULE
aspirin_entry_00001_conf_10
20 20 1
SMALL
NO_CHARGES


@<TRIPOS>ATOM
      1 C           8.5120   15.4587    4.7711 C.3       1 UNL1        0.0000
      2 C           8.7168   14.3936    3.7570 C.2       1 UNL1        0.0000
      3 C          10.7797   15.3145    2.8411 C.ar      1 UNL1        0.0000
      4 C          11.5023   15.7469    3.9328 C.ar      1 UNL1        0.0000
      5 C          12.5243   16.6718    3.8514 C.ar      1 UNL1        0.0000
      6 C          12.8365   17.1865    2.6165 C.ar      1 UNL1        0.0000
      7 C          12.1457   16.7892    1.4925 C.ar      1 UNL1        0.0000
      8 C          11.1190   15.8518    1.6147 C.ar      1 UNL1        0.0000
      9 C          10.4135   15.4588    0.4008 C.2       1 UNL1        0.0000
     10 O           7.9336   13.4028    3.6402 O.2       1 UNL1        0.0000
     11 O           9.7608   14.4013    2.8756 O.3       1 UNL1        0.0000
     12 O           9.3098   14.8588    0.4594 O.co2     1 UNL1       -0.5000
     13 O          10.9290   15.7272   -0.8561 O.co2     1 UNL1       -0.5000
     14 H           7.6348   15.2410    5.3438 H         1 UNL1        0.0000
     15 H           8.3917   16.4009    4.2788 H         1 UNL1        0.0000
     16 H           9.3614   15.5011    5.4199 H         1 UNL1        0.0000
     17 H          11.2671   15.3588    4.8594 H         1 UNL1        0.0000
     18 H          13.0403   16.9676    4.6954 H         1 UNL1        0.0000
     19 H          13.5966   17.8791    2.5292 H         1 UNL1        0.0000
     20 H          12.3861   17.1803    0.5678 H         1 UNL1        0.0000
@<TRIPOS>BOND
     1    1    2 1
     2    1   14 1
     3    1   15 1
     4    1   16 1
     5    2   10 2
     6    2   11 1
     7    3    4 ar
     8    3    8 ar
     9    3   11 1
    10    4    5 ar
    11    4   17 1
    12    5    6 ar
    13    5   18 1
    14    6    7 ar
    15    6   19 1
    16    7    8 ar
    17    7   20 1
    18    8    9 1
    19    9   12 ar
    20    9   13 ar
@<TRIPOS>SUBSTRUCTURE
1 UNL1 1
@<TRIPOS>COMMENT
aspirin
PLANTSproteinTorsions
24
56 35.9540
113 143.1098
248 88.9598
285 187.4034
405 350.0195
445 6.9780
481 59.1964
510 239.4101
526 98.1085
772 163.6346
870 223.5906
949 125.9208
988 190.9740
1001 104.2155
1037 236.9989
1061 88.2911
1095 268.2956
1133 237.8179
1166 250.9792
1200 166.6992
1301 250.2961
1539 182.8317
1611 257.8120
1693 192.7190
PLANTSmolcadARTstart hb
PLANTSmolcadARTstart HB
LINES
7.93359 13.4028 3.64022 6.321 12.2 3.751 0 255 0 5
PLANTSmolcadARTstart HBCH
LINES
PLANTSmolcadARTstart HB-CHO
LINES
PLANTSmolcadARTend
PLANTSmolcadARTstart HB_WATER
LINES
PLANTSmolcadARTend

PLANTSmolcadARTend

