@<TRIPOS>MOLECULE
aspirin_entry_00001_conf_48
20 20 1
SMALL
NO_CHARGES


@<TRIPOS>ATOM
      1 C          -0.4950   37.3678   11.3452 C.3       1 UNL1        0.0000
      2 C          -1.4420   36.4479   10.6657 C.2       1 UNL1        0.0000
      3 C          -2.7477   35.8649    8.6915 C.ar      1 UNL1        0.0000
      4 C          -3.8950   35.3638    9.2689 C.ar      1 UNL1        0.0000
      5 C          -4.8539   34.6583    8.5692 C.ar      1 UNL1        0.0000
      6 C          -4.6524   34.4463    7.2269 C.ar      1 UNL1        0.0000
      7 C          -3.5228   34.9249    6.5997 C.ar      1 UNL1        0.0000
      8 C          -2.5761   35.6340    7.3405 C.ar      1 UNL1        0.0000
      9 C          -1.3954   36.1230    6.6385 C.2       1 UNL1        0.0000
     10 O          -2.0097   35.4864   11.2674 O.2       1 UNL1        0.0000
     11 O          -1.7727   36.5684    9.3455 O.3       1 UNL1        0.0000
     12 O          -1.1336   35.7414    5.4692 O.co2     1 UNL1       -0.5000
     13 O          -0.5207   37.0194    7.2291 O.co2     1 UNL1       -0.5000
     14 H          -0.3930   37.0799   12.3707 H         1 UNL1        0.0000
     15 H          -0.8697   38.3684   11.2914 H         1 UNL1        0.0000
     16 H           0.4586   37.3175   10.8630 H         1 UNL1        0.0000
     17 H          -4.0452   35.5245   10.2770 H         1 UNL1        0.0000
     18 H          -5.6995   34.3009    9.0418 H         1 UNL1        0.0000
     19 H          -5.3546   33.9221    6.6816 H         1 UNL1        0.0000
     20 H          -3.3784   34.7618    5.5907 H         1 UNL1        0.0000
@<TRIPOS>BOND
     1    1    2 1
     2    1   14 1
     3    1   15 1
     4    1   16 1
     5    2   10 2
     6    2   11 1
     7    3    4 ar
     8    3    8 ar
     9    3   11 1
    10    4    5 ar
    11    4   17 1
    12    5    6 ar
    13    5   18 1
    14    6    7 ar
    15    6   19 1
    16    7    8 ar
    17    7   20 1
    18    8    9 1
    19    9   12 ar
    20    9   13 ar
@<TRIPOS>SUBSTRUCTURE
1 UNL1 1
@<TRIPOS>COMMENT
aspirin
PLANTSproteinTorsions
24
56 212.7038
113 17.4773
248 192.9402
285 32.2694
405 24.6693
445 245.2147
481 148.0217
510 107.8790
526 59.9172
772 176.8278
870 214.7068
949 95.3067
988 113.0213
1001 52.1878
1037 252.7410
1061 111.5284
1095 54.8541
1133 316.3260
1166 219.5704
1200 20.5348
1301 272.9942
1539 259.3607
1611 216.2068
1693 311.8919
PLANTSmolcadARTstart hb
PLANTSmolcadARTstart HB
LINES
-0.520683 37.0194 7.22913 0.769 36.124 8.305 0 255 0 5
PLANTSmolcadARTstart HBCH
LINES
PLANTSmolcadARTstart HB-CHO
LINES
PLANTSmolcadARTend
PLANTSmolcadARTstart HB_WATER
LINES
PLANTSmolcadARTend

PLANTSmolcadARTend

