@<TRIPOS>MOLECULE
aspirin_entry_00001_conf_07
20 20 1
SMALL
NO_CHARGES


@<TRIPOS>ATOM
      1 C          12.2389   16.8183    1.9712 C.3       1 UNL1        0.0000
      2 C          13.1585   16.4896    3.0898 C.2       1 UNL1        0.0000
      3 C          11.9318   14.5253    3.8507 C.ar      1 UNL1        0.0000
      4 C          10.6262   14.8146    3.5152 C.ar      1 UNL1        0.0000
      5 C           9.6298   13.8614    3.4423 C.ar      1 UNL1        0.0000
      6 C           9.9591   12.5565    3.7183 C.ar      1 UNL1        0.0000
      7 C          11.2489   12.2123    4.0594 C.ar      1 UNL1        0.0000
      8 C          12.2290   13.2039    4.1223 C.ar      1 UNL1        0.0000
      9 C          13.5808   12.7972    4.4869 C.2       1 UNL1        0.0000
     10 O          14.2019   17.1670    3.3370 O.2       1 UNL1        0.0000
     11 O          12.9496   15.4364    3.9349 O.3       1 UNL1        0.0000
     12 O          14.4605   13.6516    4.7656 O.co2     1 UNL1       -0.5000
     13 O          13.9470   11.4627    4.5382 O.co2     1 UNL1       -0.5000
     14 H          12.6045   17.6791    1.4511 H         1 UNL1        0.0000
     15 H          11.2639   17.0243    2.3603 H         1 UNL1        0.0000
     16 H          12.1864   15.9890    1.2976 H         1 UNL1        0.0000
     17 H          10.3807   15.7949    3.3075 H         1 UNL1        0.0000
     18 H           8.6641   14.1221    3.1864 H         1 UNL1        0.0000
     19 H           9.2323   11.8253    3.6704 H         1 UNL1        0.0000
     20 H          11.4888   11.2296    4.2653 H         1 UNL1        0.0000
@<TRIPOS>BOND
     1    1    2 1
     2    1   14 1
     3    1   15 1
     4    1   16 1
     5    2   10 2
     6    2   11 1
     7    3    4 ar
     8    3    8 ar
     9    3   11 1
    10    4    5 ar
    11    4   17 1
    12    5    6 ar
    13    5   18 1
    14    6    7 ar
    15    6   19 1
    16    7    8 ar
    17    7   20 1
    18    8    9 1
    19    9   12 ar
    20    9   13 ar
@<TRIPOS>SUBSTRUCTURE
1 UNL1 1
@<TRIPOS>COMMENT
aspirin
PLANTSproteinTorsions
24
56 61.5085
113 206.1019
248 134.2898
285 2.9300
405 68.2036
445 38.8938
481 189.1768
510 60.3644
526 184.1997
772 13.2955
870 295.9827
949 208.4197
988 130.2596
1001 53.3215
1037 121.3982
1061 168.9641
1095 171.7879
1133 256.7993
1166 258.7054
1200 202.9273
1301 66.3069
1539 119.5371
1611 100.3554
1693 225.6210
PLANTSmolcadARTstart hb
PLANTSmolcadARTstart HB
LINES
14.4605 13.6516 4.76557 15.4188 15.0118 5.35181 0 255 0 5
PLANTSmolcadARTstart HBCH
LINES
13.947 11.4627 4.53822 15.5837 10.5848 5.51811 255 0 0 5
PLANTSmolcadARTstart HB-CHO
LINES
PLANTSmolcadARTend
PLANTSmolcadARTstart HB_WATER
LINES
PLANTSmolcadARTend

PLANTSmolcadARTend

