@<TRIPOS>MOLECULE
aspirin_entry_00001_conf_46
20 20 1
SMALL
NO_CHARGES


@<TRIPOS>ATOM
      1 C           7.6214   14.0319    5.2931 C.3       1 UNL1        0.0000
      2 C           8.5497   12.8786    5.4066 C.2       1 UNL1        0.0000
      3 C           9.8565   13.4108    3.4188 C.ar      1 UNL1        0.0000
      4 C           8.9835   13.6204    2.3724 C.ar      1 UNL1        0.0000
      5 C           9.2981   14.3714    1.2572 C.ar      1 UNL1        0.0000
      6 C          10.5471   14.9395    1.1891 C.ar      1 UNL1        0.0000
      7 C          11.4586   14.7615    2.2069 C.ar      1 UNL1        0.0000
      8 C          11.1038   13.9959    3.3185 C.ar      1 UNL1        0.0000
      9 C          12.0975   13.8325    4.3728 C.2       1 UNL1        0.0000
     10 O           8.4410   12.0021    6.3169 O.2       1 UNL1        0.0000
     11 O           9.5873   12.6752    4.5411 O.3       1 UNL1        0.0000
     12 O          11.9684   12.9417    5.2511 O.co2     1 UNL1       -0.5000
     13 O          13.2140   14.6480    4.4489 O.co2     1 UNL1       -0.5000
     14 H           6.8934   13.9813    6.0756 H         1 UNL1        0.0000
     15 H           7.1278   14.0000    4.3444 H         1 UNL1        0.0000
     16 H           8.1741   14.9439    5.3771 H         1 UNL1        0.0000
     17 H           8.0456   13.1938    2.4255 H         1 UNL1        0.0000
     18 H           8.6131   14.5032    0.4960 H         1 UNL1        0.0000
     19 H          10.8065   15.5057    0.3660 H         1 UNL1        0.0000
     20 H          12.3953   15.1916    2.1487 H         1 UNL1        0.0000
@<TRIPOS>BOND
     1    1    2 1
     2    1   14 1
     3    1   15 1
     4    1   16 1
     5    2   10 2
     6    2   11 1
     7    3    4 ar
     8    3    8 ar
     9    3   11 1
    10    4    5 ar
    11    4   17 1
    12    5    6 ar
    13    5   18 1
    14    6    7 ar
    15    6   19 1
    16    7    8 ar
    17    7   20 1
    18    8    9 1
    19    9   12 ar
    20    9   13 ar
@<TRIPOS>SUBSTRUCTURE
1 UNL1 1
@<TRIPOS>COMMENT
aspirin
PLANTSproteinTorsions
24
56 207.8591
113 10.9732
248 299.9244
285 228.8754
405 10.2927
445 101.1169
481 5.4244
510 211.8808
526 48.8077
772 148.8739
870 95.5690
949 247.0607
988 6.9964
1001 184.2461
1037 164.9629
1061 205.8625
1095 203.0854
1133 88.7970
1166 203.9292
1200 208.0585
1301 21.1931
1539 57.6042
1611 261.8162
1693 120.3058
PLANTSmolcadARTstart hb
PLANTSmolcadARTstart HB
LINES
13.214 14.648 4.44892 15.1194 15.4138 4.9808 0 255 0 5
PLANTSmolcadARTstart HBCH
LINES
PLANTSmolcadARTstart HB-CHO
LINES
PLANTSmolcadARTend
PLANTSmolcadARTstart HB_WATER
LINES
PLANTSmolcadARTend

PLANTSmolcadARTend

