@<TRIPOS>MOLECULE
aspirin_entry_00001_conf_53
20 20 1
SMALL
NO_CHARGES


@<TRIPOS>ATOM
      1 C          27.0276    5.8318   -0.3231 C.3       1 UNL1        0.0000
      2 C          26.9126    6.7864   -1.4547 C.2       1 UNL1        0.0000
      3 C          24.5628    7.3222   -1.0889 C.ar      1 UNL1        0.0000
      4 C          24.0474    6.1581   -0.5596 C.ar      1 UNL1        0.0000
      5 C          22.8453    6.0964    0.1171 C.ar      1 UNL1        0.0000
      6 C          22.1270    7.2573    0.2706 C.ar      1 UNL1        0.0000
      7 C          22.5958    8.4485   -0.2391 C.ar      1 UNL1        0.0000
      8 C          23.8156    8.4712   -0.9169 C.ar      1 UNL1        0.0000
      9 C          24.2752    9.7520   -1.4404 C.2       1 UNL1        0.0000
     10 O          27.8906    7.0691   -2.2112 O.2       1 UNL1        0.0000
     11 O          25.7477    7.4294   -1.7655 O.3       1 UNL1        0.0000
     12 O          23.7081   10.8257   -1.1132 O.co2     1 UNL1       -0.5000
     13 O          25.3460    9.8353   -2.3145 O.co2     1 UNL1       -0.5000
     14 H          28.0282    5.4556   -0.2751 H         1 UNL1        0.0000
     15 H          26.3480    5.0192   -0.4721 H         1 UNL1        0.0000
     16 H          26.7896    6.3330    0.5914 H         1 UNL1        0.0000
     17 H          24.5884    5.2872   -0.6751 H         1 UNL1        0.0000
     18 H          22.4965    5.2023    0.4980 H         1 UNL1        0.0000
     19 H          21.2256    7.2375    0.7728 H         1 UNL1        0.0000
     20 H          22.0505    9.3169   -0.1197 H         1 UNL1        0.0000
@<TRIPOS>BOND
     1    1    2 1
     2    1   14 1
     3    1   15 1
     4    1   16 1
     5    2   10 2
     6    2   11 1
     7    3    4 ar
     8    3    8 ar
     9    3   11 1
    10    4    5 ar
    11    4   17 1
    12    5    6 ar
    13    5   18 1
    14    6    7 ar
    15    6   19 1
    16    7    8 ar
    17    7   20 1
    18    8    9 1
    19    9   12 ar
    20    9   13 ar
@<TRIPOS>SUBSTRUCTURE
1 UNL1 1
@<TRIPOS>COMMENT
aspirin
PLANTSproteinTorsions
24
56 16.6964
113 292.6382
248 210.7945
285 54.9120
405 14.0047
445 53.1045
481 303.8568
510 190.0675
526 27.6307
772 249.4565
870 102.0843
949 119.8461
988 15.6241
1001 230.1523
1037 58.9143
1061 218.4407
1095 61.7444
1133 68.5620
1166 180.2912
1200 224.6959
1301 139.1875
1539 297.8530
1611 47.8847
1693 45.5596
PLANTSmolcadARTstart hb
PLANTSmolcadARTstart HB
LINES
23.7081 10.8257 -1.11321 24.1864 12.407 -2.34395 0 255 0 5
PLANTSmolcadARTstart HBCH
LINES
PLANTSmolcadARTstart HB-CHO
LINES
PLANTSmolcadARTend
PLANTSmolcadARTstart HB_WATER
LINES
PLANTSmolcadARTend

PLANTSmolcadARTend

