@<TRIPOS>MOLECULE
aspirin_entry_00001_conf_95
20 20 1
SMALL
NO_CHARGES


@<TRIPOS>ATOM
      1 C          10.0876   21.3825   19.9868 C.3       1 UNL1        0.0000
      2 C          10.0348   22.7663   20.5227 C.2       1 UNL1        0.0000
      3 C          11.2021   23.8022   18.6501 C.ar      1 UNL1        0.0000
      4 C          12.0673   22.8095   18.2416 C.ar      1 UNL1        0.0000
      5 C          12.7051   22.8120   17.0169 C.ar      1 UNL1        0.0000
      6 C          12.4627   23.8594   16.1615 C.ar      1 UNL1        0.0000
      7 C          11.6071   24.8782   16.5199 C.ar      1 UNL1        0.0000
      8 C          10.9806   24.8405   17.7664 C.ar      1 UNL1        0.0000
      9 C          10.0830   25.9380   18.1062 C.2       1 UNL1        0.0000
     10 O           9.5078   23.0449   21.6423 O.2       1 UNL1        0.0000
     11 O          10.5493   23.8400   19.8525 O.3       1 UNL1        0.0000
     12 O           9.7166   26.1302   19.2937 O.co2     1 UNL1       -0.5000
     13 O           9.6003   26.8049   17.1402 O.co2     1 UNL1       -0.5000
     14 H           9.6258   20.7135   20.6825 H         1 UNL1        0.0000
     15 H          11.1078   21.0959   19.8400 H         1 UNL1        0.0000
     16 H           9.5678   21.3421   19.0527 H         1 UNL1        0.0000
     17 H          12.2477   22.0232   18.8848 H         1 UNL1        0.0000
     18 H          13.3457   22.0472   16.7510 H         1 UNL1        0.0000
     19 H          12.9270   23.8842   15.2401 H         1 UNL1        0.0000
     20 H          11.4298   25.6619   15.8717 H         1 UNL1        0.0000
@<TRIPOS>BOND
     1    1    2 1
     2    1   14 1
     3    1   15 1
     4    1   16 1
     5    2   10 2
     6    2   11 1
     7    3    4 ar
     8    3    8 ar
     9    3   11 1
    10    4    5 ar
    11    4   17 1
    12    5    6 ar
    13    5   18 1
    14    6    7 ar
    15    6   19 1
    16    7    8 ar
    17    7   20 1
    18    8    9 1
    19    9   12 ar
    20    9   13 ar
@<TRIPOS>SUBSTRUCTURE
1 UNL1 1
@<TRIPOS>COMMENT
aspirin
PLANTSproteinTorsions
24
56 159.5484
113 278.8869
248 4.7703
285 42.4613
405 158.2537
445 53.9253
481 209.3932
510 182.1772
526 344.5782
772 67.8484
870 272.9152
949 84.8643
988 182.9565
1001 107.5490
1037 100.9265
1061 143.2857
1095 23.8846
1133 230.4170
1166 199.7074
1200 229.7115
1301 245.6893
1539 216.4841
1611 250.9346
1693 286.6425
PLANTSmolcadARTstart hb
PLANTSmolcadARTstart HB
LINES
PLANTSmolcadARTstart HBCH
LINES
9.60027 26.8049 17.1402 10.1891 28.3215 16.1243 255 0 0 5
PLANTSmolcadARTstart HB-CHO
LINES
PLANTSmolcadARTend
PLANTSmolcadARTstart HB_WATER
LINES
PLANTSmolcadARTend

PLANTSmolcadARTend

