@<TRIPOS>MOLECULE
aspirin_entry_00001_conf_80
20 20 1
SMALL
NO_CHARGES


@<TRIPOS>ATOM
      1 C           7.1258   14.9650   12.6037 C.3       1 UNL1        0.0000
      2 C           7.0061   14.1942   11.3402 C.2       1 UNL1        0.0000
      3 C           9.3821   14.2376   10.7970 C.ar      1 UNL1        0.0000
      4 C           9.7901   15.4415   11.3310 C.ar      1 UNL1        0.0000
      5 C          11.1140   15.7679   11.5491 C.ar      1 UNL1        0.0000
      6 C          12.0735   14.8426   11.2166 C.ar      1 UNL1        0.0000
      7 C          11.7208   13.6239   10.6792 C.ar      1 UNL1        0.0000
      8 C          10.3720   13.3300   10.4738 C.ar      1 UNL1        0.0000
      9 C          10.0421   12.0295    9.9032 C.2       1 UNL1        0.0000
     10 O           5.8922   13.7822   10.8950 O.2       1 UNL1        0.0000
     11 O           8.0838   13.8726   10.5642 O.3       1 UNL1        0.0000
     12 O           8.8747   11.7715    9.5131 O.co2     1 UNL1       -0.5000
     13 O          10.9948   11.0333    9.7713 O.co2     1 UNL1       -0.5000
     14 H           6.1550   15.0954   13.0344 H         1 UNL1        0.0000
     15 H           7.5559   15.9227   12.3974 H         1 UNL1        0.0000
     16 H           7.7522   14.4325   13.2880 H         1 UNL1        0.0000
     17 H           9.0683   16.1350   11.5809 H         1 UNL1        0.0000
     18 H          11.3754   16.6819   11.9520 H         1 UNL1        0.0000
     19 H          13.0701   15.0626   11.3702 H         1 UNL1        0.0000
     20 H          12.4474   12.9335   10.4320 H         1 UNL1        0.0000
@<TRIPOS>BOND
     1    1    2 1
     2    1   14 1
     3    1   15 1
     4    1   16 1
     5    2   10 2
     6    2   11 1
     7    3    4 ar
     8    3    8 ar
     9    3   11 1
    10    4    5 ar
    11    4   17 1
    12    5    6 ar
    13    5   18 1
    14    6    7 ar
    15    6   19 1
    16    7    8 ar
    17    7   20 1
    18    8    9 1
    19    9   12 ar
    20    9   13 ar
@<TRIPOS>SUBSTRUCTURE
1 UNL1 1
@<TRIPOS>COMMENT
aspirin
PLANTSproteinTorsions
24
56 90.0228
113 26.3062
248 43.8374
285 188.1559
405 85.9519
445 131.4013
481 189.1454
510 2.3250
526 271.5995
772 116.6130
870 56.5639
949 53.2571
988 291.3681
1001 180.5214
1037 131.9544
1061 88.1950
1095 59.6705
1133 156.2518
1166 251.4822
1200 34.3339
1301 241.2994
1539 255.0565
1611 248.4786
1693 235.8260
PLANTSmolcadARTstart hb
PLANTSmolcadARTstart HB
LINES
PLANTSmolcadARTstart HBCH
LINES
PLANTSmolcadARTstart HB-CHO
LINES
PLANTSmolcadARTend
PLANTSmolcadARTstart HB_WATER
LINES
PLANTSmolcadARTend

PLANTSmolcadARTend

