@<TRIPOS>MOLECULE
query molecule
   55    59     1     0     0
SMALL
NO_CHARGE

@<TRIPOS>ATOM
      1 N          51.6822   -5.5527   15.5686 N.am      1 MOL    -0.2945
      2 N          52.3834   -6.6340   13.3131 N.am      1 MOL    -0.2983
      3 N          54.6946   -6.3492   21.5190 N.ar      1 MOL    -0.1750
      4 N          54.7140   -7.6486   21.6919 N.ar      1 MOL    -0.2425
      5 C          53.6999   -8.4521   21.3414 C.ar      1 MOL     0.2725
      6 C          52.5760   -7.8914   20.7703 C.ar      1 MOL     0.0496
      7 C          51.4837   -8.6793   20.4053 C.ar      1 MOL     0.0138
      8 C          50.3629   -8.0949   19.8560 C.ar      1 MOL     0.0008
      9 C          50.3866   -6.7256   19.6958 C.ar      1 MOL     0.0007
     10 C          51.4632   -5.9314   20.0538 C.ar      1 MOL     0.0103
     11 C          52.5684   -6.5200   20.5941 C.ar      1 MOL     0.0106
     12 C          53.6169   -5.7186   20.9587 C.ar      1 MOL     0.0736
     13 C          53.7493   -4.2809   20.7622 C.3       1 MOL     0.0925
     14 C          53.8935   -3.9611   19.3151 C.ar      1 MOL    -0.0406
     15 C          52.7792   -4.2667   18.5134 C.ar      1 MOL     0.0196
     16 C          52.8202   -4.0174   17.1625 C.ar      1 MOL     0.0723
     17 C          51.6650   -4.3312   16.2916 C.2       1 MOL     0.2495
     18 C          50.5842   -5.8923   14.7225 C.3       1 MOL     0.1268
     19 C          50.9825   -6.8159   13.5914 C.3       1 MOL     0.1265
     20 C          53.3238   -6.9652   14.3892 C.3       1 MOL     0.1265
     21 C          52.8260   -6.4347   15.7090 C.3       1 MOL     0.1268
     22 C          52.8494   -6.1637   12.0819 C.2       1 MOL     0.2187
     23 C          52.0407   -5.7794   10.9220 C.3       1 MOL     0.0752
     24 C          50.7503   -6.5427   10.7265 C.3       1 MOL     0.0134
     25 C          51.8531   -6.7087    9.7771 C.3       1 MOL     0.0134
     26 C          53.9118   -3.4725   16.5289 C.ar      1 MOL     0.1355
     27 C          55.0020   -3.1738   17.3146 C.ar      1 MOL     0.0392
     28 C          54.9639   -3.4278   18.6931 C.ar      1 MOL     0.0066
     29 O          53.7005   -9.7000   21.4979 O.2       1 MOL    -0.2658
     30 O          54.1180   -6.0480   11.9313 O.2       1 MOL    -0.2753
     31 O          50.6856   -3.5589   16.1771 O.2       1 MOL    -0.2699
     32 F          53.9038   -3.2445   15.1833 F         1 MOL    -0.2047
     33 H          51.5151   -9.7012   20.5462 H         1 MOL     0.0625
     34 H          49.5438   -8.6562   19.5780 H         1 MOL     0.0618
     35 H          49.5571   -6.2679   19.2876 H         1 MOL     0.0618
     36 H          51.4306   -4.9094   19.9136 H         1 MOL     0.0624
     37 H          54.6134   -3.9316   21.2878 H         1 MOL     0.0377
     38 H          52.8693   -3.7990   21.1347 H         1 MOL     0.0377
     39 H          51.9333   -4.6773   18.9381 H         1 MOL     0.0629
     40 H          50.1824   -4.9924   14.3050 H         1 MOL     0.0480
     41 H          49.8617   -6.4074   15.3216 H         1 MOL     0.0480
     42 H          50.4092   -6.5833   12.7188 H         1 MOL     0.0480
     43 H          50.7967   -7.8322   13.8707 H         1 MOL     0.0480
     44 H          54.2762   -6.5289   14.1719 H         1 MOL     0.0480
     45 H          53.4120   -8.0295   14.4568 H         1 MOL     0.0480
     46 H          53.6187   -5.8915   16.1799 H         1 MOL     0.0480
     47 H          52.5141   -7.2730   16.2947 H         1 MOL     0.0480
     48 H          52.3532   -4.7593   11.0003 H         1 MOL     0.0394
     49 H          49.8619   -6.0250   10.4299 H         1 MOL     0.0273
     50 H          50.1629   -7.2037   11.3290 H         1 MOL     0.0273
     51 H          51.7625   -6.3179    8.7851 H         1 MOL     0.0273
     52 H          52.3947   -7.5510    9.4023 H         1 MOL     0.0273
     53 H          55.8477   -2.7624   16.8883 H         1 MOL     0.0646
     54 H          55.7950   -3.1948   19.2593 H         1 MOL     0.0621
     55 H          55.5138   -8.0545   22.0988 H         1 MOL     0.1921
@<TRIPOS>BOND
     1    1   18 1 
     2    1   21 1 
     3    1   17 am
     4    2   20 1 
     5    2   22 am
     6    2   19 1 
     7    3    4 ar
     8    3   12 ar
     9    4   55 1 
    10    4    5 ar
    11    5    6 ar
    12    5   29 2 
    13    6    7 ar
    14    6   11 ar
    15    7    8 ar
    16    7   33 1 
    17    8    9 ar
    18    8   34 1 
    19    9   10 ar
    20    9   35 1 
    21   10   11 ar
    22   10   36 1 
    23   11   12 ar
    24   12   13 1 
    25   13   14 1 
    26   13   37 1 
    27   13   38 1 
    28   14   15 ar
    29   14   28 ar
    30   15   16 ar
    31   15   39 1 
    32   16   17 1 
    33   16   26 ar
    34   17   31 2 
    35   18   19 1 
    36   18   40 1 
    37   18   41 1 
    38   19   42 1 
    39   19   43 1 
    40   20   21 1 
    41   20   44 1 
    42   20   45 1 
    43   21   46 1 
    44   21   47 1 
    45   22   23 1 
    46   22   30 2 
    47   23   24 1 
    48   23   25 1 
    49   23   48 1 
    50   24   25 1 
    51   24   49 1 
    52   24   50 1 
    53   25   51 1 
    54   25   52 1 
    55   26   27 ar
    56   26   32 1 
    57   27   28 ar
    58   27   53 1 
    59   28   54 1 
@<TRIPOS>SUBSTRUCTURE
1 MOL         1
@<TRIPOS>MOLECULE
query molecule
   55    59     1     0     0
SMALL
NO_CHARGE

@<TRIPOS>ATOM
      1 N           6.4887    0.6399   30.4637 N.am      1 MOL    -0.2945
      2 N           6.4453    1.0590   33.0271 N.am      1 MOL    -0.2983
      3 N           6.4123    6.6253   29.6553 N.ar      1 MOL    -0.1750
      4 N           5.5064    7.5616   29.8010 N.ar      1 MOL    -0.2425
      5 C           5.4605    8.6647   29.0408 C.ar      1 MOL     0.2725
      6 C           6.4106    8.8306   28.0541 C.ar      1 MOL     0.0496
      7 C           6.4209    9.9693   27.2477 C.ar      1 MOL     0.0138
      8 C           7.3925   10.1237   26.2825 C.ar      1 MOL     0.0008
      9 C           8.3257    9.1152   26.1677 C.ar      1 MOL     0.0007
     10 C           8.3277    7.9801   26.9611 C.ar      1 MOL     0.0103
     11 C           7.3604    7.8359   27.9115 C.ar      1 MOL     0.0106
     12 C           7.3873    6.7162   28.6991 C.ar      1 MOL     0.0736
     13 C           8.2916    5.5782   28.5986 C.3       1 MOL     0.0925
     14 C           7.5650    4.3733   28.1110 C.ar      1 MOL    -0.0406
     15 C           7.7363    3.2096   28.8817 C.ar      1 MOL     0.0196
     16 C           7.1138    2.0433   28.5062 C.ar      1 MOL     0.0723
     17 C           7.2774    0.8011   29.2946 C.2       1 MOL     0.2495
     18 C           6.6149   -0.5464   31.2472 C.3       1 MOL     0.1268
     19 C           6.2471   -0.3290   32.6993 C.3       1 MOL     0.1265
     20 C           5.6258    2.0370   32.3035 C.3       1 MOL     0.1265
     21 C           5.5645    1.6945   30.8372 C.3       1 MOL     0.1268
     22 C           7.3713    1.4789   33.9865 C.2       1 MOL     0.2187
     23 C           8.2668    0.6308   34.7776 C.3       1 MOL     0.0752
     24 C           8.2005   -0.8534   34.4965 C.3       1 MOL     0.0134
     25 C           7.7286   -0.3268   35.7792 C.3       1 MOL     0.0134
     26 C           6.3118    1.9407   27.3943 C.ar      1 MOL     0.1355
     27 C           6.1448    3.0804   26.6406 C.ar      1 MOL     0.0392
     28 C           6.7793    4.2718   27.0204 C.ar      1 MOL     0.0066
     29 O           4.5991    9.5727   29.1644 O.2       1 MOL    -0.2658
     30 O           7.4630    2.7381   34.2129 O.2       1 MOL    -0.2753
     31 O           8.0818   -0.0997   28.9626 O.2       1 MOL    -0.2699
     32 F           5.7158    0.7585   27.0627 F         1 MOL    -0.2047
     33 H           5.6998   10.6967   27.3736 H         1 MOL     0.0625
     34 H           7.4205   10.9560   25.6743 H         1 MOL     0.0618
     35 H           9.0625    9.2117   25.4521 H         1 MOL     0.0618
     36 H           9.0500    7.2536   26.8354 H         1 MOL     0.0624
     37 H           8.7073    5.3724   29.5629 H         1 MOL     0.0377
     38 H           9.0694    5.8155   27.9029 H         1 MOL     0.0377
     39 H           8.3280    3.2312   29.7267 H         1 MOL     0.0629
     40 H           7.6295   -0.8834   31.1973 H         1 MOL     0.0480
     41 H           5.9370   -1.2718   30.8468 H         1 MOL     0.0480
     42 H           6.8677   -0.9381   33.3222 H         1 MOL     0.0480
     43 H           5.2231   -0.5969   32.8579 H         1 MOL     0.0480
     44 H           6.0541    3.0106   32.4192 H         1 MOL     0.0480
     45 H           4.6332    2.0204   32.7030 H         1 MOL     0.0480
     46 H           5.8020    2.5711   30.2712 H         1 MOL     0.0480
     47 H           4.5763    1.3423   30.6309 H         1 MOL     0.0480
     48 H           9.0125    1.3968   34.8161 H         1 MOL     0.0394
     49 H           9.1006   -1.4307   34.4533 H         1 MOL     0.0273
     50 H           7.7758   -1.4593   33.7236 H         1 MOL     0.0273
     51 H           8.2829   -0.5291   36.6719 H         1 MOL     0.0273
     52 H           6.8119   -0.4008   36.3244 H         1 MOL     0.0273
     53 H           5.5519    3.0576   25.7956 H         1 MOL     0.0646
     54 H           6.6377    5.1119   26.4375 H         1 MOL     0.0621
     55 H           4.8255    7.4484   30.5034 H         1 MOL     0.1921
@<TRIPOS>BOND
     1    1   18 1 
     2    1   21 1 
     3    1   17 am
     4    2   20 1 
     5    2   22 am
     6    2   19 1 
     7    3    4 ar
     8    3   12 ar
     9    4   55 1 
    10    4    5 ar
    11    5    6 ar
    12    5   29 2 
    13    6    7 ar
    14    6   11 ar
    15    7    8 ar
    16    7   33 1 
    17    8    9 ar
    18    8   34 1 
    19    9   10 ar
    20    9   35 1 
    21   10   11 ar
    22   10   36 1 
    23   11   12 ar
    24   12   13 1 
    25   13   14 1 
    26   13   37 1 
    27   13   38 1 
    28   14   15 ar
    29   14   28 ar
    30   15   16 ar
    31   15   39 1 
    32   16   17 1 
    33   16   26 ar
    34   17   31 2 
    35   18   19 1 
    36   18   40 1 
    37   18   41 1 
    38   19   42 1 
    39   19   43 1 
    40   20   21 1 
    41   20   44 1 
    42   20   45 1 
    43   21   46 1 
    44   21   47 1 
    45   22   23 1 
    46   22   30 2 
    47   23   24 1 
    48   23   25 1 
    49   23   48 1 
    50   24   25 1 
    51   24   49 1 
    52   24   50 1 
    53   25   51 1 
    54   25   52 1 
    55   26   27 ar
    56   26   32 1 
    57   27   28 ar
    58   27   53 1 
    59   28   54 1 
@<TRIPOS>SUBSTRUCTURE
1 MOL         1
@<TRIPOS>MOLECULE
query molecule
   55    59     1     0     0
SMALL
NO_CHARGE

@<TRIPOS>ATOM
      1 N          13.5406   11.9638   24.9457 N.am      1 MOL    -0.2945
      2 N          11.8297   12.8158   23.1864 N.am      1 MOL    -0.2983
      3 N          18.1688    8.4513   24.0279 N.ar      1 MOL    -0.1750
      4 N          17.5452    7.5028   23.3721 N.ar      1 MOL    -0.2425
      5 C          16.7458    7.7383   22.3222 C.ar      1 MOL     0.2725
      6 C          16.5649    9.0409   21.9050 C.ar      1 MOL     0.0496
      7 C          15.7279    9.3438   20.8303 C.ar      1 MOL     0.0138
      8 C          15.5454   10.6543   20.4445 C.ar      1 MOL     0.0008
      9 C          16.2190   11.6178   21.1651 C.ar      1 MOL     0.0007
     10 C          17.0522   11.3317   22.2336 C.ar      1 MOL     0.0103
     11 C          17.2280   10.0315   22.6056 C.ar      1 MOL     0.0106
     12 C          18.0411    9.7675   23.6750 C.ar      1 MOL     0.0736
     13 C          18.8384   10.7148   24.4430 C.3       1 MOL     0.0925
     14 C          18.0193   11.8970   24.8287 C.ar      1 MOL    -0.0406
     15 C          16.6912   11.6190   25.1982 C.ar      1 MOL     0.0196
     16 C          15.8533   12.6463   25.5606 C.ar      1 MOL     0.0723
     17 C          14.4493   12.3862   25.9511 C.2       1 MOL     0.2495
     18 C          12.1798   11.6986   25.2847 C.3       1 MOL     0.1268
     19 C          11.2391   11.8862   24.1138 C.3       1 MOL     0.1265
     20 C          13.0970   12.4191   22.5630 C.3       1 MOL     0.1265
     21 C          14.0217   11.8100   23.5853 C.3       1 MOL     0.1268
     22 C          11.2414   14.0462   22.8793 C.2       1 MOL     0.2187
     23 C           9.9941   14.5874   23.4258 C.3       1 MOL     0.0752
     24 C           9.4523   15.8267   22.7500 C.3       1 MOL     0.0134
     25 C           9.9681   15.9022   24.1187 C.3       1 MOL     0.0134
     26 C          16.2432   13.9643   25.5860 C.ar      1 MOL     0.1355
     27 C          17.5434   14.2353   25.2241 C.ar      1 MOL     0.0392
     28 C          18.4007   13.1896   24.8528 C.ar      1 MOL     0.0066
     29 O          16.1405    6.8422   21.6799 O.2       1 MOL    -0.2658
     30 O          11.8424   14.7973   22.0310 O.2       1 MOL    -0.2753
     31 O          14.0465   12.5265   27.1288 O.2       1 MOL    -0.2699
     32 F          15.3725   14.9492   25.9529 F         1 MOL    -0.2047
     33 H          15.2454    8.5856   20.3231 H         1 MOL     0.0625
     34 H          14.9325   10.9027   19.6534 H         1 MOL     0.0618
     35 H          16.0952   12.6052   20.8936 H         1 MOL     0.0618
     36 H          17.5336   12.0906   22.7412 H         1 MOL     0.0624
     37 H          19.6678   11.0395   23.8498 H         1 MOL     0.0377
     38 H          19.1859   10.2323   25.3328 H         1 MOL     0.0377
     39 H          16.3466   10.6464   25.1968 H         1 MOL     0.0629
     40 H          11.8866   12.3640   26.0701 H         1 MOL     0.0480
     41 H          12.1164   10.6744   25.5898 H         1 MOL     0.0480
     42 H          10.3038   12.2709   24.4624 H         1 MOL     0.0480
     43 H          11.0716   10.9467   23.6293 H         1 MOL     0.0480
     44 H          13.5649   13.2810   22.1356 H         1 MOL     0.0480
     45 H          12.8969   11.6926   21.8033 H         1 MOL     0.0480
     46 H          14.9777   12.2843   23.5070 H         1 MOL     0.0480
     47 H          14.0787   10.7618   23.3823 H         1 MOL     0.0480
     48 H           9.6448   13.6101   23.6851 H         1 MOL     0.0394
     49 H           8.4020   15.9211   22.5677 H         1 MOL     0.0273
     50 H           9.6566   16.3399   21.8336 H         1 MOL     0.0273
     51 H           9.2916   16.0604   24.9326 H         1 MOL     0.0273
     52 H          10.7050   16.5043   24.6063 H         1 MOL     0.0273
     53 H          17.8871   15.2090   25.2265 H         1 MOL     0.0646
     54 H          19.3707   13.4203   24.5855 H         1 MOL     0.0621
     55 H          17.6708    6.5710   23.6652 H         1 MOL     0.1921
@<TRIPOS>BOND
     1    1   18 1 
     2    1   21 1 
     3    1   17 am
     4    2   20 1 
     5    2   22 am
     6    2   19 1 
     7    3    4 ar
     8    3   12 ar
     9    4   55 1 
    10    4    5 ar
    11    5    6 ar
    12    5   29 2 
    13    6    7 ar
    14    6   11 ar
    15    7    8 ar
    16    7   33 1 
    17    8    9 ar
    18    8   34 1 
    19    9   10 ar
    20    9   35 1 
    21   10   11 ar
    22   10   36 1 
    23   11   12 ar
    24   12   13 1 
    25   13   14 1 
    26   13   37 1 
    27   13   38 1 
    28   14   15 ar
    29   14   28 ar
    30   15   16 ar
    31   15   39 1 
    32   16   17 1 
    33   16   26 ar
    34   17   31 2 
    35   18   19 1 
    36   18   40 1 
    37   18   41 1 
    38   19   42 1 
    39   19   43 1 
    40   20   21 1 
    41   20   44 1 
    42   20   45 1 
    43   21   46 1 
    44   21   47 1 
    45   22   23 1 
    46   22   30 2 
    47   23   24 1 
    48   23   25 1 
    49   23   48 1 
    50   24   25 1 
    51   24   49 1 
    52   24   50 1 
    53   25   51 1 
    54   25   52 1 
    55   26   27 ar
    56   26   32 1 
    57   27   28 ar
    58   27   53 1 
    59   28   54 1 
@<TRIPOS>SUBSTRUCTURE
1 MOL         1
@<TRIPOS>MOLECULE
query molecule
   55    59     1     0     0
SMALL
NO_CHARGE

@<TRIPOS>ATOM
      1 N           7.6296    9.3130   29.2694 N.am      1 MOL    -0.2945
      2 N           9.6510   10.6728   28.3675 N.am      1 MOL    -0.2983
      3 N           9.4946    4.4708   27.4196 N.ar      1 MOL    -0.1750
      4 N          10.7460    4.5298   27.8057 N.ar      1 MOL    -0.2425
      5 C          11.2384    3.8005   28.8169 C.ar      1 MOL     0.2725
      6 C          10.3926    2.9431   29.4901 C.ar      1 MOL     0.0496
      7 C          10.8484    2.1759   30.5628 C.ar      1 MOL     0.0138
      8 C           9.9803    1.3421   31.2342 C.ar      1 MOL     0.0008
      9 C           8.6737    1.3151   30.7948 C.ar      1 MOL     0.0007
     10 C           8.2076    2.0710   29.7322 C.ar      1 MOL     0.0103
     11 C           9.0753    2.8910   29.0729 C.ar      1 MOL     0.0106
     12 C           8.5943    3.6446   28.0360 C.ar      1 MOL     0.0736
     13 C           7.2527    3.6247   27.4679 C.3       1 MOL     0.0925
     14 C           6.6234    4.9709   27.5637 C.ar      1 MOL    -0.0406
     15 C           7.1808    5.8329   28.5249 C.ar      1 MOL     0.0196
     16 C           6.6613    7.0938   28.6952 C.ar      1 MOL     0.0723
     17 C           7.2237    8.0231   29.7009 C.2       1 MOL     0.2495
     18 C           8.1721   10.2385   30.2109 C.3       1 MOL     0.1268
     19 C           9.1035   11.2448   29.5701 C.3       1 MOL     0.1265
     20 C           8.7032   10.3368   27.2995 C.3       1 MOL     0.1265
     21 C           7.4813    9.6630   27.8690 C.3       1 MOL     0.1268
     22 C          11.0192   10.4382   28.2031 C.2       1 MOL     0.2187
     23 C          12.0822   10.7046   29.1758 C.3       1 MOL     0.0752
     24 C          13.4960   10.6866   28.6403 C.3       1 MOL     0.0134
     25 C          13.0476    9.6436   29.5656 C.3       1 MOL     0.0134
     26 C           5.6025    7.5784   27.9643 C.ar      1 MOL     0.1355
     27 C           5.0578    6.7337   27.0237 C.ar      1 MOL     0.0392
     28 C           5.5847    5.4462   26.8480 C.ar      1 MOL     0.0066
     29 O          12.4353    3.8423   29.2010 O.2       1 MOL    -0.2658
     30 O          11.4064    9.9353   27.0884 O.2       1 MOL    -0.2753
     31 O           7.3494    7.7066   30.9063 O.2       1 MOL    -0.2699
     32 F           5.1220    8.8389   28.1716 F         1 MOL    -0.2047
     33 H          11.8369    2.2322   30.8537 H         1 MOL     0.0625
     34 H          10.2938    0.7653   32.0294 H         1 MOL     0.0618
     35 H           8.0071    0.6985   31.2844 H         1 MOL     0.0618
     36 H           7.2185    2.0150   29.4426 H         1 MOL     0.0624
     37 H           6.6540    2.9173   28.0029 H         1 MOL     0.0377
     38 H           7.3187    3.3487   26.4360 H         1 MOL     0.0377
     39 H           7.9773    5.5195   29.1009 H         1 MOL     0.0629
     40 H           8.7158    9.6923   30.9535 H         1 MOL     0.0480
     41 H           7.3544   10.7811   30.6386 H         1 MOL     0.0480
     42 H           9.8958   11.4835   30.2480 H         1 MOL     0.0480
     43 H           8.5645   12.1389   29.3343 H         1 MOL     0.0480
     44 H           9.1761    9.6764   26.6031 H         1 MOL     0.0480
     45 H           8.4019   11.2380   26.8075 H         1 MOL     0.0480
     46 H           7.2940    8.7682   27.3127 H         1 MOL     0.0480
     47 H           6.6697   10.3552   27.7959 H         1 MOL     0.0480
     48 H          11.4539   11.3697   29.7301 H         1 MOL     0.0394
     49 H          14.2008   11.4236   28.9652 H         1 MOL     0.0273
     50 H          13.9364   10.6966   27.6652 H         1 MOL     0.0273
     51 H          13.4340    9.6175   30.5631 H         1 MOL     0.0273
     52 H          13.0351    8.5749   29.5360 H         1 MOL     0.0273
     53 H           4.2610    7.0488   26.4474 H         1 MOL     0.0646
     54 H           5.1574    4.8328   26.1362 H         1 MOL     0.0621
     55 H          11.3545    5.1397   27.3288 H         1 MOL     0.1921
@<TRIPOS>BOND
     1    1   18 1 
     2    1   21 1 
     3    1   17 am
     4    2   20 1 
     5    2   22 am
     6    2   19 1 
     7    3    4 ar
     8    3   12 ar
     9    4   55 1 
    10    4    5 ar
    11    5    6 ar
    12    5   29 2 
    13    6    7 ar
    14    6   11 ar
    15    7    8 ar
    16    7   33 1 
    17    8    9 ar
    18    8   34 1 
    19    9   10 ar
    20    9   35 1 
    21   10   11 ar
    22   10   36 1 
    23   11   12 ar
    24   12   13 1 
    25   13   14 1 
    26   13   37 1 
    27   13   38 1 
    28   14   15 ar
    29   14   28 ar
    30   15   16 ar
    31   15   39 1 
    32   16   17 1 
    33   16   26 ar
    34   17   31 2 
    35   18   19 1 
    36   18   40 1 
    37   18   41 1 
    38   19   42 1 
    39   19   43 1 
    40   20   21 1 
    41   20   44 1 
    42   20   45 1 
    43   21   46 1 
    44   21   47 1 
    45   22   23 1 
    46   22   30 2 
    47   23   24 1 
    48   23   25 1 
    49   23   48 1 
    50   24   25 1 
    51   24   49 1 
    52   24   50 1 
    53   25   51 1 
    54   25   52 1 
    55   26   27 ar
    56   26   32 1 
    57   27   28 ar
    58   27   53 1 
    59   28   54 1 
@<TRIPOS>SUBSTRUCTURE
1 MOL         1
@<TRIPOS>MOLECULE
query molecule
   55    59     1     0     0
SMALL
NO_CHARGE

@<TRIPOS>ATOM
      1 N          15.8935  -20.6755    9.2738 N.am      1 MOL    -0.2945
      2 N          17.0276  -21.0179   11.5858 N.am      1 MOL    -0.2983
      3 N          21.5144  -19.8799    6.7612 N.ar      1 MOL    -0.1750
      4 N          22.4970  -19.0878    7.1160 N.ar      1 MOL    -0.2425
      5 C          23.2214  -18.3774    6.2399 C.ar      1 MOL     0.2725
      6 C          22.9247  -18.4796    4.8964 C.ar      1 MOL     0.0496
      7 C          23.6601  -17.7776    3.9405 C.ar      1 MOL     0.0138
      8 C          23.3595  -17.9115    2.6022 C.ar      1 MOL     0.0008
      9 C          22.3205  -18.7573    2.2762 C.ar      1 MOL     0.0007
     10 C          21.5827  -19.4603    3.2140 C.ar      1 MOL     0.0103
     11 C          21.8865  -19.3187    4.5359 C.ar      1 MOL     0.0106
     12 C          21.1588  -20.0342    5.4486 C.ar      1 MOL     0.0736
     13 C          20.0083  -20.8916    5.1952 C.3       1 MOL     0.0925
     14 C          18.7488  -20.2141    5.6101 C.ar      1 MOL    -0.0406
     15 C          17.9527  -20.9243    6.5263 C.ar      1 MOL     0.0196
     16 C          16.7655  -20.3856    6.9612 C.ar      1 MOL     0.0723
     17 C          15.9038  -21.1101    7.9225 C.2       1 MOL     0.2495
     18 C          15.0718  -21.3459   10.2289 C.3       1 MOL     0.1268
     19 C          15.6046  -21.2305   11.6409 C.3       1 MOL     0.1265
     20 C          17.4919  -19.7905   10.9302 C.3       1 MOL     0.1265
     21 C          16.7260  -19.5496    9.6548 C.3       1 MOL     0.1268
     22 C          17.9438  -21.9261   12.1243 C.2       1 MOL     0.2187
     23 C          17.6388  -23.1939   12.7927 C.3       1 MOL     0.0752
     24 C          18.6557  -24.2996   12.6214 C.3       1 MOL     0.0134
     25 C          17.3307  -24.4186   12.0087 C.3       1 MOL     0.0134
     26 C          16.2952  -19.1624    6.5458 C.ar      1 MOL     0.1355
     27 C          17.0753  -18.4682    5.6489 C.ar      1 MOL     0.0392
     28 C          18.2867  -19.0153    5.2023 C.ar      1 MOL     0.0066
     29 O          24.1662  -17.6118    6.5609 O.2       1 MOL    -0.2658
     30 O          19.1903  -21.6376   12.0332 O.2       1 MOL    -0.2753
     31 O          15.1928  -22.0829    7.5807 O.2       1 MOL    -0.2699
     32 F          15.1084  -18.6707    7.0068 F         1 MOL    -0.2047
     33 H          24.4296  -17.1566    4.2360 H         1 MOL     0.0625
     34 H          23.8882  -17.4028    1.8776 H         1 MOL     0.0618
     35 H          22.0800  -18.8729    1.2798 H         1 MOL     0.0618
     36 H          20.8139  -20.0820    2.9177 H         1 MOL     0.0624
     37 H          20.1178  -21.8009    5.7485 H         1 MOL     0.0377
     38 H          19.9572  -21.0999    4.1467 H         1 MOL     0.0377
     39 H          18.2589  -21.8474    6.8709 H         1 MOL     0.0629
     40 H          15.0175  -22.3821    9.9666 H         1 MOL     0.0480
     41 H          14.1074  -20.8816   10.2081 H         1 MOL     0.0480
     42 H          15.3959  -22.1314   12.1785 H         1 MOL     0.0480
     43 H          15.1338  -20.4091   12.1401 H         1 MOL     0.0480
     44 H          18.5330  -19.8845   10.7023 H         1 MOL     0.0480
     45 H          17.3315  -18.9634   11.5899 H         1 MOL     0.0480
     46 H          17.4251  -19.3614    8.8667 H         1 MOL     0.0480
     47 H          16.0791  -18.7149    9.8218 H         1 MOL     0.0480
     48 H          17.1455  -22.6895   13.5968 H         1 MOL     0.0394
     49 H          18.9183  -24.9190   13.4536 H         1 MOL     0.0273
     50 H          19.6632  -24.3530   12.2649 H         1 MOL     0.0273
     51 H          16.6315  -25.1325   12.3915 H         1 MOL     0.0273
     52 H          16.9820  -24.6010   11.0145 H         1 MOL     0.0273
     53 H          16.7680  -17.5442    5.3053 H         1 MOL     0.0646
     54 H          18.8524  -18.4741    4.5295 H         1 MOL     0.0621
     55 H          22.7131  -19.0106    8.0736 H         1 MOL     0.1921
@<TRIPOS>BOND
     1    1   18 1 
     2    1   21 1 
     3    1   17 am
     4    2   20 1 
     5    2   22 am
     6    2   19 1 
     7    3    4 ar
     8    3   12 ar
     9    4   55 1 
    10    4    5 ar
    11    5    6 ar
    12    5   29 2 
    13    6    7 ar
    14    6   11 ar
    15    7    8 ar
    16    7   33 1 
    17    8    9 ar
    18    8   34 1 
    19    9   10 ar
    20    9   35 1 
    21   10   11 ar
    22   10   36 1 
    23   11   12 ar
    24   12   13 1 
    25   13   14 1 
    26   13   37 1 
    27   13   38 1 
    28   14   15 ar
    29   14   28 ar
    30   15   16 ar
    31   15   39 1 
    32   16   17 1 
    33   16   26 ar
    34   17   31 2 
    35   18   19 1 
    36   18   40 1 
    37   18   41 1 
    38   19   42 1 
    39   19   43 1 
    40   20   21 1 
    41   20   44 1 
    42   20   45 1 
    43   21   46 1 
    44   21   47 1 
    45   22   23 1 
    46   22   30 2 
    47   23   24 1 
    48   23   25 1 
    49   23   48 1 
    50   24   25 1 
    51   24   49 1 
    52   24   50 1 
    53   25   51 1 
    54   25   52 1 
    55   26   27 ar
    56   26   32 1 
    57   27   28 ar
    58   27   53 1 
    59   28   54 1 
@<TRIPOS>SUBSTRUCTURE
1 MOL         1
@<TRIPOS>MOLECULE
query molecule
   55    59     1     0     0
SMALL
NO_CHARGE

@<TRIPOS>ATOM
      1 N          15.8251   12.1172   17.6960 N.am      1 MOL    -0.2945
      2 N          16.6844   11.5298   20.0761 N.am      1 MOL    -0.2983
      3 N          20.3643   12.8341   11.4532 N.ar      1 MOL    -0.1750
      4 N          20.9826   13.4950   10.5047 N.ar      1 MOL    -0.2425
      5 C          22.1428   14.1392   10.6939 C.ar      1 MOL     0.2725
      6 C          22.7212   14.1105   11.9462 C.ar      1 MOL     0.0496
      7 C          23.9179   14.7808   12.2029 C.ar      1 MOL     0.0138
      8 C          24.4663   14.7561   13.4670 C.ar      1 MOL     0.0008
      9 C          23.7797   14.0512   14.4329 C.ar      1 MOL     0.0007
     10 C          22.5914   13.3819   14.1924 C.ar      1 MOL     0.0103
     11 C          22.0585   13.4104   12.9374 C.ar      1 MOL     0.0106
     12 C          20.8743   12.7583   12.7210 C.ar      1 MOL     0.0736
     13 C          20.1238   11.9385   13.6633 C.3       1 MOL     0.0925
     14 C          18.9749   12.7028   14.2229 C.ar      1 MOL    -0.0406
     15 C          18.0562   11.9502   14.9761 C.ar      1 MOL     0.0196
     16 C          16.9566   12.5650   15.5254 C.ar      1 MOL     0.0723
     17 C          15.9699   11.7993   16.3201 C.2       1 MOL     0.2495
     18 C          14.8805   11.4041   18.4937 C.3       1 MOL     0.1268
     19 C          15.2577   11.3755   19.9593 C.3       1 MOL     0.1265
     20 C          17.2597   12.7873   19.5865 C.3       1 MOL     0.1265
     21 C          16.6481   13.1692   18.2631 C.3       1 MOL     0.1268
     22 C          17.5042   10.5401   20.6262 C.2       1 MOL     0.2187
     23 C          17.0843    9.2344   21.1419 C.3       1 MOL     0.0752
     24 C          15.9504    9.2456   22.1421 C.3       1 MOL     0.0134
     25 C          17.3004    8.8676   22.5662 C.3       1 MOL     0.0134
     26 C          16.6919   13.9063   15.3813 C.ar      1 MOL     0.1355
     27 C          17.5918   14.6420   14.6438 C.ar      1 MOL     0.0392
     28 C          18.7143   14.0177   14.0811 C.ar      1 MOL     0.0066
     29 O          22.7513   14.7770    9.7968 O.2       1 MOL    -0.2658
     30 O          18.7621   10.7808   20.6953 O.2       1 MOL    -0.2753
     31 O          15.2684   10.8911   15.8184 O.2       1 MOL    -0.2699
     32 F          15.5849   14.4702   15.9462 F         1 MOL    -0.2047
     33 H          24.3934   15.2953   11.4451 H         1 MOL     0.0625
     34 H          25.3497   15.2433   13.6808 H         1 MOL     0.0618
     35 H          24.1723   14.0212   15.3863 H         1 MOL     0.0618
     36 H          22.1157   12.8686   14.9511 H         1 MOL     0.0624
     37 H          20.7699   11.6388   14.4619 H         1 MOL     0.0377
     38 H          19.7470   11.0788   13.1492 H         1 MOL     0.0377
     39 H          18.2071   10.9390   15.1156 H         1 MOL     0.0629
     40 H          14.8205   10.3974   18.1354 H         1 MOL     0.0480
     41 H          13.9407   11.9100   18.4113 H         1 MOL     0.0480
     42 H          14.9604   10.4419   20.3886 H         1 MOL     0.0480
     43 H          14.7627   12.1710   20.4766 H         1 MOL     0.0480
     44 H          18.3158   12.6679   19.4640 H         1 MOL     0.0480
     45 H          17.0556   13.5613   20.2966 H         1 MOL     0.0480
     46 H          17.4360   13.3933   17.5745 H         1 MOL     0.0480
     47 H          16.0154   14.0140   18.4339 H         1 MOL     0.0480
     48 H          17.3167    8.7559   20.2138 H         1 MOL     0.0394
     49 H          15.1799    8.5051   22.0860 H         1 MOL     0.0273
     50 H          15.2303    9.9695   22.4620 H         1 MOL     0.0273
     51 H          17.5094    7.8511   22.8271 H         1 MOL     0.0273
     52 H          17.9643    9.2072   23.3325 H         1 MOL     0.0273
     53 H          17.4400   15.6539   14.5055 H         1 MOL     0.0646
     54 H          19.3733   14.5923   13.5324 H         1 MOL     0.0621
     55 H          20.5747   13.5186    9.6087 H         1 MOL     0.1921
@<TRIPOS>BOND
     1    1   18 1 
     2    1   21 1 
     3    1   17 am
     4    2   20 1 
     5    2   22 am
     6    2   19 1 
     7    3    4 ar
     8    3   12 ar
     9    4   55 1 
    10    4    5 ar
    11    5    6 ar
    12    5   29 2 
    13    6    7 ar
    14    6   11 ar
    15    7    8 ar
    16    7   33 1 
    17    8    9 ar
    18    8   34 1 
    19    9   10 ar
    20    9   35 1 
    21   10   11 ar
    22   10   36 1 
    23   11   12 ar
    24   12   13 1 
    25   13   14 1 
    26   13   37 1 
    27   13   38 1 
    28   14   15 ar
    29   14   28 ar
    30   15   16 ar
    31   15   39 1 
    32   16   17 1 
    33   16   26 ar
    34   17   31 2 
    35   18   19 1 
    36   18   40 1 
    37   18   41 1 
    38   19   42 1 
    39   19   43 1 
    40   20   21 1 
    41   20   44 1 
    42   20   45 1 
    43   21   46 1 
    44   21   47 1 
    45   22   23 1 
    46   22   30 2 
    47   23   24 1 
    48   23   25 1 
    49   23   48 1 
    50   24   25 1 
    51   24   49 1 
    52   24   50 1 
    53   25   51 1 
    54   25   52 1 
    55   26   27 ar
    56   26   32 1 
    57   27   28 ar
    58   27   53 1 
    59   28   54 1 
@<TRIPOS>SUBSTRUCTURE
1 MOL         1
@<TRIPOS>MOLECULE
query molecule
   55    59     1     0     0
SMALL
NO_CHARGE

@<TRIPOS>ATOM
      1 N           0.0650   -3.4008   32.7625 N.am      1 MOL    -0.2945
      2 N          -1.1372   -4.3214   30.6517 N.am      1 MOL    -0.2983
      3 N           4.8238   -1.5228   35.9574 N.ar      1 MOL    -0.1750
      4 N           5.0174   -1.1658   37.2039 N.ar      1 MOL    -0.2425
      5 C           5.8404   -0.1710   37.5643 C.ar      1 MOL     0.2725
      6 C           6.5216    0.5159   36.5805 C.ar      1 MOL     0.0496
      7 C           7.4057    1.5466   36.9017 C.ar      1 MOL     0.0138
      8 C           8.0916    2.2047   35.9038 C.ar      1 MOL     0.0008
      9 C           7.8583    1.7933   34.6086 C.ar      1 MOL     0.0007
     10 C           6.9843    0.7720   34.2754 C.ar      1 MOL     0.0103
     11 C           6.3086    0.1289   35.2703 C.ar      1 MOL     0.0106
     12 C           5.4617   -0.8899   34.9251 C.ar      1 MOL     0.0736
     13 C           5.1087   -1.3392   33.5847 C.3       1 MOL     0.0925
     14 C           3.7530   -0.8511   33.2089 C.ar      1 MOL    -0.0406
     15 C           2.6881   -1.7094   33.5360 C.ar      1 MOL     0.0196
     16 C           1.3996   -1.3509   33.2199 C.ar      1 MOL     0.0723
     17 C           0.2579   -2.2342   33.5479 C.2       1 MOL     0.2495
     18 C          -1.0219   -4.2795   33.0514 C.3       1 MOL     0.1268
     19 C          -1.4790   -5.0613   31.8386 C.3       1 MOL     0.1265
     20 C           0.2890   -4.0838   30.4036 C.3       1 MOL     0.1265
     21 C           0.9864   -3.6745   31.6753 C.3       1 MOL     0.1268
     22 C          -2.1029   -3.8406   29.7626 C.2       1 MOL     0.2187
     23 C          -3.5566   -3.9832   29.8788 C.3       1 MOL     0.0752
     24 C          -4.3490   -3.7959   28.6048 C.3       1 MOL     0.0134
     25 C          -4.4584   -2.8169   29.6887 C.3       1 MOL     0.0134
     26 C           1.0779   -0.1734   32.5875 C.ar      1 MOL     0.1355
     27 C           2.1211    0.6659   32.2678 C.ar      1 MOL     0.0392
     28 C           3.4371    0.3028   32.5879 C.ar      1 MOL     0.0066
     29 O           6.0381    0.1867   38.7537 O.2       1 MOL    -0.2658
     30 O          -1.6932   -3.2026   28.7280 O.2       1 MOL    -0.2753
     31 O          -0.5320   -1.9840   34.4872 O.2       1 MOL    -0.2699
     32 F          -0.2184    0.1371   32.2943 F         1 MOL    -0.2047
     33 H           7.5460    1.8170   37.8877 H         1 MOL     0.0625
     34 H           8.7497    2.9696   36.1163 H         1 MOL     0.0618
     35 H           8.3626    2.2719   33.8465 H         1 MOL     0.0618
     36 H           6.8454    0.5013   33.2891 H         1 MOL     0.0624
     37 H           5.1177   -2.4089   33.5580 H         1 MOL     0.0377
     38 H           5.8208   -0.9453   32.8897 H         1 MOL     0.0377
     39 H           2.8737   -2.6060   34.0116 H         1 MOL     0.0629
     40 H          -1.8442   -3.6989   33.4150 H         1 MOL     0.0480
     41 H          -0.6821   -4.9846   33.7817 H         1 MOL     0.0480
     42 H          -2.5383   -5.2037   31.8813 H         1 MOL     0.0480
     43 H          -0.9984   -6.0175   31.8215 H         1 MOL     0.0480
     44 H           0.3958   -3.3048   29.6780 H         1 MOL     0.0480
     45 H           0.7331   -4.9879   30.0427 H         1 MOL     0.0480
     46 H           1.5574   -2.7902   31.4826 H         1 MOL     0.0480
     47 H           1.6062   -4.4912   31.9786 H         1 MOL     0.0480
     48 H          -3.4562   -4.7201   30.6477 H         1 MOL     0.0394
     49 H          -5.1706   -4.4455   28.3852 H         1 MOL     0.0273
     50 H          -4.1081   -3.7498   27.5633 H         1 MOL     0.0273
     51 H          -5.3652   -2.7492   30.2527 H         1 MOL     0.0273
     52 H          -4.3324   -1.7570   29.7525 H         1 MOL     0.0273
     53 H           1.9339    1.5632   31.7923 H         1 MOL     0.0646
     54 H           4.2009    0.9502   32.3367 H         1 MOL     0.0621
     55 H           4.5336   -1.6524   37.9104 H         1 MOL     0.1921
@<TRIPOS>BOND
     1    1   18 1 
     2    1   21 1 
     3    1   17 am
     4    2   20 1 
     5    2   22 am
     6    2   19 1 
     7    3    4 ar
     8    3   12 ar
     9    4   55 1 
    10    4    5 ar
    11    5    6 ar
    12    5   29 2 
    13    6    7 ar
    14    6   11 ar
    15    7    8 ar
    16    7   33 1 
    17    8    9 ar
    18    8   34 1 
    19    9   10 ar
    20    9   35 1 
    21   10   11 ar
    22   10   36 1 
    23   11   12 ar
    24   12   13 1 
    25   13   14 1 
    26   13   37 1 
    27   13   38 1 
    28   14   15 ar
    29   14   28 ar
    30   15   16 ar
    31   15   39 1 
    32   16   17 1 
    33   16   26 ar
    34   17   31 2 
    35   18   19 1 
    36   18   40 1 
    37   18   41 1 
    38   19   42 1 
    39   19   43 1 
    40   20   21 1 
    41   20   44 1 
    42   20   45 1 
    43   21   46 1 
    44   21   47 1 
    45   22   23 1 
    46   22   30 2 
    47   23   24 1 
    48   23   25 1 
    49   23   48 1 
    50   24   25 1 
    51   24   49 1 
    52   24   50 1 
    53   25   51 1 
    54   25   52 1 
    55   26   27 ar
    56   26   32 1 
    57   27   28 ar
    58   27   53 1 
    59   28   54 1 
@<TRIPOS>SUBSTRUCTURE
1 MOL         1
@<TRIPOS>MOLECULE
query molecule
   55    59     1     0     0
SMALL
NO_CHARGE

@<TRIPOS>ATOM
      1 N           0.4148   -4.7684   16.3199 N.am      1 MOL    -0.2945
      2 N           1.7348   -5.9792   18.2013 N.am      1 MOL    -0.2983
      3 N           5.1767   -3.5767   13.8892 N.ar      1 MOL    -0.1750
      4 N           6.1290   -3.3560   14.7627 N.ar      1 MOL    -0.2425
      5 C           7.1834   -4.1683   14.9217 C.ar      1 MOL     0.2725
      6 C           7.2784   -5.2949   14.1308 C.ar      1 MOL     0.0496
      7 C           8.3445   -6.1845   14.2688 C.ar      1 MOL     0.0138
      8 C           8.4075   -7.3147   13.4826 C.ar      1 MOL     0.0008
      9 C           7.3827   -7.5067   12.5803 C.ar      1 MOL     0.0007
     10 C           6.3187   -6.6327   12.4330 C.ar      1 MOL     0.0103
     11 C           6.2671   -5.5159   13.2141 C.ar      1 MOL     0.0106
     12 C           5.1994   -4.6714   13.0680 C.ar      1 MOL     0.0736
     13 C           4.1165   -4.7644   12.0976 C.3       1 MOL     0.0925
     14 C           2.9179   -4.0228   12.5779 C.ar      1 MOL    -0.0406
     15 C           2.1019   -4.7161   13.4896 C.ar      1 MOL     0.0196
     16 C           0.9665   -4.1185   13.9820 C.ar      1 MOL     0.0723
     17 C           0.0855   -4.8235   14.9402 C.2       1 MOL     0.2495
     18 C          -0.4134   -5.4317   17.2745 C.3       1 MOL     0.1268
     19 C           0.3402   -5.8282   18.5258 C.3       1 MOL     0.1265
     20 C           2.4405   -4.7841   17.7261 C.3       1 MOL     0.1265
     21 C           1.5959   -4.0319   16.7301 C.3       1 MOL     0.1268
     22 C           2.4065   -7.1990   18.3243 C.2       1 MOL     0.2187
     23 C           1.8406   -8.4758   18.7679 C.3       1 MOL     0.0752
     24 C           1.5614   -9.4936   17.6853 C.3       1 MOL     0.0134
     25 C           0.4523   -8.8653   18.4066 C.3       1 MOL     0.0134
     26 C           0.5682   -2.8506   13.6300 C.ar      1 MOL     0.1355
     27 C           1.3677   -2.1730   12.7375 C.ar      1 MOL     0.0392
     28 C           2.5263   -2.7802   12.2323 C.ar      1 MOL     0.0066
     29 O           8.1070   -3.9729   15.7527 O.2       1 MOL    -0.2658
     30 O           3.6524   -7.2250   18.0203 O.2       1 MOL    -0.2753
     31 O          -0.9293   -5.4587   14.5719 O.2       1 MOL    -0.2699
     32 F          -0.5692   -2.3010   14.1466 F         1 MOL    -0.2047
     33 H           9.0873   -5.9958   14.9599 H         1 MOL     0.0625
     34 H           9.1855   -7.9864   13.5659 H         1 MOL     0.0618
     35 H           7.4100   -8.3473   11.9830 H         1 MOL     0.0618
     36 H           5.5755   -6.8227   11.7424 H         1 MOL     0.0624
     37 H           3.8598   -5.7932   11.9538 H         1 MOL     0.0377
     38 H           4.4417   -4.3312   11.1746 H         1 MOL     0.0377
     39 H           2.3547   -5.6709   13.7878 H         1 MOL     0.0629
     40 H          -0.8169   -6.3142   16.8231 H         1 MOL     0.0480
     41 H          -1.1843   -4.7477   17.5641 H         1 MOL     0.0480
     42 H          -0.0447   -6.7539   18.8989 H         1 MOL     0.0480
     43 H           0.2214   -5.0732   19.2751 H         1 MOL     0.0480
     44 H           3.3568   -5.0780   17.2587 H         1 MOL     0.0480
     45 H           2.6402   -4.1450   18.5608 H         1 MOL     0.0480
     46 H           2.1891   -3.8298   15.8627 H         1 MOL     0.0480
     47 H           1.2641   -3.1330   17.2047 H         1 MOL     0.0480
     48 H           2.3768   -8.4302   19.6925 H         1 MOL     0.0394
     49 H           1.7902  -10.5260   17.8494 H         1 MOL     0.0273
     50 H           1.8336   -9.5978   16.6557 H         1 MOL     0.0273
     51 H          -0.1317   -9.4450   19.0906 H         1 MOL     0.0273
     52 H          -0.4213   -8.3256   18.1086 H         1 MOL     0.0273
     53 H           1.1138   -1.2172   12.4404 H         1 MOL     0.0646
     54 H           3.1079   -2.2502   11.5641 H         1 MOL     0.0621
     55 H           6.0668   -2.5533   15.3298 H         1 MOL     0.1921
@<TRIPOS>BOND
     1    1   18 1 
     2    1   21 1 
     3    1   17 am
     4    2   20 1 
     5    2   22 am
     6    2   19 1 
     7    3    4 ar
     8    3   12 ar
     9    4   55 1 
    10    4    5 ar
    11    5    6 ar
    12    5   29 2 
    13    6    7 ar
    14    6   11 ar
    15    7    8 ar
    16    7   33 1 
    17    8    9 ar
    18    8   34 1 
    19    9   10 ar
    20    9   35 1 
    21   10   11 ar
    22   10   36 1 
    23   11   12 ar
    24   12   13 1 
    25   13   14 1 
    26   13   37 1 
    27   13   38 1 
    28   14   15 ar
    29   14   28 ar
    30   15   16 ar
    31   15   39 1 
    32   16   17 1 
    33   16   26 ar
    34   17   31 2 
    35   18   19 1 
    36   18   40 1 
    37   18   41 1 
    38   19   42 1 
    39   19   43 1 
    40   20   21 1 
    41   20   44 1 
    42   20   45 1 
    43   21   46 1 
    44   21   47 1 
    45   22   23 1 
    46   22   30 2 
    47   23   24 1 
    48   23   25 1 
    49   23   48 1 
    50   24   25 1 
    51   24   49 1 
    52   24   50 1 
    53   25   51 1 
    54   25   52 1 
    55   26   27 ar
    56   26   32 1 
    57   27   28 ar
    58   27   53 1 
    59   28   54 1 
@<TRIPOS>SUBSTRUCTURE
1 MOL         1
@<TRIPOS>MOLECULE
query molecule
   55    59     1     0     0
SMALL
NO_CHARGE

@<TRIPOS>ATOM
      1 N          38.4402  -19.2893   10.5246 N.am      1 MOL    -0.2945
      2 N          40.0556  -17.4318   11.3544 N.am      1 MOL    -0.2983
      3 N          36.7647  -21.6330   13.7636 N.ar      1 MOL    -0.1750
      4 N          37.4300  -22.7497   13.9340 N.ar      1 MOL    -0.2425
      5 C          37.3061  -23.5202   15.0239 C.ar      1 MOL     0.2725
      6 C          36.4376  -23.1251   16.0206 C.ar      1 MOL     0.0496
      7 C          36.2855  -23.8794   17.1847 C.ar      1 MOL     0.0138
      8 C          35.4281  -23.4543   18.1764 C.ar      1 MOL     0.0008
      9 C          34.7520  -22.2732   17.9546 C.ar      1 MOL     0.0007
     10 C          34.8935  -21.5145   16.8047 C.ar      1 MOL     0.0103
     11 C          35.7426  -21.9454   15.8284 C.ar      1 MOL     0.0106
     12 C          35.8841  -21.1745   14.7057 C.ar      1 MOL     0.0736
     13 C          35.1607  -19.9566   14.3646 C.3       1 MOL     0.0925
     14 C          34.9350  -19.8757   12.8950 C.ar      1 MOL    -0.0406
     15 C          36.0949  -19.7469   12.1103 C.ar      1 MOL     0.0196
     16 C          35.9884  -19.6544   10.7433 C.ar      1 MOL     0.0723
     17 C          37.1903  -19.5146    9.8905 C.2       1 MOL     0.2495
     18 C          39.6222  -19.1542    9.7360 C.3       1 MOL     0.1268
     19 C          40.6884  -18.3253   10.4194 C.3       1 MOL     0.1265
     20 C          39.3171  -18.0443   12.4642 C.3       1 MOL     0.1265
     21 C          38.4865  -19.2015   11.9723 C.3       1 MOL     0.1268
     22 C          40.1269  -16.0412   11.2301 C.2       1 MOL     0.2187
     23 C          40.8091  -15.2845   10.1770 C.3       1 MOL     0.0752
     24 C          40.5252  -13.8001   10.1318 C.3       1 MOL     0.0134
     25 C          40.0470  -14.6726    9.0570 C.3       1 MOL     0.0134
     26 C          34.7863  -19.6812   10.0768 C.ar      1 MOL     0.1355
     27 C          33.6516  -19.8072   10.8459 C.ar      1 MOL     0.0392
     28 C          33.7565  -19.9009   12.2411 C.ar      1 MOL     0.0066
     29 O          37.9344  -24.5946   15.2049 O.2       1 MOL    -0.2658
     30 O          39.5379  -15.3336   12.1231 O.2       1 MOL    -0.2753
     31 O          37.1355  -19.5890    8.6414 O.2       1 MOL    -0.2699
     32 F          34.7330  -19.5850    8.7165 F         1 MOL    -0.2047
     33 H          36.8151  -24.7572   17.3031 H         1 MOL     0.0625
     34 H          35.2986  -23.9947   19.0450 H         1 MOL     0.0618
     35 H          34.1062  -21.9363   18.6850 H         1 MOL     0.0618
     36 H          34.3644  -20.6361   16.6875 H         1 MOL     0.0624
     37 H          35.7309  -19.1080   14.6805 H         1 MOL     0.0377
     38 H          34.2111  -19.9693   14.8581 H         1 MOL     0.0377
     39 H          37.0233  -19.7217   12.5597 H         1 MOL     0.0629
     40 H          39.3639  -18.6844    8.8097 H         1 MOL     0.0480
     41 H          40.0230  -20.1351    9.5838 H         1 MOL     0.0480
     42 H          41.2267  -17.7591    9.6886 H         1 MOL     0.0480
     43 H          41.3712  -18.9675   10.9359 H         1 MOL     0.0480
     44 H          38.6736  -17.3127   12.9060 H         1 MOL     0.0480
     45 H          40.0171  -18.4058   13.1883 H         1 MOL     0.0480
     46 H          37.4876  -19.0851   12.3381 H         1 MOL     0.0480
     47 H          38.9413  -20.0993   12.3333 H         1 MOL     0.0480
     48 H          41.6638  -15.9261   10.2235 H         1 MOL     0.0394
     49 H          41.3205  -13.1085    9.9461 H         1 MOL     0.0273
     50 H          40.0691  -13.0960   10.7960 H         1 MOL     0.0273
     51 H          40.4903  -14.6089    8.0852 H         1 MOL     0.0273
     52 H          39.0909  -14.8572    8.6154 H         1 MOL     0.0273
     53 H          32.7231  -19.8329   10.3949 H         1 MOL     0.0646
     54 H          32.8901  -19.9943   12.7943 H         1 MOL     0.0621
     55 H          38.0511  -23.0369   13.2258 H         1 MOL     0.1921
@<TRIPOS>BOND
     1    1   18 1 
     2    1   21 1 
     3    1   17 am
     4    2   20 1 
     5    2   22 am
     6    2   19 1 
     7    3    4 ar
     8    3   12 ar
     9    4   55 1 
    10    4    5 ar
    11    5    6 ar
    12    5   29 2 
    13    6    7 ar
    14    6   11 ar
    15    7    8 ar
    16    7   33 1 
    17    8    9 ar
    18    8   34 1 
    19    9   10 ar
    20    9   35 1 
    21   10   11 ar
    22   10   36 1 
    23   11   12 ar
    24   12   13 1 
    25   13   14 1 
    26   13   37 1 
    27   13   38 1 
    28   14   15 ar
    29   14   28 ar
    30   15   16 ar
    31   15   39 1 
    32   16   17 1 
    33   16   26 ar
    34   17   31 2 
    35   18   19 1 
    36   18   40 1 
    37   18   41 1 
    38   19   42 1 
    39   19   43 1 
    40   20   21 1 
    41   20   44 1 
    42   20   45 1 
    43   21   46 1 
    44   21   47 1 
    45   22   23 1 
    46   22   30 2 
    47   23   24 1 
    48   23   25 1 
    49   23   48 1 
    50   24   25 1 
    51   24   49 1 
    52   24   50 1 
    53   25   51 1 
    54   25   52 1 
    55   26   27 ar
    56   26   32 1 
    57   27   28 ar
    58   27   53 1 
    59   28   54 1 
@<TRIPOS>SUBSTRUCTURE
1 MOL         1
@<TRIPOS>MOLECULE
query molecule
   55    59     1     0     0
SMALL
NO_CHARGE

@<TRIPOS>ATOM
      1 N           8.8801  -19.1036   34.5326 N.am      1 MOL    -0.2945
      2 N           9.4547  -21.0631   36.1383 N.am      1 MOL    -0.2983
      3 N          13.3637  -17.6612   35.8983 N.ar      1 MOL    -0.1750
      4 N          13.5939  -18.0224   37.1373 N.ar      1 MOL    -0.2425
      5 C          14.7009  -17.6775   37.8100 C.ar      1 MOL     0.2725
      6 C          15.6502  -16.9044   37.1737 C.ar      1 MOL     0.0496
      7 C          16.8297  -16.5340   37.8208 C.ar      1 MOL     0.0138
      8 C          17.7736  -15.7792   37.1582 C.ar      1 MOL     0.0008
      9 C          17.4896  -15.4253   35.8562 C.ar      1 MOL     0.0007
     10 C          16.3238  -15.7861   35.2017 C.ar      1 MOL     0.0103
     11 C          15.3951  -16.5308   35.8671 C.ar      1 MOL     0.0106
     12 C          14.2561  -16.8938   35.1997 C.ar      1 MOL     0.0736
     13 C          13.8500  -16.5068   33.8549 C.3       1 MOL     0.0925
     14 C          12.3853  -16.2433   33.8056 C.ar      1 MOL    -0.0406
     15 C          11.5715  -17.3769   33.6317 C.ar      1 MOL     0.0196
     16 C          10.2063  -17.2343   33.5634 C.ar      1 MOL     0.0723
     17 C           9.3233  -18.4078   33.3774 C.2       1 MOL     0.2495
     18 C           8.0238  -20.2369   34.3937 C.3       1 MOL     0.1268
     19 C           8.1500  -21.2089   35.5471 C.3       1 MOL     0.1265
     20 C           9.7729  -19.7614   36.7352 C.3       1 MOL     0.1265
     21 C           9.3119  -18.6413   35.8386 C.3       1 MOL     0.1268
     22 C          10.3922  -22.1001   36.1536 C.2       1 MOL     0.2187
     23 C          10.2301  -23.4429   35.5901 C.3       1 MOL     0.0752
     24 C           9.9289  -24.5483   36.5769 C.3       1 MOL     0.0134
     25 C          11.2153  -24.5183   35.8773 C.3       1 MOL     0.0134
     26 C           9.5693  -16.0197   33.6579 C.ar      1 MOL     0.1355
     27 C          10.3668  -14.9107   33.8280 C.ar      1 MOL     0.0392
     28 C          11.7602  -15.0526   33.8971 C.ar      1 MOL     0.0066
     29 O          14.9389  -18.0131   38.9985 O.2       1 MOL    -0.2658
     30 O          11.5222  -21.8715   36.7157 O.2       1 MOL    -0.2753
     31 O           8.9611  -18.7982   32.2438 O.2       1 MOL    -0.2699
     32 F           8.2094  -15.9302   33.5834 F         1 MOL    -0.2047
     33 H          16.9954  -16.8248   38.7969 H         1 MOL     0.0625
     34 H          18.6524  -15.4929   37.6154 H         1 MOL     0.0618
     35 H          18.1835  -14.8614   35.3417 H         1 MOL     0.0618
     36 H          16.1592  -15.4958   34.2249 H         1 MOL     0.0624
     37 H          14.0888  -17.2968   33.1738 H         1 MOL     0.0377
     38 H          14.3697  -15.6121   33.5814 H         1 MOL     0.0377
     39 H          11.9982  -18.3132   33.5552 H         1 MOL     0.0629
     40 H           8.2748  -20.7467   33.4867 H         1 MOL     0.0480
     41 H           7.0146  -19.8799   34.3805 H         1 MOL     0.0480
     42 H           8.0269  -22.2093   35.1890 H         1 MOL     0.0480
     43 H           7.3952  -21.0043   36.2778 H         1 MOL     0.0480
     44 H          10.8309  -19.6867   36.8750 H         1 MOL     0.0480
     45 H           9.2694  -19.6793   37.6758 H         1 MOL     0.0480
     46 H          10.1218  -17.9546   35.7057 H         1 MOL     0.0480
     47 H           8.4704  -18.1792   36.3092 H         1 MOL     0.0480
     48 H           9.8092  -23.0500   34.6886 H         1 MOL     0.0394
     49 H           9.2054  -25.2989   36.3353 H         1 MOL     0.0273
     50 H           9.6242  -24.5858   37.6019 H         1 MOL     0.0273
     51 H          11.4307  -25.2545   35.1312 H         1 MOL     0.0273
     52 H          12.2368  -24.5307   36.1930 H         1 MOL     0.0273
     53 H           9.9385  -13.9744   33.9051 H         1 MOL     0.0646
     54 H          12.3351  -14.2048   34.0247 H         1 MOL     0.0621
     55 H          12.9197  -18.5740   37.5967 H         1 MOL     0.1921
@<TRIPOS>BOND
     1    1   18 1 
     2    1   21 1 
     3    1   17 am
     4    2   20 1 
     5    2   22 am
     6    2   19 1 
     7    3    4 ar
     8    3   12 ar
     9    4   55 1 
    10    4    5 ar
    11    5    6 ar
    12    5   29 2 
    13    6    7 ar
    14    6   11 ar
    15    7    8 ar
    16    7   33 1 
    17    8    9 ar
    18    8   34 1 
    19    9   10 ar
    20    9   35 1 
    21   10   11 ar
    22   10   36 1 
    23   11   12 ar
    24   12   13 1 
    25   13   14 1 
    26   13   37 1 
    27   13   38 1 
    28   14   15 ar
    29   14   28 ar
    30   15   16 ar
    31   15   39 1 
    32   16   17 1 
    33   16   26 ar
    34   17   31 2 
    35   18   19 1 
    36   18   40 1 
    37   18   41 1 
    38   19   42 1 
    39   19   43 1 
    40   20   21 1 
    41   20   44 1 
    42   20   45 1 
    43   21   46 1 
    44   21   47 1 
    45   22   23 1 
    46   22   30 2 
    47   23   24 1 
    48   23   25 1 
    49   23   48 1 
    50   24   25 1 
    51   24   49 1 
    52   24   50 1 
    53   25   51 1 
    54   25   52 1 
    55   26   27 ar
    56   26   32 1 
    57   27   28 ar
    58   27   53 1 
    59   28   54 1 
@<TRIPOS>SUBSTRUCTURE
1 MOL         1
@<TRIPOS>MOLECULE
query molecule
   55    59     1     0     0
SMALL
NO_CHARGE

@<TRIPOS>ATOM
      1 N           7.6547  -14.8851    9.3139 N.am      1 MOL    -0.2945
      2 N           9.5972  -16.2284   10.3959 N.am      1 MOL    -0.2983
      3 N           7.3688  -16.7602    2.7745 N.ar      1 MOL    -0.1750
      4 N           6.7458  -17.1682    1.6956 N.ar      1 MOL    -0.2425
      5 C           6.9783  -16.6615    0.4766 C.ar      1 MOL     0.2725
      6 C           7.9181  -15.6603    0.3423 C.ar      1 MOL     0.0496
      7 C           8.1845  -15.0839   -0.9003 C.ar      1 MOL     0.0138
      8 C           9.1122  -14.0702   -1.0072 C.ar      1 MOL     0.0008
      9 C           9.7400  -13.6722    0.1541 C.ar      1 MOL     0.0007
     10 C           9.4852  -14.2349    1.3936 C.ar      1 MOL     0.0103
     11 C           8.5674  -15.2391    1.4881 C.ar      1 MOL     0.0106
     12 C           8.3146  -15.7723    2.7235 C.ar      1 MOL     0.0736
     13 C           8.9788  -15.4584    3.9819 C.3       1 MOL     0.0925
     14 C           8.1083  -14.6023    4.8342 C.ar      1 MOL    -0.0406
     15 C           7.8048  -15.1227    6.1050 C.ar      1 MOL     0.0196
     16 C           6.9994  -14.4102    6.9608 C.ar      1 MOL     0.0723
     17 C           6.6590  -14.9327    8.3033 C.2       1 MOL     0.2495
     18 C           7.3624  -15.3751   10.6222 C.3       1 MOL     0.1268
     19 C           8.5980  -15.8453   11.3592 C.3       1 MOL     0.1265
     20 C          10.0961  -15.1783    9.5014 C.3       1 MOL     0.1265
     21 C           8.9574  -14.3341    8.9896 C.3       1 MOL     0.1268
     22 C          10.0838  -17.5353   10.2982 C.2       1 MOL     0.2187
     23 C           9.6776  -18.6895   11.1045 C.3       1 MOL     0.0752
     24 C          10.2660  -18.7720   12.4948 C.3       1 MOL     0.0134
     25 C          10.6539  -19.7478   11.4738 C.3       1 MOL     0.0134
     26 C           6.4577  -13.1870    6.6438 C.ar      1 MOL     0.1355
     27 C           6.7554  -12.6786    5.3997 C.ar      1 MOL     0.0392
     28 C           7.5761  -13.4034    4.5237 C.ar      1 MOL     0.0066
     29 O           6.3921  -17.0404   -0.5697 O.2       1 MOL    -0.2658
     30 O          10.9823  -17.7705    9.4136 O.2       1 MOL    -0.2753
     31 O           5.5314  -15.4091    8.5686 O.2       1 MOL    -0.2699
     32 F           5.6624  -12.5185    7.5289 F         1 MOL    -0.2047
     33 H           7.6869  -15.4174   -1.7406 H         1 MOL     0.0625
     34 H           9.3263  -13.6292   -1.9143 H         1 MOL     0.0618
     35 H          10.4370  -12.9139    0.0965 H         1 MOL     0.0618
     36 H           9.9825  -13.9001    2.2339 H         1 MOL     0.0624
     37 H           9.8922  -14.9394    3.7783 H         1 MOL     0.0377
     38 H           9.1797  -16.3711    4.5033 H         1 MOL     0.0377
     39 H           8.1855  -16.0371    6.3939 H         1 MOL     0.0629
     40 H           6.6813  -16.1962   10.5360 H         1 MOL     0.0480
     41 H           6.9391  -14.5672   11.1827 H         1 MOL     0.0480
     42 H           8.3514  -16.6844   11.9750 H         1 MOL     0.0480
     43 H           8.9733  -15.0565   11.9776 H         1 MOL     0.0480
     44 H          10.5984  -15.6305    8.6721 H         1 MOL     0.0480
     45 H          10.7719  -14.5520   10.0455 H         1 MOL     0.0480
     46 H           9.0394  -14.2586    7.9253 H         1 MOL     0.0480
     47 H           9.0280  -13.3784    9.4638 H         1 MOL     0.0480
     48 H           8.7080  -18.7057   10.6528 H         1 MOL     0.0394
     49 H           9.6529  -19.0739   13.3184 H         1 MOL     0.0273
     50 H          10.7922  -18.0956   13.1356 H         1 MOL     0.0273
     51 H          10.3287  -20.7636   11.5602 H         1 MOL     0.0273
     52 H          11.5888  -20.0749   11.0712 H         1 MOL     0.0273
     53 H           6.3742  -11.7631    5.1120 H         1 MOL     0.0646
     54 H           7.7834  -12.9997    3.5965 H         1 MOL     0.0621
     55 H           6.0742  -17.8828    1.7853 H         1 MOL     0.1921
@<TRIPOS>BOND
     1    1   18 1 
     2    1   21 1 
     3    1   17 am
     4    2   20 1 
     5    2   22 am
     6    2   19 1 
     7    3    4 ar
     8    3   12 ar
     9    4   55 1 
    10    4    5 ar
    11    5    6 ar
    12    5   29 2 
    13    6    7 ar
    14    6   11 ar
    15    7    8 ar
    16    7   33 1 
    17    8    9 ar
    18    8   34 1 
    19    9   10 ar
    20    9   35 1 
    21   10   11 ar
    22   10   36 1 
    23   11   12 ar
    24   12   13 1 
    25   13   14 1 
    26   13   37 1 
    27   13   38 1 
    28   14   15 ar
    29   14   28 ar
    30   15   16 ar
    31   15   39 1 
    32   16   17 1 
    33   16   26 ar
    34   17   31 2 
    35   18   19 1 
    36   18   40 1 
    37   18   41 1 
    38   19   42 1 
    39   19   43 1 
    40   20   21 1 
    41   20   44 1 
    42   20   45 1 
    43   21   46 1 
    44   21   47 1 
    45   22   23 1 
    46   22   30 2 
    47   23   24 1 
    48   23   25 1 
    49   23   48 1 
    50   24   25 1 
    51   24   49 1 
    52   24   50 1 
    53   25   51 1 
    54   25   52 1 
    55   26   27 ar
    56   26   32 1 
    57   27   28 ar
    58   27   53 1 
    59   28   54 1 
@<TRIPOS>SUBSTRUCTURE
1 MOL         1
@<TRIPOS>MOLECULE
query molecule
   55    59     1     0     0
SMALL
NO_CHARGE

@<TRIPOS>ATOM
      1 N           0.5311    1.2203   35.4509 N.am      1 MOL    -0.2945
      2 N           1.2666    3.0721   33.7841 N.am      1 MOL    -0.2983
      3 N           5.3324   -0.0699   34.5237 N.ar      1 MOL    -0.1750
      4 N           5.6211   -0.0981   33.2452 N.ar      1 MOL    -0.2425
      5 C           6.5122   -0.9453   32.7114 C.ar      1 MOL     0.2725
      6 C           7.1626   -1.8346   33.5420 C.ar      1 MOL     0.0496
      7 C           8.1139   -2.7243   33.0416 C.ar      1 MOL     0.0138
      8 C           8.7666   -3.5891   33.8934 C.ar      1 MOL     0.0008
      9 C           8.4327   -3.5216   35.2295 C.ar      1 MOL     0.0007
     10 C           7.4911   -2.6437   35.7399 C.ar      1 MOL     0.0103
     11 C           6.8491   -1.7939   34.8881 C.ar      1 MOL     0.0106
     12 C           5.9339   -0.9203   35.4115 C.ar      1 MOL     0.0736
     13 C           5.4760   -0.8312   36.7918 C.3       1 MOL     0.0925
     14 C           4.0407   -1.2149   36.8932 C.ar      1 MOL    -0.0406
     15 C           3.1212   -0.1579   36.7709 C.ar      1 MOL     0.0196
     16 C           1.7734   -0.4107   36.8611 C.ar      1 MOL     0.0723
     17 C           0.7809    0.6809   36.7399 C.2       1 MOL     0.2495
     18 C          -0.4225    2.2706   35.2935 C.3       1 MOL     0.1268
     19 C          -0.1391    3.1405   34.0877 C.3       1 MOL     0.1265
     20 C           1.8028    1.7595   33.4080 C.3       1 MOL     0.1265
     21 C           1.2574    0.6857   34.3141 C.3       1 MOL     0.1268
     22 C           2.1021    4.1915   33.8395 C.2       1 MOL     0.2187
     23 C           1.7218    5.5575   34.2092 C.3       1 MOL     0.0752
     24 C           1.5362    5.8215   35.6863 C.3       1 MOL     0.0134
     25 C           0.3828    5.8510   34.7842 C.3       1 MOL     0.0134
     26 C           1.2538   -1.6665   37.0684 C.ar      1 MOL     0.1355
     27 C           2.1548   -2.7003   37.1881 C.ar      1 MOL     0.0392
     28 C           3.5307   -2.4458   37.0975 C.ar      1 MOL     0.0066
     29 O           6.8014   -0.9883   31.4881 O.2       1 MOL    -0.2658
     30 O           3.3381    4.0263   33.5391 O.2       1 MOL    -0.2753
     31 O           0.1635    1.1354   37.7304 O.2       1 MOL    -0.2699
     32 F          -0.0938   -1.8661   37.1515 F         1 MOL    -0.2047
     33 H           8.3288   -2.7354   32.0323 H         1 MOL     0.0625
     34 H           9.4730   -4.2558   33.5472 H         1 MOL     0.0618
     35 H           8.9106   -4.1595   35.8845 H         1 MOL     0.0618
     36 H           7.2775   -2.6323   36.7496 H         1 MOL     0.0624
     37 H           5.5972    0.1737   37.1390 H         1 MOL     0.0377
     38 H           6.0545   -1.5027   37.3916 H         1 MOL     0.0377
     39 H           3.4576    0.8048   36.6141 H         1 MOL     0.0629
     40 H          -0.4045    2.8837   36.1705 H         1 MOL     0.0480
     41 H          -1.3813    1.8173   35.1473 H         1 MOL     0.0480
     42 H          -0.4120    4.1523   34.3026 H         1 MOL     0.0480
     43 H          -0.7089    2.7956   33.2499 H         1 MOL     0.0480
     44 H           2.8695    1.7781   33.4879 H         1 MOL     0.0480
     45 H           1.5117    1.5417   32.4017 H         1 MOL     0.0480
     46 H           2.0744    0.0983   34.6782 H         1 MOL     0.0480
     47 H           0.5700    0.1009   33.7409 H         1 MOL     0.0480
     48 H           2.2812    5.9690   33.3955 H         1 MOL     0.0394
     49 H           1.9019    6.7301   36.1177 H         1 MOL     0.0273
     50 H           1.7817    5.2966   36.5859 H         1 MOL     0.0273
     51 H          -0.0963    6.7826   34.5660 H         1 MOL     0.0273
     52 H          -0.5633    5.3532   34.7661 H         1 MOL     0.0273
     53 H           1.8168   -3.6634   37.3443 H         1 MOL     0.0646
     54 H           4.1848   -3.2388   37.1911 H         1 MOL     0.0621
     55 H           5.1598    0.5341   32.6475 H         1 MOL     0.1921
@<TRIPOS>BOND
     1    1   18 1 
     2    1   21 1 
     3    1   17 am
     4    2   20 1 
     5    2   22 am
     6    2   19 1 
     7    3    4 ar
     8    3   12 ar
     9    4   55 1 
    10    4    5 ar
    11    5    6 ar
    12    5   29 2 
    13    6    7 ar
    14    6   11 ar
    15    7    8 ar
    16    7   33 1 
    17    8    9 ar
    18    8   34 1 
    19    9   10 ar
    20    9   35 1 
    21   10   11 ar
    22   10   36 1 
    23   11   12 ar
    24   12   13 1 
    25   13   14 1 
    26   13   37 1 
    27   13   38 1 
    28   14   15 ar
    29   14   28 ar
    30   15   16 ar
    31   15   39 1 
    32   16   17 1 
    33   16   26 ar
    34   17   31 2 
    35   18   19 1 
    36   18   40 1 
    37   18   41 1 
    38   19   42 1 
    39   19   43 1 
    40   20   21 1 
    41   20   44 1 
    42   20   45 1 
    43   21   46 1 
    44   21   47 1 
    45   22   23 1 
    46   22   30 2 
    47   23   24 1 
    48   23   25 1 
    49   23   48 1 
    50   24   25 1 
    51   24   49 1 
    52   24   50 1 
    53   25   51 1 
    54   25   52 1 
    55   26   27 ar
    56   26   32 1 
    57   27   28 ar
    58   27   53 1 
    59   28   54 1 
@<TRIPOS>SUBSTRUCTURE
1 MOL         1
@<TRIPOS>MOLECULE
query molecule
   55    59     1     0     0
SMALL
NO_CHARGE

@<TRIPOS>ATOM
      1 N          28.8361   -8.8193   33.2784 N.am      1 MOL    -0.2945
      2 N          28.7834   -7.7628   35.6510 N.am      1 MOL    -0.2983
      3 N          25.3215  -13.8832   34.9282 N.ar      1 MOL    -0.1750
      4 N          24.1272  -13.5329   35.3401 N.ar      1 MOL    -0.2425
      5 C          23.9181  -12.6022   36.2819 C.ar      1 MOL     0.2725
      6 C          25.0087  -11.9776   36.8513 C.ar      1 MOL     0.0496
      7 C          24.8484  -11.0162   37.8499 C.ar      1 MOL     0.0138
      8 C          25.9532  -10.4208   38.4195 C.ar      1 MOL     0.0008
      9 C          27.1884  -10.8227   37.9569 C.ar      1 MOL     0.0007
     10 C          27.3622  -11.7755   36.9671 C.ar      1 MOL     0.0103
     11 C          26.2623  -12.3568   36.4081 C.ar      1 MOL     0.0106
     12 C          26.4523  -13.3095   35.4434 C.ar      1 MOL     0.0736
     13 C          27.7128  -13.7402   34.8529 C.3       1 MOL     0.0925
     14 C          27.9183  -13.0933   33.5275 C.ar      1 MOL    -0.0406
     15 C          27.9000  -11.6872   33.5306 C.ar      1 MOL     0.0196
     16 C          28.0706  -10.9989   32.3533 C.ar      1 MOL     0.0723
     17 C          28.0528   -9.5190   32.3234 C.2       1 MOL     0.2495
     18 C          28.8484   -7.3921   33.2778 C.3       1 MOL     0.1268
     19 C          29.1615   -6.8104   34.6396 C.3       1 MOL     0.1265
     20 C          29.4842   -9.0516   35.6463 C.3       1 MOL     0.1265
     21 C          29.6127   -9.5789   34.2404 C.3       1 MOL     0.1268
     22 C          27.7958   -7.4945   36.6033 C.2       1 MOL     0.2187
     23 C          27.0022   -6.2691   36.7286 C.3       1 MOL     0.0752
     24 C          27.5310   -5.2273   37.6882 C.3       1 MOL     0.0134
     25 C          26.2901   -5.9434   37.9921 C.3       1 MOL     0.0134
     26 C          28.2640  -11.6159   31.1401 C.ar      1 MOL     0.1355
     27 C          28.2817  -12.9924   31.1383 C.ar      1 MOL     0.0392
     28 C          28.1069  -13.6978   32.3376 C.ar      1 MOL     0.0066
     29 O          22.7808  -12.2519   36.6889 O.2       1 MOL    -0.2658
     30 O          27.5414   -8.4062   37.4690 O.2       1 MOL    -0.2753
     31 O          27.3749   -8.8758   31.4895 O.2       1 MOL    -0.2699
     32 F          28.4280  -10.8873   29.9978 F         1 MOL    -0.2047
     33 H          23.9015  -10.7500   38.1620 H         1 MOL     0.0625
     34 H          25.8601   -9.7076   39.1584 H         1 MOL     0.0618
     35 H          28.0285  -10.3903   38.3709 H         1 MOL     0.0618
     36 H          28.3096  -12.0421   36.6562 H         1 MOL     0.0624
     37 H          27.6983  -14.8028   34.7277 H         1 MOL     0.0377
     38 H          28.5139  -13.4547   35.5026 H         1 MOL     0.0377
     39 H          27.7585  -11.1736   34.4142 H         1 MOL     0.0629
     40 H          27.8857   -7.0415   32.9683 H         1 MOL     0.0480
     41 H          29.6194   -7.0758   32.6058 H         1 MOL     0.0480
     42 H          28.6129   -5.9025   34.7773 H         1 MOL     0.0480
     43 H          30.2084   -6.6001   34.7120 H         1 MOL     0.0480
     44 H          28.9340   -9.7544   36.2362 H         1 MOL     0.0480
     45 H          30.4640   -8.9145   36.0539 H         1 MOL     0.0480
     46 H          29.2754  -10.5943   34.2241 H         1 MOL     0.0480
     47 H          30.6410   -9.4957   33.9593 H         1 MOL     0.0480
     48 H          26.6996   -6.3207   35.7038 H         1 MOL     0.0394
     49 H          27.5000   -4.1908   37.4234 H         1 MOL     0.0273
     50 H          28.4587   -5.0684   38.1974 H         1 MOL     0.0273
     51 H          25.3553   -5.4237   37.9563 H         1 MOL     0.0273
     52 H          25.9452   -6.5186   38.8249 H         1 MOL     0.0273
     53 H          28.4240  -13.5051   30.2534 H         1 MOL     0.0646
     54 H          28.1241  -14.7295   32.3083 H         1 MOL     0.0621
     55 H          23.3450  -13.9750   34.9370 H         1 MOL     0.1921
@<TRIPOS>BOND
     1    1   18 1 
     2    1   21 1 
     3    1   17 am
     4    2   20 1 
     5    2   22 am
     6    2   19 1 
     7    3    4 ar
     8    3   12 ar
     9    4   55 1 
    10    4    5 ar
    11    5    6 ar
    12    5   29 2 
    13    6    7 ar
    14    6   11 ar
    15    7    8 ar
    16    7   33 1 
    17    8    9 ar
    18    8   34 1 
    19    9   10 ar
    20    9   35 1 
    21   10   11 ar
    22   10   36 1 
    23   11   12 ar
    24   12   13 1 
    25   13   14 1 
    26   13   37 1 
    27   13   38 1 
    28   14   15 ar
    29   14   28 ar
    30   15   16 ar
    31   15   39 1 
    32   16   17 1 
    33   16   26 ar
    34   17   31 2 
    35   18   19 1 
    36   18   40 1 
    37   18   41 1 
    38   19   42 1 
    39   19   43 1 
    40   20   21 1 
    41   20   44 1 
    42   20   45 1 
    43   21   46 1 
    44   21   47 1 
    45   22   23 1 
    46   22   30 2 
    47   23   24 1 
    48   23   25 1 
    49   23   48 1 
    50   24   25 1 
    51   24   49 1 
    52   24   50 1 
    53   25   51 1 
    54   25   52 1 
    55   26   27 ar
    56   26   32 1 
    57   27   28 ar
    58   27   53 1 
    59   28   54 1 
@<TRIPOS>SUBSTRUCTURE
1 MOL         1
@<TRIPOS>MOLECULE
query molecule
   55    59     1     0     0
SMALL
NO_CHARGE

@<TRIPOS>ATOM
      1 N           7.1612   12.6923   19.8228 N.am      1 MOL    -0.2945
      2 N           7.8875   12.9404   17.3410 N.am      1 MOL    -0.2983
      3 N           2.3343   13.5477   23.2194 N.ar      1 MOL    -0.1750
      4 N           2.2190   13.9409   24.4647 N.ar      1 MOL    -0.2425
      5 C           1.6416   13.1983   25.4197 C.ar      1 MOL     0.2725
      6 C           1.1408   11.9574   25.0833 C.ar      1 MOL     0.0496
      7 C           0.5123   11.1521   26.0339 C.ar      1 MOL     0.0138
      8 C           0.0005    9.9251   25.6704 C.ar      1 MOL     0.0008
      9 C           0.1423    9.5549   24.3498 C.ar      1 MOL     0.0007
     10 C           0.7632   10.3439   23.3959 C.ar      1 MOL     0.0103
     11 C           1.2685   11.5552   23.7666 C.ar      1 MOL     0.0106
     12 C           1.8636   12.3303   22.8076 C.ar      1 MOL     0.0736
     13 C           2.1137   11.9870   21.4138 C.3       1 MOL     0.0925
     14 C           3.3161   11.1165   21.2965 C.ar      1 MOL    -0.0406
     15 C           4.5416   11.7920   21.1572 C.ar      1 MOL     0.0196
     16 C           5.7070   11.0745   21.0314 C.ar      1 MOL     0.0723
     17 C           7.0121   11.7565   20.8798 C.2       1 MOL     0.2495
     18 C           8.4032   13.3734   19.6476 C.3       1 MOL     0.1268
     19 C           8.6349   13.8060   18.2158 C.3       1 MOL     0.1265
     20 C           6.4275   12.9514   17.4828 C.3       1 MOL     0.1265
     21 C           6.0370   12.9362   18.9383 C.3       1 MOL     0.1268
     22 C           8.5032   12.1177   16.3933 C.2       1 MOL     0.2187
     23 C           9.9408   11.9851   16.1425 C.3       1 MOL     0.0752
     24 C          10.7387   13.2693   16.1411 C.3       1 MOL     0.0134
     25 C          10.5537   12.5181   14.8975 C.3       1 MOL     0.0134
     26 C           5.7508    9.7005   21.0341 C.ar      1 MOL     0.1355
     27 C           4.5506    9.0403   21.1704 C.ar      1 MOL     0.0392
     28 C           3.3595    9.7692   21.2979 C.ar      1 MOL     0.0066
     29 O           1.5229   13.5575   26.6191 O.2       1 MOL    -0.2658
     30 O           7.7462   11.3923   15.6543 O.2       1 MOL    -0.2753
     31 O           7.9755   11.5337   21.6485 O.2       1 MOL    -0.2699
     32 F           6.9346    9.0335   20.9052 F         1 MOL    -0.2047
     33 H           0.4310   11.4752   27.0106 H         1 MOL     0.0625
     34 H          -0.4676    9.3123   26.3549 H         1 MOL     0.0618
     35 H          -0.2350    8.6407   24.0564 H         1 MOL     0.0618
     36 H           0.8432   10.0206   22.4190 H         1 MOL     0.0624
     37 H           2.2726   12.8845   20.8531 H         1 MOL     0.0377
     38 H           1.2665   11.4565   21.0315 H         1 MOL     0.0377
     39 H           4.5657   12.8235   21.1491 H         1 MOL     0.0629
     40 H           9.1972   12.7184   19.9407 H         1 MOL     0.0480
     41 H           8.3755   14.2566   20.2520 H         1 MOL     0.0480
     42 H           9.6771   13.7386   17.9843 H         1 MOL     0.0480
     43 H           8.3133   14.8186   18.0865 H         1 MOL     0.0480
     44 H           6.0198   12.0877   17.0007 H         1 MOL     0.0480
     45 H           6.0423   13.8422   17.0320 H         1 MOL     0.0480
     46 H           5.3115   12.1643   19.0895 H         1 MOL     0.0480
     47 H           5.6463   13.9027   19.1759 H         1 MOL     0.0480
     48 H           9.9720   11.0340   16.6312 H         1 MOL     0.0394
     49 H          11.7008   13.3022   16.6086 H         1 MOL     0.0273
     50 H          10.5536   14.2760   16.4533 H         1 MOL     0.0273
     51 H          11.3856   12.0106   14.4556 H         1 MOL     0.0273
     52 H          10.1794   12.7631   13.9263 H         1 MOL     0.0273
     53 H           4.5279    8.0080   21.1789 H         1 MOL     0.0646
     54 H           2.4733    9.2496   21.3984 H         1 MOL     0.0621
     55 H           2.5749   14.8256   24.7107 H         1 MOL     0.1921
@<TRIPOS>BOND
     1    1   18 1 
     2    1   21 1 
     3    1   17 am
     4    2   20 1 
     5    2   22 am
     6    2   19 1 
     7    3    4 ar
     8    3   12 ar
     9    4   55 1 
    10    4    5 ar
    11    5    6 ar
    12    5   29 2 
    13    6    7 ar
    14    6   11 ar
    15    7    8 ar
    16    7   33 1 
    17    8    9 ar
    18    8   34 1 
    19    9   10 ar
    20    9   35 1 
    21   10   11 ar
    22   10   36 1 
    23   11   12 ar
    24   12   13 1 
    25   13   14 1 
    26   13   37 1 
    27   13   38 1 
    28   14   15 ar
    29   14   28 ar
    30   15   16 ar
    31   15   39 1 
    32   16   17 1 
    33   16   26 ar
    34   17   31 2 
    35   18   19 1 
    36   18   40 1 
    37   18   41 1 
    38   19   42 1 
    39   19   43 1 
    40   20   21 1 
    41   20   44 1 
    42   20   45 1 
    43   21   46 1 
    44   21   47 1 
    45   22   23 1 
    46   22   30 2 
    47   23   24 1 
    48   23   25 1 
    49   23   48 1 
    50   24   25 1 
    51   24   49 1 
    52   24   50 1 
    53   25   51 1 
    54   25   52 1 
    55   26   27 ar
    56   26   32 1 
    57   27   28 ar
    58   27   53 1 
    59   28   54 1 
@<TRIPOS>SUBSTRUCTURE
1 MOL         1
@<TRIPOS>MOLECULE
query molecule
   55    59     1     0     0
SMALL
NO_CHARGE

@<TRIPOS>ATOM
      1 N          34.6658  -22.5284   10.3717 N.am      1 MOL    -0.2945
      2 N          35.0627  -22.1223   12.9066 N.am      1 MOL    -0.2983
      3 N          41.4206  -20.5167    8.4800 N.ar      1 MOL    -0.1750
      4 N          42.4940  -21.1902    8.1439 N.ar      1 MOL    -0.2425
      5 C          42.4786  -22.2136    7.2782 C.ar      1 MOL     0.2725
      6 C          41.2774  -22.5829    6.7087 C.ar      1 MOL     0.0496
      7 C          41.2016  -23.6536    5.8170 C.ar      1 MOL     0.0138
      8 C          39.9873  -24.0182    5.2767 C.ar      1 MOL     0.0008
      9 C          38.8858  -23.2833    5.6613 C.ar      1 MOL     0.0007
     10 C          38.9463  -22.2190    6.5453 C.ar      1 MOL     0.0103
     11 C          40.1532  -21.8646    7.0722 C.ar      1 MOL     0.0106
     12 C          40.1927  -20.8214    7.9580 C.ar      1 MOL     0.0736
     13 C          39.0937  -19.9546    8.3627 C.3       1 MOL     0.0925
     14 C          37.7954  -20.4880    7.8653 C.ar      1 MOL    -0.0406
     15 C          37.1675  -21.4291    8.7006 C.ar      1 MOL     0.0196
     16 C          35.9696  -21.9867    8.3225 C.ar      1 MOL     0.0723
     17 C          35.2859  -22.9825    9.1782 C.2       1 MOL     0.2495
     18 C          33.9926  -23.4580   11.2200 C.3       1 MOL     0.1268
     19 C          33.9535  -23.0078   12.6646 C.3       1 MOL     0.1265
     20 C          35.0916  -20.8687   12.1453 C.3       1 MOL     0.1265
     21 C          34.7316  -21.1171   10.7030 C.3       1 MOL     0.1268
     22 C          36.0779  -22.4227   13.8195 C.2       1 MOL     0.2187
     23 C          36.1967  -23.6316   14.6390 C.3       1 MOL     0.0752
     24 C          35.0241  -24.5851   14.5949 C.3       1 MOL     0.0134
     25 C          35.3226  -23.8440   15.8224 C.3       1 MOL     0.0134
     26 C          35.3291  -21.6728    7.1473 C.ar      1 MOL     0.1355
     27 C          35.9447  -20.7515    6.3304 C.ar      1 MOL     0.0392
     28 C          37.1675  -20.1814    6.7127 C.ar      1 MOL     0.0066
     29 O          43.4972  -22.8705    6.9426 O.2       1 MOL    -0.2658
     30 O          37.0160  -21.5610   13.9702 O.2       1 MOL    -0.2753
     31 O          35.2397  -24.1985    8.8818 O.2       1 MOL    -0.2699
     32 F          34.1400  -22.2550    6.8161 F         1 MOL    -0.2047
     33 H          42.0560  -24.1727    5.5610 H         1 MOL     0.0625
     34 H          39.9062  -24.8053    4.6155 H         1 MOL     0.0618
     35 H          37.9669  -23.5406    5.2695 H         1 MOL     0.0618
     36 H          38.0912  -21.7009    6.8017 H         1 MOL     0.0624
     37 H          39.2500  -18.9759    7.9593 H         1 MOL     0.0377
     38 H          39.0617  -19.9138    9.4317 H         1 MOL     0.0377
     39 H          37.6051  -21.7006    9.5947 H         1 MOL     0.0629
     40 H          34.5000  -24.3989   11.1677 H         1 MOL     0.0480
     41 H          32.9813  -23.5344   10.8774 H         1 MOL     0.0480
     42 H          34.0255  -23.8591   13.3083 H         1 MOL     0.0480
     43 H          33.0328  -22.4986   12.8608 H         1 MOL     0.0480
     44 H          36.0742  -20.4486   12.1947 H         1 MOL     0.0480
     45 H          34.3786  -20.1911   12.5665 H         1 MOL     0.0480
     46 H          35.4711  -20.6560   10.0820 H         1 MOL     0.0480
     47 H          33.7592  -20.7039   10.5392 H         1 MOL     0.0480
     48 H          37.2550  -23.6705   14.4874 H         1 MOL     0.0394
     49 H          35.1940  -25.6408   14.5522 H         1 MOL     0.0273
     50 H          34.1642  -24.6990   13.9684 H         1 MOL     0.0273
     51 H          35.7025  -24.3640   16.6769 H         1 MOL     0.0273
     52 H          34.7578  -23.1972   16.4596 H         1 MOL     0.0273
     53 H          35.5054  -20.4802    5.4362 H         1 MOL     0.0646
     54 H          37.6080  -19.4934    6.0817 H         1 MOL     0.0621
     55 H          43.3542  -20.9309    8.5470 H         1 MOL     0.1921
@<TRIPOS>BOND
     1    1   18 1 
     2    1   21 1 
     3    1   17 am
     4    2   20 1 
     5    2   22 am
     6    2   19 1 
     7    3    4 ar
     8    3   12 ar
     9    4   55 1 
    10    4    5 ar
    11    5    6 ar
    12    5   29 2 
    13    6    7 ar
    14    6   11 ar
    15    7    8 ar
    16    7   33 1 
    17    8    9 ar
    18    8   34 1 
    19    9   10 ar
    20    9   35 1 
    21   10   11 ar
    22   10   36 1 
    23   11   12 ar
    24   12   13 1 
    25   13   14 1 
    26   13   37 1 
    27   13   38 1 
    28   14   15 ar
    29   14   28 ar
    30   15   16 ar
    31   15   39 1 
    32   16   17 1 
    33   16   26 ar
    34   17   31 2 
    35   18   19 1 
    36   18   40 1 
    37   18   41 1 
    38   19   42 1 
    39   19   43 1 
    40   20   21 1 
    41   20   44 1 
    42   20   45 1 
    43   21   46 1 
    44   21   47 1 
    45   22   23 1 
    46   22   30 2 
    47   23   24 1 
    48   23   25 1 
    49   23   48 1 
    50   24   25 1 
    51   24   49 1 
    52   24   50 1 
    53   25   51 1 
    54   25   52 1 
    55   26   27 ar
    56   26   32 1 
    57   27   28 ar
    58   27   53 1 
    59   28   54 1 
@<TRIPOS>SUBSTRUCTURE
1 MOL         1
@<TRIPOS>MOLECULE
query molecule
   55    59     1     0     0
SMALL
NO_CHARGE

@<TRIPOS>ATOM
      1 N          45.1240    3.2458   22.1859 N.am      1 MOL    -0.2945
      2 N          45.9920    2.5172   24.5235 N.am      1 MOL    -0.2983
      3 N          51.0213    2.6954   20.1748 N.ar      1 MOL    -0.1750
      4 N          51.6919    2.2710   21.2182 N.ar      1 MOL    -0.2425
      5 C          51.4890    1.0734   21.7851 C.ar      1 MOL     0.2725
      6 C          50.5280    0.2403   21.2502 C.ar      1 MOL     0.0496
      7 C          50.2624   -1.0084   21.8134 C.ar      1 MOL     0.0138
      8 C          49.2830   -1.8150   21.2751 C.ar      1 MOL     0.0008
      9 C          48.6020   -1.3260   20.1804 C.ar      1 MOL     0.0007
     10 C          48.8548   -0.0890   19.6115 C.ar      1 MOL     0.0103
     11 C          49.8278    0.7003   20.1502 C.ar      1 MOL     0.0106
     12 C          50.0529    1.9276   19.5866 C.ar      1 MOL     0.0736
     13 C          49.4293    2.4883   18.3950 C.3       1 MOL     0.0925
     14 C          48.2895    3.3715   18.7668 C.ar      1 MOL    -0.0406
     15 C          47.3019    2.7784   19.5733 C.ar      1 MOL     0.0196
     16 C          46.2051    3.5106   19.9603 C.ar      1 MOL     0.0723
     17 C          45.1469    2.9136   20.8060 C.2       1 MOL     0.2495
     18 C          44.1161    2.6937   23.0323 C.3       1 MOL     0.1268
     19 C          44.5552    2.5985   24.4777 C.3       1 MOL     0.1265
     20 C          46.7402    3.6655   24.0006 C.3       1 MOL     0.1265
     21 C          46.1347    4.1471   22.7072 C.3       1 MOL     0.1268
     22 C          46.6651    1.4048   25.0370 C.2       1 MOL     0.2187
     23 C          46.0635    0.1834   25.5786 C.3       1 MOL     0.0752
     24 C          46.6359   -1.1221   25.0744 C.3       1 MOL     0.0134
     25 C          45.2719   -0.7297   24.7129 C.3       1 MOL     0.0134
     26 C          46.0082    4.8223   19.5991 C.ar      1 MOL     0.1355
     27 C          46.9756    5.4018   18.8096 C.ar      1 MOL     0.0392
     28 C          48.0955    4.6573   18.4121 C.ar      1 MOL     0.0066
     29 O          52.1227    0.6484   22.7849 O.2       1 MOL    -0.2658
     30 O          47.9473    1.4364   25.0431 O.2       1 MOL    -0.2753
     31 O          44.2826    2.1340   20.3435 O.2       1 MOL    -0.2699
     32 F          44.9009    5.5069   20.0088 F         1 MOL    -0.2047
     33 H          50.8003   -1.3289   22.6337 H         1 MOL     0.0625
     34 H          49.0690   -2.7417   21.6734 H         1 MOL     0.0618
     35 H          47.8639   -1.9134   19.7629 H         1 MOL     0.0618
     36 H          48.3157    0.2314   18.7918 H         1 MOL     0.0624
     37 H          49.0706    1.6918   17.7771 H         1 MOL     0.0377
     38 H          50.1559    3.0693   17.8659 H         1 MOL     0.0377
     39 H          47.4002    1.7961   19.8734 H         1 MOL     0.0629
     40 H          43.8747    1.7117   22.6819 H         1 MOL     0.0480
     41 H          43.2686    3.3467   22.9940 H         1 MOL     0.0480
     42 H          44.1309    1.7244   24.9253 H         1 MOL     0.0480
     43 H          44.2230    3.4623   25.0152 H         1 MOL     0.0480
     44 H          47.7552    3.3756   23.8268 H         1 MOL     0.0480
     45 H          46.7005    4.4599   24.7164 H         1 MOL     0.0480
     46 H          46.9137    4.2420   21.9797 H         1 MOL     0.0480
     47 H          45.6577    5.0833   22.9052 H         1 MOL     0.0480
     48 H          45.8752    0.6540   26.5206 H         1 MOL     0.0394
     49 H          46.7974   -1.9334   25.7534 H         1 MOL     0.0273
     50 H          47.5129   -1.4042   24.5301 H         1 MOL     0.0273
     51 H          44.4400   -1.2628   25.1238 H         1 MOL     0.0273
     52 H          44.7489   -0.6149   23.7874 H         1 MOL     0.0273
     53 H          46.8763    6.3851   18.5105 H         1 MOL     0.0646
     54 H          48.8059    5.1158   17.8199 H         1 MOL     0.0621
     55 H          52.3793    2.8612   21.6041 H         1 MOL     0.1921
@<TRIPOS>BOND
     1    1   18 1 
     2    1   21 1 
     3    1   17 am
     4    2   20 1 
     5    2   22 am
     6    2   19 1 
     7    3    4 ar
     8    3   12 ar
     9    4   55 1 
    10    4    5 ar
    11    5    6 ar
    12    5   29 2 
    13    6    7 ar
    14    6   11 ar
    15    7    8 ar
    16    7   33 1 
    17    8    9 ar
    18    8   34 1 
    19    9   10 ar
    20    9   35 1 
    21   10   11 ar
    22   10   36 1 
    23   11   12 ar
    24   12   13 1 
    25   13   14 1 
    26   13   37 1 
    27   13   38 1 
    28   14   15 ar
    29   14   28 ar
    30   15   16 ar
    31   15   39 1 
    32   16   17 1 
    33   16   26 ar
    34   17   31 2 
    35   18   19 1 
    36   18   40 1 
    37   18   41 1 
    38   19   42 1 
    39   19   43 1 
    40   20   21 1 
    41   20   44 1 
    42   20   45 1 
    43   21   46 1 
    44   21   47 1 
    45   22   23 1 
    46   22   30 2 
    47   23   24 1 
    48   23   25 1 
    49   23   48 1 
    50   24   25 1 
    51   24   49 1 
    52   24   50 1 
    53   25   51 1 
    54   25   52 1 
    55   26   27 ar
    56   26   32 1 
    57   27   28 ar
    58   27   53 1 
    59   28   54 1 
@<TRIPOS>SUBSTRUCTURE
1 MOL         1
@<TRIPOS>MOLECULE
query molecule
   55    59     1     0     0
SMALL
NO_CHARGE

@<TRIPOS>ATOM
      1 N          12.7012   10.9683   28.3711 N.am      1 MOL    -0.2945
      2 N          10.6877   12.1774   29.4811 N.am      1 MOL    -0.2983
      3 N          14.4416    8.5483   23.1438 N.ar      1 MOL    -0.1750
      4 N          13.4843    7.6806   22.9220 N.ar      1 MOL    -0.2425
      5 C          12.2082    8.0321   22.7098 C.ar      1 MOL     0.2725
      6 C          11.8777    9.3716   22.7246 C.ar      1 MOL     0.0496
      7 C          10.5612    9.7911   22.5295 C.ar      1 MOL     0.0138
      8 C          10.2507   11.1333   22.5696 C.ar      1 MOL     0.0008
      9 C          11.2890   12.0085   22.8087 C.ar      1 MOL     0.0007
     10 C          12.5996   11.6062   23.0044 C.ar      1 MOL     0.0103
     11 C          12.8967   10.2759   22.9601 C.ar      1 MOL     0.0106
     12 C          14.1941    9.8941   23.1731 C.ar      1 MOL     0.0736
     13 C          15.3556   10.7530   23.3633 C.3       1 MOL     0.0925
     14 C          15.1662   11.6352   24.5479 C.ar      1 MOL    -0.0406
     15 C          14.7494   10.9878   25.7247 C.ar      1 MOL     0.0196
     16 C          14.5375   11.7191   26.8688 C.ar      1 MOL     0.0723
     17 C          14.0952   11.0672   28.1221 C.2       1 MOL     0.2495
     18 C          12.2363   10.3420   29.5663 C.3       1 MOL     0.1268
     19 C          10.8770   10.8476   29.9997 C.3       1 MOL     0.1265
     20 C          10.6728   12.3265   28.0219 C.3       1 MOL     0.1265
     21 C          11.7743   11.5108   27.3953 C.3       1 MOL     0.1268
     22 C          10.5248   13.2906   30.3108 C.2       1 MOL     0.2187
     23 C          10.5305   13.3060   31.7761 C.3       1 MOL     0.0752
     24 C          11.6764   14.0440   32.4307 C.3       1 MOL     0.0134
     25 C          11.5795   12.5871   32.5457 C.3       1 MOL     0.0134
     26 C          14.7130   13.0810   26.9367 C.ar      1 MOL     0.1355
     27 C          15.1209   13.7136   25.7842 C.ar      1 MOL     0.0392
     28 C          15.3371   12.9706   24.6148 C.ar      1 MOL     0.0066
     29 O          11.2767    7.2150   22.4941 O.2       1 MOL    -0.2658
     30 O          10.3512   14.4305   29.7489 O.2       1 MOL    -0.2753
     31 O          14.9065   10.6063   28.9576 O.2       1 MOL    -0.2699
     32 F          14.4886   13.7628   28.0975 F         1 MOL    -0.2047
     33 H           9.8191    9.0958   22.3542 H         1 MOL     0.0625
     34 H           9.2855   11.4676   22.4279 H         1 MOL     0.0618
     35 H          11.0779   13.0176   22.8441 H         1 MOL     0.0618
     36 H          13.3411   12.3022   23.1808 H         1 MOL     0.0624
     37 H          15.4926   11.3585   22.4917 H         1 MOL     0.0377
     38 H          16.2165   10.1385   23.5265 H         1 MOL     0.0377
     39 H          14.6027    9.9665   25.7290 H         1 MOL     0.0629
     40 H          12.9395   10.5348   30.3498 H         1 MOL     0.0480
     41 H          12.1434    9.2943   29.3671 H         1 MOL     0.0480
     42 H          10.8247   10.8671   31.0679 H         1 MOL     0.0480
     43 H          10.1126   10.1993   29.6244 H         1 MOL     0.0480
     44 H          10.8128   13.3571   27.7712 H         1 MOL     0.0480
     45 H           9.7320   11.9800   27.6479 H         1 MOL     0.0480
     46 H          12.3195   12.1355   26.7187 H         1 MOL     0.0480
     47 H          11.3165   10.6846   26.8943 H         1 MOL     0.0480
     48 H           9.4615   13.3108   31.8133 H         1 MOL     0.0394
     49 H          11.4963   14.6616   33.2859 H         1 MOL     0.0273
     50 H          12.4260   14.7296   32.0945 H         1 MOL     0.0273
     51 H          11.3366   12.1444   33.4891 H         1 MOL     0.0273
     52 H          12.2412   11.7758   32.3286 H         1 MOL     0.0273
     53 H          15.2679   14.7357   25.7814 H         1 MOL     0.0646
     54 H          15.6424   13.4696   23.7644 H         1 MOL     0.0621
     55 H          13.7143    6.7231   22.9100 H         1 MOL     0.1921
@<TRIPOS>BOND
     1    1   18 1 
     2    1   21 1 
     3    1   17 am
     4    2   20 1 
     5    2   22 am
     6    2   19 1 
     7    3    4 ar
     8    3   12 ar
     9    4   55 1 
    10    4    5 ar
    11    5    6 ar
    12    5   29 2 
    13    6    7 ar
    14    6   11 ar
    15    7    8 ar
    16    7   33 1 
    17    8    9 ar
    18    8   34 1 
    19    9   10 ar
    20    9   35 1 
    21   10   11 ar
    22   10   36 1 
    23   11   12 ar
    24   12   13 1 
    25   13   14 1 
    26   13   37 1 
    27   13   38 1 
    28   14   15 ar
    29   14   28 ar
    30   15   16 ar
    31   15   39 1 
    32   16   17 1 
    33   16   26 ar
    34   17   31 2 
    35   18   19 1 
    36   18   40 1 
    37   18   41 1 
    38   19   42 1 
    39   19   43 1 
    40   20   21 1 
    41   20   44 1 
    42   20   45 1 
    43   21   46 1 
    44   21   47 1 
    45   22   23 1 
    46   22   30 2 
    47   23   24 1 
    48   23   25 1 
    49   23   48 1 
    50   24   25 1 
    51   24   49 1 
    52   24   50 1 
    53   25   51 1 
    54   25   52 1 
    55   26   27 ar
    56   26   32 1 
    57   27   28 ar
    58   27   53 1 
    59   28   54 1 
@<TRIPOS>SUBSTRUCTURE
1 MOL         1
@<TRIPOS>MOLECULE
query molecule
   55    59     1     0     0
SMALL
NO_CHARGE

@<TRIPOS>ATOM
      1 N          45.7319   -7.4039   29.4009 N.am      1 MOL    -0.2945
      2 N          45.2254   -9.9352   29.6915 N.am      1 MOL    -0.2983
      3 N          46.4050   -1.1063   34.1924 N.ar      1 MOL    -0.1750
      4 N          45.7954   -0.8329   35.3203 N.ar      1 MOL    -0.2425
      5 C          44.7649   -1.5491   35.7913 C.ar      1 MOL     0.2725
      6 C          44.3173   -2.6290   35.0584 C.ar      1 MOL     0.0496
      7 C          43.2357   -3.3962   35.4927 C.ar      1 MOL     0.0138
      8 C          42.7923   -4.4576   34.7335 C.ar      1 MOL     0.0008
      9 C          43.4619   -4.7056   33.5540 C.ar      1 MOL     0.0007
     10 C          44.5362   -3.9525   33.1107 C.ar      1 MOL     0.0103
     11 C          44.9688   -2.9060   33.8707 C.ar      1 MOL     0.0106
     12 C          46.0208   -2.1610   33.4094 C.ar      1 MOL     0.0736
     13 C          46.8225   -2.3955   32.2155 C.3       1 MOL     0.0925
     14 C          47.1759   -3.8372   32.0968 C.ar      1 MOL    -0.0406
     15 C          46.8419   -4.4438   30.8728 C.ar      1 MOL     0.0196
     16 C          47.1189   -5.7748   30.6716 C.ar      1 MOL     0.0723
     17 C          46.7764   -6.4427   29.3957 C.2       1 MOL     0.2495
     18 C          45.3698   -8.0654   28.1892 C.3       1 MOL     0.1268
     19 C          44.7551   -9.4276   28.4288 C.3       1 MOL     0.1265
     20 C          44.8687   -9.1693   30.8907 C.3       1 MOL     0.1265
     21 C          45.0510   -7.6929   30.6494 C.3       1 MOL     0.1268
     22 C          45.9893  -11.1014   29.7943 C.2       1 MOL     0.2187
     23 C          46.4356  -11.9622   28.6957 C.3       1 MOL     0.0752
     24 C          47.9173  -11.9452   28.3949 C.3       1 MOL     0.0134
     25 C          46.9662  -11.3815   27.4343 C.3       1 MOL     0.0134
     26 C          47.7190   -6.5716   31.6176 C.ar      1 MOL     0.1355
     27 C          48.0455   -5.9768   32.8153 C.ar      1 MOL     0.0392
     28 C          47.7633   -4.6192   33.0243 C.ar      1 MOL     0.0066
     29 O          44.1685   -1.3034   36.8710 O.2       1 MOL    -0.2658
     30 O          46.3490  -11.4750   30.9674 O.2       1 MOL    -0.2753
     31 O          47.3749   -6.1861   28.3258 O.2       1 MOL    -0.2699
     32 F          47.9727   -7.8896   31.3698 F         1 MOL    -0.2047
     33 H          42.7674   -3.1693   36.3839 H         1 MOL     0.0625
     34 H          41.9955   -5.0392   35.0338 H         1 MOL     0.0618
     35 H          43.1452   -5.4948   32.9700 H         1 MOL     0.0618
     36 H          45.0034   -4.1794   32.2187 H         1 MOL     0.0624
     37 H          47.7204   -1.8166   32.2748 H         1 MOL     0.0377
     38 H          46.2533   -2.1092   31.3556 H         1 MOL     0.0377
     39 H          46.3898   -3.8912   30.1280 H         1 MOL     0.0629
     40 H          46.2480   -8.1862   27.5894 H         1 MOL     0.0480
     41 H          44.6354   -7.4609   27.6980 H         1 MOL     0.0480
     42 H          45.0423  -10.0946   27.6434 H         1 MOL     0.0480
     43 H          43.6880   -9.3461   28.4449 H         1 MOL     0.0480
     44 H          45.4960   -9.4727   31.7025 H         1 MOL     0.0480
     45 H          43.8420   -9.3555   31.1279 H         1 MOL     0.0480
     46 H          45.6266   -7.2838   31.4534 H         1 MOL     0.0480
     47 H          44.0776   -7.2545   30.5924 H         1 MOL     0.0480
     48 H          45.6801  -12.6877   28.9129 H         1 MOL     0.0394
     49 H          48.4282  -12.8582   28.1696 H         1 MOL     0.0273
     50 H          48.7883  -11.5836   28.9004 H         1 MOL     0.0273
     51 H          46.7917  -11.8817   26.5047 H         1 MOL     0.0273
     52 H          46.8687  -10.4335   26.9495 H         1 MOL     0.0273
     53 H          48.4984   -6.5308   33.5597 H         1 MOL     0.0646
     54 H          48.0181   -4.1979   33.9316 H         1 MOL     0.0621
     55 H          46.1107   -0.0634   35.8479 H         1 MOL     0.1921
@<TRIPOS>BOND
     1    1   18 1 
     2    1   21 1 
     3    1   17 am
     4    2   20 1 
     5    2   22 am
     6    2   19 1 
     7    3    4 ar
     8    3   12 ar
     9    4   55 1 
    10    4    5 ar
    11    5    6 ar
    12    5   29 2 
    13    6    7 ar
    14    6   11 ar
    15    7    8 ar
    16    7   33 1 
    17    8    9 ar
    18    8   34 1 
    19    9   10 ar
    20    9   35 1 
    21   10   11 ar
    22   10   36 1 
    23   11   12 ar
    24   12   13 1 
    25   13   14 1 
    26   13   37 1 
    27   13   38 1 
    28   14   15 ar
    29   14   28 ar
    30   15   16 ar
    31   15   39 1 
    32   16   17 1 
    33   16   26 ar
    34   17   31 2 
    35   18   19 1 
    36   18   40 1 
    37   18   41 1 
    38   19   42 1 
    39   19   43 1 
    40   20   21 1 
    41   20   44 1 
    42   20   45 1 
    43   21   46 1 
    44   21   47 1 
    45   22   23 1 
    46   22   30 2 
    47   23   24 1 
    48   23   25 1 
    49   23   48 1 
    50   24   25 1 
    51   24   49 1 
    52   24   50 1 
    53   25   51 1 
    54   25   52 1 
    55   26   27 ar
    56   26   32 1 
    57   27   28 ar
    58   27   53 1 
    59   28   54 1 
@<TRIPOS>SUBSTRUCTURE
1 MOL         1
@<TRIPOS>MOLECULE
query molecule
   55    59     1     0     0
SMALL
NO_CHARGE

@<TRIPOS>ATOM
      1 N           3.7497    7.8159   23.3531 N.am      1 MOL    -0.2945
      2 N           5.2495    8.4185   21.3194 N.am      1 MOL    -0.2983
      3 N           8.8033    8.0730   26.5949 N.ar      1 MOL    -0.1750
      4 N           9.5266    8.6761   25.6829 N.ar      1 MOL    -0.2425
      5 C           9.7847    8.1448   24.4796 C.ar      1 MOL     0.2725
      6 C           9.2674    6.9017   24.1783 C.ar      1 MOL     0.0496
      7 C           9.5218    6.2941   22.9482 C.ar      1 MOL     0.0138
      8 C           9.0123    5.0425   22.6772 C.ar      1 MOL     0.0008
      9 C           8.2603    4.4458   23.6669 C.ar      1 MOL     0.0007
     10 C           8.0001    5.0368   24.8920 C.ar      1 MOL     0.0103
     11 C           8.5068    6.2766   25.1491 C.ar      1 MOL     0.0106
     12 C           8.2549    6.8390   26.3717 C.ar      1 MOL     0.0736
     13 C           7.4186    6.3090   27.4407 C.3       1 MOL     0.0925
     14 C           6.0362    6.0570   26.9480 C.ar      1 MOL    -0.0406
     15 C           5.4951    7.0593   26.1232 C.ar      1 MOL     0.0196
     16 C           4.2207    6.9221   25.6272 C.ar      1 MOL     0.0723
     17 C           3.6221    7.9613   24.7593 C.2       1 MOL     0.2495
     18 C           3.1815    8.7948   22.4837 C.3       1 MOL     0.1268
     19 C           3.8950    8.8770   21.1514 C.3       1 MOL     0.1265
     20 C           5.4329    7.0235   21.7343 C.3       1 MOL     0.1265
     21 C           4.4608    6.6647   22.8287 C.3       1 MOL     0.1268
     22 C           6.3548    9.2469   21.1039 C.2       1 MOL     0.2187
     23 C           6.3349   10.6564   20.7037 C.3       1 MOL     0.0752
     24 C           5.1026   11.4422   21.0908 C.3       1 MOL     0.0134
     25 C           5.3745   11.1492   19.6818 C.3       1 MOL     0.0134
     26 C           3.4204    5.8366   25.8938 C.ar      1 MOL     0.1355
     27 C           3.9511    4.8562   26.7014 C.ar      1 MOL     0.0392
     28 C           5.2506    4.9934   27.2099 C.ar      1 MOL     0.0066
     29 O          10.4748    8.7081   23.5917 O.2       1 MOL    -0.2658
     30 O           7.5204    8.7380   21.2699 O.2       1 MOL    -0.2753
     31 O           3.0139    8.9519   25.2256 O.2       1 MOL    -0.2699
     32 F           2.1602    5.7472   25.3776 F         1 MOL    -0.2047
     33 H          10.0917    6.7826   22.2399 H         1 MOL     0.0625
     34 H           9.1863    4.5735   21.7755 H         1 MOL     0.0618
     35 H           7.8706    3.5081   23.4849 H         1 MOL     0.0618
     36 H           7.4310    4.5471   25.6003 H         1 MOL     0.0624
     37 H           7.3830    7.0157   28.2434 H         1 MOL     0.0377
     38 H           7.8366    5.3840   27.7798 H         1 MOL     0.0377
     39 H           6.0532    7.8955   25.8912 H         1 MOL     0.0629
     40 H           3.2369    9.7508   22.9619 H         1 MOL     0.0480
     41 H           2.1686    8.5070   22.2910 H         1 MOL     0.0480
     42 H           3.8981    9.8899   20.8073 H         1 MOL     0.0480
     43 H           3.3912    8.2654   20.4320 H         1 MOL     0.0480
     44 H           6.4316    6.8909   22.0943 H         1 MOL     0.0480
     45 H           5.2558    6.3858   20.8935 H         1 MOL     0.0480
     46 H           5.0020    6.2055   23.6295 H         1 MOL     0.0480
     47 H           3.7337    6.0034   22.4079 H         1 MOL     0.0480
     48 H           7.3952   10.7386   20.8196 H         1 MOL     0.0394
     49 H           5.1993   12.4428   21.4578 H         1 MOL     0.0273
     50 H           4.2782   11.2798   21.7533 H         1 MOL     0.0273
     51 H           5.6615   11.9405   19.0211 H         1 MOL     0.0273
     52 H           4.8180   10.6860   18.8950 H         1 MOL     0.0273
     53 H           3.3917    4.0195   26.9323 H         1 MOL     0.0646
     54 H           5.6243    4.2438   27.8133 H         1 MOL     0.0621
     55 H           9.8982    9.5637   25.8922 H         1 MOL     0.1921
@<TRIPOS>BOND
     1    1   18 1 
     2    1   21 1 
     3    1   17 am
     4    2   20 1 
     5    2   22 am
     6    2   19 1 
     7    3    4 ar
     8    3   12 ar
     9    4   55 1 
    10    4    5 ar
    11    5    6 ar
    12    5   29 2 
    13    6    7 ar
    14    6   11 ar
    15    7    8 ar
    16    7   33 1 
    17    8    9 ar
    18    8   34 1 
    19    9   10 ar
    20    9   35 1 
    21   10   11 ar
    22   10   36 1 
    23   11   12 ar
    24   12   13 1 
    25   13   14 1 
    26   13   37 1 
    27   13   38 1 
    28   14   15 ar
    29   14   28 ar
    30   15   16 ar
    31   15   39 1 
    32   16   17 1 
    33   16   26 ar
    34   17   31 2 
    35   18   19 1 
    36   18   40 1 
    37   18   41 1 
    38   19   42 1 
    39   19   43 1 
    40   20   21 1 
    41   20   44 1 
    42   20   45 1 
    43   21   46 1 
    44   21   47 1 
    45   22   23 1 
    46   22   30 2 
    47   23   24 1 
    48   23   25 1 
    49   23   48 1 
    50   24   25 1 
    51   24   49 1 
    52   24   50 1 
    53   25   51 1 
    54   25   52 1 
    55   26   27 ar
    56   26   32 1 
    57   27   28 ar
    58   27   53 1 
    59   28   54 1 
@<TRIPOS>SUBSTRUCTURE
1 MOL         1
@<TRIPOS>MOLECULE
query molecule
   55    59     1     0     0
SMALL
NO_CHARGE

@<TRIPOS>ATOM
      1 N          42.4071   -5.2412   36.2422 N.am      1 MOL    -0.2945
      2 N          40.8694   -6.4678   34.5454 N.am      1 MOL    -0.2983
      3 N          48.4582   -2.0410   33.3442 N.ar      1 MOL    -0.1750
      4 N          48.8569   -1.5207   32.2089 N.ar      1 MOL    -0.2425
      5 C          48.4071   -1.9304   31.0144 C.ar      1 MOL     0.2725
      6 C          47.4786   -2.9499   30.9691 C.ar      1 MOL     0.0496
      7 C          46.9923   -3.4281   29.7517 C.ar      1 MOL     0.0138
      8 C          46.0811   -4.4620   29.7297 C.ar      1 MOL     0.0008
      9 C          45.6931   -4.9794   30.9475 C.ar      1 MOL     0.0007
     10 C          46.1677   -4.5151   32.1628 C.ar      1 MOL     0.0103
     11 C          47.0671   -3.4900   32.1736 C.ar      1 MOL     0.0106
     12 C          47.5394   -3.0547   33.3827 C.ar      1 MOL     0.0736
     13 C          47.1325   -3.4979   34.7097 C.3       1 MOL     0.0925
     14 C          45.8691   -2.8261   35.1218 C.ar      1 MOL    -0.0406
     15 C          44.9191   -3.6535   35.7466 C.ar      1 MOL     0.0196
     16 C          43.7167   -3.1271   36.1538 C.ar      1 MOL     0.0723
     17 C          42.6950   -3.9730   36.8111 C.2       1 MOL     0.2495
     18 C          41.4317   -6.0872   36.8503 C.3       1 MOL     0.1268
     19 C          40.7881   -7.0387   35.8647 C.3       1 MOL     0.1265
     20 C          42.2123   -6.2456   33.9984 C.3       1 MOL     0.1265
     21 C          43.1184   -5.6509   35.0455 C.3       1 MOL     0.1268
     22 C          39.7345   -6.1317   33.8015 C.2       1 MOL     0.2187
     23 C          38.3359   -6.2789   34.2127 C.3       1 MOL     0.0752
     24 C          37.9083   -7.6653   34.6384 C.3       1 MOL     0.0134
     25 C          37.3798   -7.0801   33.4041 C.3       1 MOL     0.0134
     26 C          43.3757   -1.8061   35.9846 C.ar      1 MOL     0.1355
     27 C          44.3064   -0.9970   35.3729 C.ar      1 MOL     0.0392
     28 C          45.5338   -1.5312   34.9552 C.ar      1 MOL     0.0066
     29 O          48.7764   -1.4431   29.9153 O.2       1 MOL    -0.2658
     30 O          39.9154   -5.6394   32.6310 O.2       1 MOL    -0.2753
     31 O          42.0859   -3.6054   37.8419 O.2       1 MOL    -0.2699
     32 F          42.1676   -1.3311   36.4061 F         1 MOL    -0.2047
     33 H          47.3147   -3.0068   28.8665 H         1 MOL     0.0625
     34 H          45.7072   -4.8319   28.8428 H         1 MOL     0.0618
     35 H          45.0128   -5.7548   30.9534 H         1 MOL     0.0618
     36 H          45.8457   -4.9377   33.0477 H         1 MOL     0.0624
     37 H          47.9035   -3.2596   35.4125 H         1 MOL     0.0377
     38 H          46.9675   -4.5550   34.6852 H         1 MOL     0.0377
     39 H          45.1241   -4.6533   35.8985 H         1 MOL     0.0629
     40 H          40.6687   -5.4739   37.2831 H         1 MOL     0.0480
     41 H          41.9319   -6.6774   37.5903 H         1 MOL     0.0480
     42 H          39.7626   -7.1900   36.1287 H         1 MOL     0.0480
     43 H          41.2965   -7.9803   35.8850 H         1 MOL     0.0480
     44 H          42.1481   -5.5748   33.1674 H         1 MOL     0.0480
     45 H          42.6182   -7.1845   33.6845 H         1 MOL     0.0480
     46 H          43.6054   -4.7938   34.6291 H         1 MOL     0.0480
     47 H          43.8179   -6.4072   35.3316 H         1 MOL     0.0480
     48 H          38.3138   -5.2863   34.6110 H         1 MOL     0.0394
     49 H          37.2693   -7.7912   35.4876 H         1 MOL     0.0273
     50 H          38.4191   -8.5714   34.8895 H         1 MOL     0.0273
     51 H          36.3517   -6.7876   33.3535 H         1 MOL     0.0273
     52 H          37.3465   -7.3958   32.3831 H         1 MOL     0.0273
     53 H          44.1002    0.0034   35.2219 H         1 MOL     0.0646
     54 H          46.2138   -0.9028   34.4988 H         1 MOL     0.0621
     55 H          49.5193   -0.7925   32.2351 H         1 MOL     0.1921
@<TRIPOS>BOND
     1    1   18 1 
     2    1   21 1 
     3    1   17 am
     4    2   20 1 
     5    2   22 am
     6    2   19 1 
     7    3    4 ar
     8    3   12 ar
     9    4   55 1 
    10    4    5 ar
    11    5    6 ar
    12    5   29 2 
    13    6    7 ar
    14    6   11 ar
    15    7    8 ar
    16    7   33 1 
    17    8    9 ar
    18    8   34 1 
    19    9   10 ar
    20    9   35 1 
    21   10   11 ar
    22   10   36 1 
    23   11   12 ar
    24   12   13 1 
    25   13   14 1 
    26   13   37 1 
    27   13   38 1 
    28   14   15 ar
    29   14   28 ar
    30   15   16 ar
    31   15   39 1 
    32   16   17 1 
    33   16   26 ar
    34   17   31 2 
    35   18   19 1 
    36   18   40 1 
    37   18   41 1 
    38   19   42 1 
    39   19   43 1 
    40   20   21 1 
    41   20   44 1 
    42   20   45 1 
    43   21   46 1 
    44   21   47 1 
    45   22   23 1 
    46   22   30 2 
    47   23   24 1 
    48   23   25 1 
    49   23   48 1 
    50   24   25 1 
    51   24   49 1 
    52   24   50 1 
    53   25   51 1 
    54   25   52 1 
    55   26   27 ar
    56   26   32 1 
    57   27   28 ar
    58   27   53 1 
    59   28   54 1 
@<TRIPOS>SUBSTRUCTURE
1 MOL         1
@<TRIPOS>MOLECULE
query molecule
   55    59     1     0     0
SMALL
NO_CHARGE

@<TRIPOS>ATOM
      1 N           7.5685    8.9858   31.0493 N.am      1 MOL    -0.2945
      2 N           7.8599    7.3132   33.0155 N.am      1 MOL    -0.2983
      3 N          13.3660   11.3974   27.1398 N.ar      1 MOL    -0.1750
      4 N          13.5935   11.4350   25.8493 N.ar      1 MOL    -0.2425
      5 C          13.6531   10.3380   25.0812 C.ar      1 MOL     0.2725
      6 C          13.4673    9.1044   25.6705 C.ar      1 MOL     0.0496
      7 C          13.5389    7.9295   24.9210 C.ar      1 MOL     0.0138
      8 C          13.3712    6.7070   25.5349 C.ar      1 MOL     0.0008
      9 C          13.1372    6.7165   26.8937 C.ar      1 MOL     0.0007
     10 C          13.0639    7.8744   27.6498 C.ar      1 MOL     0.0103
     11 C          13.2287    9.0791   27.0322 C.ar      1 MOL     0.0106
     12 C          13.1708   10.2130   27.7973 C.ar      1 MOL     0.0736
     13 C          12.8619   10.3144   29.2177 C.3       1 MOL     0.0925
     14 C          11.4915   10.8614   29.4179 C.ar      1 MOL    -0.0406
     15 C          10.4639    9.9050   29.5009 C.ar      1 MOL     0.0196
     16 C           9.1631   10.3128   29.6750 C.ar      1 MOL     0.0723
     17 C           8.0590    9.3306   29.7626 C.2       1 MOL     0.2495
     18 C           6.5015    8.0460   31.1739 C.3       1 MOL     0.1268
     19 C           6.5147    7.3203   32.5021 C.3       1 MOL     0.1265
     20 C           8.4637    8.6157   33.3171 C.3       1 MOL     0.1265
     21 C           8.1689    9.6030   32.2173 C.3       1 MOL     0.1268
     22 C           8.5777    6.1319   33.2241 C.2       1 MOL     0.2187
     23 C           8.1209    4.7649   32.9598 C.3       1 MOL     0.0752
     24 C           8.9170    3.9810   31.9410 C.3       1 MOL     0.0134
     25 C           7.5432    4.3914   31.6420 C.3       1 MOL     0.0134
     26 C           8.7938   11.6332   29.7765 C.ar      1 MOL     0.1355
     27 C           9.8005   12.5685   29.6951 C.ar      1 MOL     0.0392
     28 C          11.1287   12.1558   29.5164 C.ar      1 MOL     0.0066
     29 O          13.8688   10.3538   23.8422 O.2       1 MOL    -0.2658
     30 O           9.7660    6.2338   33.6962 O.2       1 MOL    -0.2753
     31 O           7.5523    8.8027   28.7461 O.2       1 MOL    -0.2699
     32 F           7.4871   11.9877   29.9483 F         1 MOL    -0.2047
     33 H          13.7170    7.9759   23.9056 H         1 MOL     0.0625
     34 H          13.4193    5.8254   25.0022 H         1 MOL     0.0618
     35 H          13.0101    5.8119   27.3730 H         1 MOL     0.0618
     36 H          12.8869    7.8272   28.6656 H         1 MOL     0.0624
     37 H          13.5719   10.9628   29.6872 H         1 MOL     0.0377
     38 H          12.9089    9.3373   29.6518 H         1 MOL     0.0377
     39 H          10.6858    8.8998   29.4310 H         1 MOL     0.0629
     40 H           6.5873    7.3245   30.3881 H         1 MOL     0.0480
     41 H           5.5821    8.5909   31.1120 H         1 MOL     0.0480
     42 H           6.1764    6.3148   32.3655 H         1 MOL     0.0480
     43 H           5.8650    7.8166   33.1928 H         1 MOL     0.0480
     44 H           9.5232    8.5001   33.4107 H         1 MOL     0.0480
     45 H           8.0504    8.9856   34.2322 H         1 MOL     0.0480
     46 H           9.0855   10.0696   31.9222 H         1 MOL     0.0480
     47 H           7.4665   10.3115   32.6020 H         1 MOL     0.0480
     48 H           7.7914    4.6441   33.9703 H         1 MOL     0.0394
     49 H           9.1416    2.9494   32.1159 H         1 MOL     0.0273
     50 H           9.8664    4.1057   31.4633 H         1 MOL     0.0273
     51 H           6.7687    3.6548   31.5912 H         1 MOL     0.0273
     52 H           7.0842    4.9379   30.8458 H         1 MOL     0.0273
     53 H           9.5771   13.5741   29.7658 H         1 MOL     0.0646
     54 H          11.8644   12.8776   29.4582 H         1 MOL     0.0621
     55 H          13.7266   12.3127   25.4231 H         1 MOL     0.1921
@<TRIPOS>BOND
     1    1   18 1 
     2    1   21 1 
     3    1   17 am
     4    2   20 1 
     5    2   22 am
     6    2   19 1 
     7    3    4 ar
     8    3   12 ar
     9    4   55 1 
    10    4    5 ar
    11    5    6 ar
    12    5   29 2 
    13    6    7 ar
    14    6   11 ar
    15    7    8 ar
    16    7   33 1 
    17    8    9 ar
    18    8   34 1 
    19    9   10 ar
    20    9   35 1 
    21   10   11 ar
    22   10   36 1 
    23   11   12 ar
    24   12   13 1 
    25   13   14 1 
    26   13   37 1 
    27   13   38 1 
    28   14   15 ar
    29   14   28 ar
    30   15   16 ar
    31   15   39 1 
    32   16   17 1 
    33   16   26 ar
    34   17   31 2 
    35   18   19 1 
    36   18   40 1 
    37   18   41 1 
    38   19   42 1 
    39   19   43 1 
    40   20   21 1 
    41   20   44 1 
    42   20   45 1 
    43   21   46 1 
    44   21   47 1 
    45   22   23 1 
    46   22   30 2 
    47   23   24 1 
    48   23   25 1 
    49   23   48 1 
    50   24   25 1 
    51   24   49 1 
    52   24   50 1 
    53   25   51 1 
    54   25   52 1 
    55   26   27 ar
    56   26   32 1 
    57   27   28 ar
    58   27   53 1 
    59   28   54 1 
@<TRIPOS>SUBSTRUCTURE
1 MOL         1
@<TRIPOS>MOLECULE
query molecule
   55    59     1     0     0
SMALL
NO_CHARGE

@<TRIPOS>ATOM
      1 N          40.0783    8.1008   14.1865 N.am      1 MOL    -0.2945
      2 N          38.3721    6.2636   13.5069 N.am      1 MOL    -0.2983
      3 N          42.3724    5.1867   19.2327 N.ar      1 MOL    -0.1750
      4 N          42.5203    3.9449   18.8393 N.ar      1 MOL    -0.2425
      5 C          43.5187    3.5405   18.0414 C.ar      1 MOL     0.2725
      6 C          44.4403    4.4714   17.6080 C.ar      1 MOL     0.0496
      7 C          45.4874    4.1081   16.7602 C.ar      1 MOL     0.0138
      8 C          46.3839    5.0591   16.3227 C.ar      1 MOL     0.0008
      9 C          46.1871    6.3519   16.7599 C.ar      1 MOL     0.0007
     10 C          45.1525    6.7266   17.6007 C.ar      1 MOL     0.0103
     11 C          44.2724    5.7774   18.0299 C.ar      1 MOL     0.0106
     12 C          43.2451    6.1678   18.8466 C.ar      1 MOL     0.0736
     13 C          43.0063    7.4916   19.4066 C.3       1 MOL     0.0925
     14 C          42.0680    8.2631   18.5453 C.ar      1 MOL    -0.0406
     15 C          42.1117    7.9542   17.1741 C.ar      1 MOL     0.0196
     16 C          41.2901    8.6208   16.2969 C.ar      1 MOL     0.0723
     17 C          41.3151    8.3208   14.8475 C.2       1 MOL     0.2495
     18 C          40.0618    7.8138   12.7885 C.3       1 MOL     0.1268
     19 C          38.8485    7.0104   12.3718 C.3       1 MOL     0.1265
     20 C          37.9056    7.0364   14.6632 C.3       1 MOL     0.1265
     21 C          38.8496    8.1743   14.9550 C.3       1 MOL     0.1268
     22 C          38.3471    4.8661   13.5293 C.2       1 MOL     0.2187
     23 C          38.7891    3.9596   12.4662 C.3       1 MOL     0.0752
     24 C          37.7066    3.1545   11.7835 C.3       1 MOL     0.0134
     25 C          38.6973    2.4850   12.6294 C.3       1 MOL     0.0134
     26 C          40.4037    9.5966   16.6870 C.ar      1 MOL     0.1355
     27 C          40.3618    9.8981   18.0295 C.ar      1 MOL     0.0392
     28 C          41.1995    9.2206   18.9271 C.ar      1 MOL     0.0066
     29 O          43.6779    2.3544   17.6546 O.2       1 MOL    -0.2658
     30 O          37.8927    4.2965   14.5850 O.2       1 MOL    -0.2753
     31 O          42.3835    8.2569   14.1970 O.2       1 MOL    -0.2699
     32 F          39.6088   10.2306   15.7765 F         1 MOL    -0.2047
     33 H          45.5913    3.1260   16.4608 H         1 MOL     0.0625
     34 H          47.1658    4.8148   15.6964 H         1 MOL     0.0618
     35 H          46.8462    7.0795   16.4430 H         1 MOL     0.0618
     36 H          45.0485    7.7093   17.8988 H         1 MOL     0.0624
     37 H          43.9354    8.0180   19.4748 H         1 MOL     0.0377
     38 H          42.5704    7.3821   20.3778 H         1 MOL     0.0377
     39 H          42.7590    7.2294   16.8274 H         1 MOL     0.0629
     40 H          40.9424    7.2573   12.5428 H         1 MOL     0.0480
     41 H          40.0258    8.7481   12.2672 H         1 MOL     0.0480
     42 H          39.1164    6.3372   11.5849 H         1 MOL     0.0480
     43 H          38.0806    7.6687   12.0219 H         1 MOL     0.0480
     44 H          37.8534    6.3952   15.5181 H         1 MOL     0.0480
     45 H          36.9386    7.4386   14.4438 H         1 MOL     0.0480
     46 H          39.0977    8.1542   15.9958 H         1 MOL     0.0480
     47 H          38.3538    9.0810   14.6807 H         1 MOL     0.0480
     48 H          39.5799    4.6225   12.1842 H         1 MOL     0.0394
     49 H          37.7295    3.0186   10.7222 H         1 MOL     0.0273
     50 H          36.6377    3.1944   11.7545 H         1 MOL     0.0273
     51 H          39.4369    1.8540   12.1824 H         1 MOL     0.0273
     52 H          38.6379    1.8289   13.4717 H         1 MOL     0.0273
     53 H          39.7131   10.6232   18.3752 H         1 MOL     0.0646
     54 H          41.1484    9.4662   19.9284 H         1 MOL     0.0621
     55 H          41.8657    3.2760   19.1457 H         1 MOL     0.1921
@<TRIPOS>BOND
     1    1   18 1 
     2    1   21 1 
     3    1   17 am
     4    2   20 1 
     5    2   22 am
     6    2   19 1 
     7    3    4 ar
     8    3   12 ar
     9    4   55 1 
    10    4    5 ar
    11    5    6 ar
    12    5   29 2 
    13    6    7 ar
    14    6   11 ar
    15    7    8 ar
    16    7   33 1 
    17    8    9 ar
    18    8   34 1 
    19    9   10 ar
    20    9   35 1 
    21   10   11 ar
    22   10   36 1 
    23   11   12 ar
    24   12   13 1 
    25   13   14 1 
    26   13   37 1 
    27   13   38 1 
    28   14   15 ar
    29   14   28 ar
    30   15   16 ar
    31   15   39 1 
    32   16   17 1 
    33   16   26 ar
    34   17   31 2 
    35   18   19 1 
    36   18   40 1 
    37   18   41 1 
    38   19   42 1 
    39   19   43 1 
    40   20   21 1 
    41   20   44 1 
    42   20   45 1 
    43   21   46 1 
    44   21   47 1 
    45   22   23 1 
    46   22   30 2 
    47   23   24 1 
    48   23   25 1 
    49   23   48 1 
    50   24   25 1 
    51   24   49 1 
    52   24   50 1 
    53   25   51 1 
    54   25   52 1 
    55   26   27 ar
    56   26   32 1 
    57   27   28 ar
    58   27   53 1 
    59   28   54 1 
@<TRIPOS>SUBSTRUCTURE
1 MOL         1
@<TRIPOS>MOLECULE
query molecule
   55    59     1     0     0
SMALL
NO_CHARGE

@<TRIPOS>ATOM
      1 N          42.1639  -18.3787   22.4923 N.am      1 MOL    -0.2945
      2 N          41.6337  -20.9192   22.3767 N.am      1 MOL    -0.2983
      3 N          45.5824  -20.5338   19.8193 N.ar      1 MOL    -0.1750
      4 N          45.6338  -21.4991   20.7049 N.ar      1 MOL    -0.2425
      5 C          46.2008  -21.3602   21.9115 C.ar      1 MOL     0.2725
      6 C          46.7607  -20.1443   22.2456 C.ar      1 MOL     0.0496
      7 C          47.3813  -19.9516   23.4805 C.ar      1 MOL     0.0138
      8 C          47.9527  -18.7348   23.7843 C.ar      1 MOL     0.0008
      9 C          47.8770  -17.7506   22.8215 C.ar      1 MOL     0.0007
     10 C          47.2647  -17.9280   21.5920 C.ar      1 MOL     0.0103
     11 C          46.7000  -19.1351   21.3024 C.ar      1 MOL     0.0106
     12 C          46.1143  -19.2992   20.0758 C.ar      1 MOL     0.0736
     13 C          45.9322  -18.2964   19.0344 C.3       1 MOL     0.0925
     14 C          44.9957  -17.2322   19.4902 C.ar      1 MOL    -0.0406
     15 C          43.9963  -17.6487   20.3877 C.ar      1 MOL     0.0196
     16 C          43.0778  -16.7406   20.8571 C.ar      1 MOL     0.0723
     17 C          42.0120  -17.1489   21.7999 C.2       1 MOL     0.2495
     18 C          41.1597  -18.8037   23.4131 C.3       1 MOL     0.1268
     19 C          41.1119  -20.3083   23.5716 C.3       1 MOL     0.1265
     20 C          43.0356  -20.6419   22.0456 C.3       1 MOL     0.1265
     21 C          43.3476  -19.1811   22.2453 C.3       1 MOL     0.1268
     22 C          40.8584  -21.7414   21.5539 C.2       1 MOL     0.2187
     23 C          39.4498  -22.0990   21.7412 C.3       1 MOL     0.0752
     24 C          38.4460  -21.2925   20.9486 C.3       1 MOL     0.0134
     25 C          38.5041  -21.1647   22.4065 C.3       1 MOL     0.0134
     26 C          43.0752  -15.4145   20.4948 C.ar      1 MOL     0.1355
     27 C          44.0538  -15.0080   19.6162 C.ar      1 MOL     0.0392
     28 C          44.9920  -15.9321   19.1345 C.ar      1 MOL     0.0066
     29 O          46.2586  -22.2735   22.7744 O.2       1 MOL    -0.2658
     30 O          41.4216  -22.2465   20.5180 O.2       1 MOL    -0.2753
     31 O          40.9935  -16.4482   22.0009 O.2       1 MOL    -0.2699
     32 F          42.1402  -14.5515   20.9885 F         1 MOL    -0.2047
     33 H          47.4119  -20.7209   24.1677 H         1 MOL     0.0625
     34 H          48.4164  -18.5683   24.6901 H         1 MOL     0.0618
     35 H          48.2996  -16.8326   23.0282 H         1 MOL     0.0618
     36 H          47.2354  -17.1585   20.9048 H         1 MOL     0.0624
     37 H          45.5332  -18.7656   18.1595 H         1 MOL     0.0377
     38 H          46.8799  -17.8497   18.8157 H         1 MOL     0.0377
     39 H          43.9527  -18.6334   20.6927 H         1 MOL     0.0629
     40 H          40.2072  -18.4656   23.0612 H         1 MOL     0.0480
     41 H          41.3996  -18.3852   24.3689 H         1 MOL     0.0480
     42 H          40.1005  -20.6216   23.7237 H         1 MOL     0.0480
     43 H          41.6995  -20.6027   24.4163 H         1 MOL     0.0480
     44 H          43.2149  -20.9029   21.0236 H         1 MOL     0.0480
     45 H          43.6646  -21.2198   22.6901 H         1 MOL     0.0480
     46 H          43.8315  -18.8115   21.3653 H         1 MOL     0.0480
     47 H          43.9741  -19.1018   23.1081 H         1 MOL     0.0480
     48 H          39.6967  -23.1290   21.8908 H         1 MOL     0.0394
     49 H          37.6128  -21.7801   20.4867 H         1 MOL     0.0273
     50 H          38.5029  -20.6115   20.1252 H         1 MOL     0.0273
     51 H          37.7068  -21.5531   23.0052 H         1 MOL     0.0273
     52 H          38.6167  -20.3416   23.0795 H         1 MOL     0.0273
     53 H          44.0967  -14.0221   19.3122 H         1 MOL     0.0646
     54 H          45.7152  -15.6011   18.4763 H         1 MOL     0.0621
     55 H          45.2354  -22.3692   20.4721 H         1 MOL     0.1921
@<TRIPOS>BOND
     1    1   18 1 
     2    1   21 1 
     3    1   17 am
     4    2   20 1 
     5    2   22 am
     6    2   19 1 
     7    3    4 ar
     8    3   12 ar
     9    4   55 1 
    10    4    5 ar
    11    5    6 ar
    12    5   29 2 
    13    6    7 ar
    14    6   11 ar
    15    7    8 ar
    16    7   33 1 
    17    8    9 ar
    18    8   34 1 
    19    9   10 ar
    20    9   35 1 
    21   10   11 ar
    22   10   36 1 
    23   11   12 ar
    24   12   13 1 
    25   13   14 1 
    26   13   37 1 
    27   13   38 1 
    28   14   15 ar
    29   14   28 ar
    30   15   16 ar
    31   15   39 1 
    32   16   17 1 
    33   16   26 ar
    34   17   31 2 
    35   18   19 1 
    36   18   40 1 
    37   18   41 1 
    38   19   42 1 
    39   19   43 1 
    40   20   21 1 
    41   20   44 1 
    42   20   45 1 
    43   21   46 1 
    44   21   47 1 
    45   22   23 1 
    46   22   30 2 
    47   23   24 1 
    48   23   25 1 
    49   23   48 1 
    50   24   25 1 
    51   24   49 1 
    52   24   50 1 
    53   25   51 1 
    54   25   52 1 
    55   26   27 ar
    56   26   32 1 
    57   27   28 ar
    58   27   53 1 
    59   28   54 1 
@<TRIPOS>SUBSTRUCTURE
1 MOL         1
@<TRIPOS>MOLECULE
query molecule
   55    59     1     0     0
SMALL
NO_CHARGE

@<TRIPOS>ATOM
      1 N          24.9531  -13.2291    8.7000 N.am      1 MOL    -0.2945
      2 N          25.3969  -14.4619   10.9431 N.am      1 MOL    -0.2983
      3 N          24.0101  -18.5773    4.9018 N.ar      1 MOL    -0.1750
      4 N          24.4337  -19.4075    3.9799 N.ar      1 MOL    -0.2425
      5 C          23.6238  -19.9809    3.0787 C.ar      1 MOL     0.2725
      6 C          22.2760  -19.6882    3.1168 C.ar      1 MOL     0.0496
      7 C          21.3859  -20.2727    2.2151 C.ar      1 MOL     0.0138
      8 C          20.0405  -19.9820    2.2855 C.ar      1 MOL     0.0008
      9 C          19.6408  -19.1063    3.2726 C.ar      1 MOL     0.0007
     10 C          20.5129  -18.5193    4.1742 C.ar      1 MOL     0.0103
     11 C          21.8425  -18.8116    4.0943 C.ar      1 MOL     0.0106
     12 C          22.6885  -18.2365    5.0043 C.ar      1 MOL     0.0736
     13 C          22.3599  -17.2541    6.0290 C.3       1 MOL     0.0925
     14 C          22.9838  -15.9394    5.7134 C.ar      1 MOL    -0.0406
     15 C          23.1746  -15.0806    6.8105 C.ar      1 MOL     0.0196
     16 C          23.7342  -13.8402    6.6183 C.ar      1 MOL     0.0723
     17 C          23.9447  -12.9124    7.7524 C.2       1 MOL     0.2495
     18 C          25.1888  -12.3563    9.8044 C.3       1 MOL     0.1268
     19 C          25.7754  -13.0739   11.0010 C.3       1 MOL     0.1265
     20 C          25.8795  -15.2357    9.7940 C.3       1 MOL     0.1265
     21 C          25.7271  -14.4434    8.5211 C.3       1 MOL     0.1268
     22 C          24.6057  -15.0659   11.9247 C.2       1 MOL     0.2187
     23 C          24.0392  -14.4276   13.1158 C.3       1 MOL     0.0752
     24 C          22.5300  -14.3928   13.1997 C.3       1 MOL     0.0134
     25 C          23.2844  -13.1510   13.0153 C.3       1 MOL     0.0134
     26 C          24.1306  -13.3742    5.3872 C.ar      1 MOL     0.1355
     27 C          23.9433  -14.2156    4.3140 C.ar      1 MOL     0.0392
     28 C          23.3717  -15.4815    4.5064 C.ar      1 MOL     0.0066
     29 O          24.0114  -20.7782    2.1866 O.2       1 MOL    -0.2658
     30 O          24.3343  -16.3118   11.7859 O.2       1 MOL    -0.2753
     31 O          23.2668  -11.8691    7.8967 O.2       1 MOL    -0.2699
     32 F          24.6812  -12.1331    5.2480 F         1 MOL    -0.2047
     33 H          21.7353  -20.9230    1.4939 H         1 MOL     0.0625
     34 H          19.3637  -20.4010    1.6300 H         1 MOL     0.0618
     35 H          18.6377  -18.8762    3.3436 H         1 MOL     0.0618
     36 H          20.1625  -17.8699    4.8959 H         1 MOL     0.0624
     37 H          22.7222  -17.5977    6.9754 H         1 MOL     0.0377
     38 H          21.2972  -17.1313    6.0615 H         1 MOL     0.0377
     39 H          22.8948  -15.3808    7.7572 H         1 MOL     0.0629
     40 H          24.2594  -11.9110   10.0933 H         1 MOL     0.0480
     41 H          25.8989  -11.6200    9.4886 H         1 MOL     0.0480
     42 H          25.4005  -12.6359   11.9020 H         1 MOL     0.0480
     43 H          26.8421  -12.9875   10.9883 H         1 MOL     0.0480
     44 H          25.3133  -16.1400    9.7149 H         1 MOL     0.0480
     45 H          26.9157  -15.4602    9.9381 H         1 MOL     0.0480
     46 H          25.2357  -15.0560    7.7941 H         1 MOL     0.0480
     47 H          26.7064  -14.1552    8.2033 H         1 MOL     0.0480
     48 H          24.8586  -14.7542   13.7212 H         1 MOL     0.0394
     49 H          22.0411  -14.5888   14.1313 H         1 MOL     0.0273
     50 H          21.7314  -14.8789   12.6793 H         1 MOL     0.0273
     51 H          23.3368  -12.4388   13.8122 H         1 MOL     0.0273
     52 H          23.2514  -12.3571   12.2998 H         1 MOL     0.0273
     53 H          24.2243  -13.9142    3.3672 H         1 MOL     0.0646
     54 H          23.2420  -16.0927    3.6846 H         1 MOL     0.0621
     55 H          25.3948  -19.6199    3.9477 H         1 MOL     0.1921
@<TRIPOS>BOND
     1    1   18 1 
     2    1   21 1 
     3    1   17 am
     4    2   20 1 
     5    2   22 am
     6    2   19 1 
     7    3    4 ar
     8    3   12 ar
     9    4   55 1 
    10    4    5 ar
    11    5    6 ar
    12    5   29 2 
    13    6    7 ar
    14    6   11 ar
    15    7    8 ar
    16    7   33 1 
    17    8    9 ar
    18    8   34 1 
    19    9   10 ar
    20    9   35 1 
    21   10   11 ar
    22   10   36 1 
    23   11   12 ar
    24   12   13 1 
    25   13   14 1 
    26   13   37 1 
    27   13   38 1 
    28   14   15 ar
    29   14   28 ar
    30   15   16 ar
    31   15   39 1 
    32   16   17 1 
    33   16   26 ar
    34   17   31 2 
    35   18   19 1 
    36   18   40 1 
    37   18   41 1 
    38   19   42 1 
    39   19   43 1 
    40   20   21 1 
    41   20   44 1 
    42   20   45 1 
    43   21   46 1 
    44   21   47 1 
    45   22   23 1 
    46   22   30 2 
    47   23   24 1 
    48   23   25 1 
    49   23   48 1 
    50   24   25 1 
    51   24   49 1 
    52   24   50 1 
    53   25   51 1 
    54   25   52 1 
    55   26   27 ar
    56   26   32 1 
    57   27   28 ar
    58   27   53 1 
    59   28   54 1 
@<TRIPOS>SUBSTRUCTURE
1 MOL         1
@<TRIPOS>MOLECULE
query molecule
   55    59     1     0     0
SMALL
NO_CHARGE

@<TRIPOS>ATOM
      1 N          41.0478  -18.5223   17.1187 N.am      1 MOL    -0.2945
      2 N          42.1414  -18.0901   19.4351 N.am      1 MOL    -0.2983
      3 N          43.6917  -23.9692   17.3592 N.ar      1 MOL    -0.1750
      4 N          44.7832  -24.0501   18.0808 N.ar      1 MOL    -0.2425
      5 C          46.0040  -24.2120   17.5514 C.ar      1 MOL     0.2725
      6 C          46.1263  -24.2992   16.1799 C.ar      1 MOL     0.0496
      7 C          47.3709  -24.4880   15.5779 C.ar      1 MOL     0.0138
      8 C          47.4666  -24.5938   14.2071 C.ar      1 MOL     0.0008
      9 C          46.2923  -24.5057   13.4897 C.ar      1 MOL     0.0007
     10 C          45.0506  -24.3189   14.0738 C.ar      1 MOL     0.0103
     11 C          44.9673  -24.2129   15.4309 C.ar      1 MOL     0.0106
     12 C          43.7302  -24.0461   15.9933 C.ar      1 MOL     0.0736
     13 C          42.4558  -23.8758   15.3078 C.3       1 MOL     0.0925
     14 C          42.2694  -22.4577   14.8935 C.ar      1 MOL    -0.0406
     15 C          41.4750  -21.6758   15.7509 C.ar      1 MOL     0.0196
     16 C          41.2364  -20.3567   15.4478 C.ar      1 MOL     0.0723
     17 C          40.4016  -19.5087   16.3284 C.2       1 MOL     0.2495
     18 C          40.2759  -17.6823   17.9764 C.3       1 MOL     0.1268
     19 C          41.0687  -17.1700   19.1596 C.3       1 MOL     0.1265
     20 C          43.1491  -18.2707   18.3845 C.3       1 MOL     0.1265
     21 C          42.4904  -18.3904   17.0343 C.3       1 MOL     0.1268
     22 C          42.2381  -18.7913   20.6406 C.2       1 MOL     0.2187
     23 C          41.3098  -18.7300   21.7726 C.3       1 MOL     0.0752
     24 C          41.8581  -19.1755   23.1095 C.3       1 MOL     0.0134
     25 C          40.8280  -19.9698   22.4363 C.3       1 MOL     0.0134
     26 C          41.7401  -19.7369   14.3288 C.ar      1 MOL     0.1355
     27 C          42.5175  -20.5033   13.4903 C.ar      1 MOL     0.0392
     28 C          42.7621  -21.8498   13.7960 C.ar      1 MOL     0.0066
     29 O          47.0622  -24.2904   18.2266 O.2       1 MOL    -0.2658
     30 O          43.2393  -19.5788   20.7915 O.2       1 MOL    -0.2753
     31 O          39.1573  -19.6357   16.3941 O.2       1 MOL    -0.2699
     32 F          41.4737  -18.4233   14.0713 F         1 MOL    -0.2047
     33 H          48.2212  -24.5480   16.1597 H         1 MOL     0.0625
     34 H          48.3750  -24.7330   13.7394 H         1 MOL     0.0618
     35 H          46.3415  -24.5837   12.4623 H         1 MOL     0.0618
     36 H          44.2005  -24.2602   13.4914 H         1 MOL     0.0624
     37 H          41.6610  -24.1576   15.9666 H         1 MOL     0.0377
     38 H          42.4487  -24.4931   14.4336 H         1 MOL     0.0377
     39 H          41.0720  -22.0913   16.6050 H         1 MOL     0.0629
     40 H          39.4391  -18.2414   18.3406 H         1 MOL     0.0480
     41 H          39.9652  -16.8333   17.4031 H         1 MOL     0.0480
     42 H          40.4303  -17.0952   20.0146 H         1 MOL     0.0480
     43 H          41.4684  -16.2025   18.9366 H         1 MOL     0.0480
     44 H          43.7093  -19.1605   18.5822 H         1 MOL     0.0480
     45 H          43.7980  -17.4199   18.3770 H         1 MOL     0.0480
     46 H          42.8825  -19.2537   16.5382 H         1 MOL     0.0480
     47 H          42.6989  -17.4913   16.4947 H         1 MOL     0.0480
     48 H          40.8170  -17.8725   21.3650 H         1 MOL     0.0394
     49 H          41.6170  -18.6273   23.9964 H         1 MOL     0.0273
     50 H          42.8346  -19.3744   23.4989 H         1 MOL     0.0273
     51 H          39.8376  -20.0057   22.8399 H         1 MOL     0.0273
     52 H          40.7507  -20.9941   22.1397 H         1 MOL     0.0273
     53 H          42.9207  -20.0861   12.6361 H         1 MOL     0.0646
     54 H          43.3481  -22.4022   13.1502 H         1 MOL     0.0621
     55 H          44.7021  -23.9881   19.0603 H         1 MOL     0.1921
@<TRIPOS>BOND
     1    1   18 1 
     2    1   21 1 
     3    1   17 am
     4    2   20 1 
     5    2   22 am
     6    2   19 1 
     7    3    4 ar
     8    3   12 ar
     9    4   55 1 
    10    4    5 ar
    11    5    6 ar
    12    5   29 2 
    13    6    7 ar
    14    6   11 ar
    15    7    8 ar
    16    7   33 1 
    17    8    9 ar
    18    8   34 1 
    19    9   10 ar
    20    9   35 1 
    21   10   11 ar
    22   10   36 1 
    23   11   12 ar
    24   12   13 1 
    25   13   14 1 
    26   13   37 1 
    27   13   38 1 
    28   14   15 ar
    29   14   28 ar
    30   15   16 ar
    31   15   39 1 
    32   16   17 1 
    33   16   26 ar
    34   17   31 2 
    35   18   19 1 
    36   18   40 1 
    37   18   41 1 
    38   19   42 1 
    39   19   43 1 
    40   20   21 1 
    41   20   44 1 
    42   20   45 1 
    43   21   46 1 
    44   21   47 1 
    45   22   23 1 
    46   22   30 2 
    47   23   24 1 
    48   23   25 1 
    49   23   48 1 
    50   24   25 1 
    51   24   49 1 
    52   24   50 1 
    53   25   51 1 
    54   25   52 1 
    55   26   27 ar
    56   26   32 1 
    57   27   28 ar
    58   27   53 1 
    59   28   54 1 
@<TRIPOS>SUBSTRUCTURE
1 MOL         1
@<TRIPOS>MOLECULE
query molecule
   55    59     1     0     0
SMALL
NO_CHARGE

@<TRIPOS>ATOM
      1 N          -1.9698  -21.5108   22.7354 N.am      1 MOL    -0.2945
      2 N          -3.7343  -21.7469   24.6273 N.am      1 MOL    -0.2983
      3 N           0.4687  -20.1179   16.8590 N.ar      1 MOL    -0.1750
      4 N           0.1352  -21.1069   16.0657 N.ar      1 MOL    -0.2425
      5 C          -1.1347  -21.4075   15.7595 C.ar      1 MOL     0.2725
      6 C          -2.1469  -20.6430   16.3024 C.ar      1 MOL     0.0496
      7 C          -3.4867  -20.9249   16.0328 C.ar      1 MOL     0.0138
      8 C          -4.4819  -20.1609   16.6033 C.ar      1 MOL     0.0008
      9 C          -4.0840  -19.1338   17.4327 C.ar      1 MOL     0.0007
     10 C          -2.7585  -18.8431   17.7094 C.ar      1 MOL     0.0103
     11 C          -1.7814  -19.6035   17.1377 C.ar      1 MOL     0.0106
     12 C          -0.4769  -19.3138   17.4356 C.ar      1 MOL     0.0736
     13 C           0.0287  -18.2109   18.2425 C.3       1 MOL     0.0925
     14 C          -0.5774  -18.2360   19.6024 C.ar      1 MOL    -0.0406
     15 C          -0.4140  -19.4367   20.3161 C.ar      1 MOL     0.0196
     16 C          -0.9472  -19.5604   21.5767 C.ar      1 MOL     0.0723
     17 C          -0.7951  -20.8124   22.3517 C.2       1 MOL     0.2495
     18 C          -1.8633  -22.7242   23.4793 C.3       1 MOL     0.1268
     19 C          -3.0857  -22.9972   24.3292 C.3       1 MOL     0.1265
     20 C          -4.2568  -20.9809   23.4906 C.3       1 MOL     0.1265
     21 C          -3.2623  -20.9694   22.3583 C.3       1 MOL     0.1268
     22 C          -3.8706  -21.2641   25.9322 C.2       1 MOL     0.2187
     23 C          -3.3925  -21.9014   27.1620 C.3       1 MOL     0.0752
     24 C          -1.9833  -22.4479   27.1255 C.3       1 MOL     0.0134
     25 C          -3.1238  -23.3625   27.2132 C.3       1 MOL     0.0134
     26 C          -1.6489  -18.5563   22.2007 C.ar      1 MOL     0.1355
     27 C          -1.8084  -17.3815   21.5011 C.ar      1 MOL     0.0392
     28 C          -1.2664  -17.2523   20.2143 C.ar      1 MOL     0.0066
     29 O          -1.4742  -22.3507   15.0001 O.2       1 MOL    -0.2658
     30 O          -4.4753  -20.1442   26.0916 O.2       1 MOL    -0.2753
     31 O           0.3269  -21.2666   22.6737 O.2       1 MOL    -0.2699
     32 F          -2.1600  -18.7285   23.4544 F         1 MOL    -0.2047
     33 H          -3.7330  -21.7059   15.4048 H         1 MOL     0.0625
     34 H          -5.4787  -20.3495   16.4187 H         1 MOL     0.0618
     35 H          -4.8132  -18.5506   17.8711 H         1 MOL     0.0618
     36 H          -2.5130  -18.0626   18.3385 H         1 MOL     0.0624
     37 H          -0.2152  -17.2846   17.7654 H         1 MOL     0.0377
     38 H           1.0900  -18.3105   18.3373 H         1 MOL     0.0377
     39 H           0.1047  -20.2226   19.8944 H         1 MOL     0.0629
     40 H          -1.0081  -22.6594   24.1195 H         1 MOL     0.0480
     41 H          -1.7718  -23.5269   22.7769 H         1 MOL     0.0480
     42 H          -2.7908  -23.4756   25.2394 H         1 MOL     0.0480
     43 H          -3.7593  -23.6387   23.7999 H         1 MOL     0.0480
     44 H          -4.4475  -19.9750   23.8009 H         1 MOL     0.0480
     45 H          -5.1614  -21.4400   23.1500 H         1 MOL     0.0480
     46 H          -3.1262  -19.9590   22.0333 H         1 MOL     0.0480
     47 H          -3.6546  -21.5891   21.5803 H         1 MOL     0.0480
     48 H          -3.9681  -21.2357   27.7702 H         1 MOL     0.0394
     49 H          -1.3363  -22.3166   27.9678 H         1 MOL     0.0273
     50 H          -1.1465  -22.3408   26.4673 H         1 MOL     0.0273
     51 H          -3.3014  -23.9038   28.1191 H         1 MOL     0.0273
     52 H          -3.4523  -24.2030   26.6396 H         1 MOL     0.0273
     53 H          -2.3271  -16.5955   21.9245 H         1 MOL     0.0646
     54 H          -1.4007  -16.3609   19.7113 H         1 MOL     0.0621
     55 H           0.8535  -21.6557   15.6750 H         1 MOL     0.1921
@<TRIPOS>BOND
     1    1   18 1 
     2    1   21 1 
     3    1   17 am
     4    2   20 1 
     5    2   22 am
     6    2   19 1 
     7    3    4 ar
     8    3   12 ar
     9    4   55 1 
    10    4    5 ar
    11    5    6 ar
    12    5   29 2 
    13    6    7 ar
    14    6   11 ar
    15    7    8 ar
    16    7   33 1 
    17    8    9 ar
    18    8   34 1 
    19    9   10 ar
    20    9   35 1 
    21   10   11 ar
    22   10   36 1 
    23   11   12 ar
    24   12   13 1 
    25   13   14 1 
    26   13   37 1 
    27   13   38 1 
    28   14   15 ar
    29   14   28 ar
    30   15   16 ar
    31   15   39 1 
    32   16   17 1 
    33   16   26 ar
    34   17   31 2 
    35   18   19 1 
    36   18   40 1 
    37   18   41 1 
    38   19   42 1 
    39   19   43 1 
    40   20   21 1 
    41   20   44 1 
    42   20   45 1 
    43   21   46 1 
    44   21   47 1 
    45   22   23 1 
    46   22   30 2 
    47   23   24 1 
    48   23   25 1 
    49   23   48 1 
    50   24   25 1 
    51   24   49 1 
    52   24   50 1 
    53   25   51 1 
    54   25   52 1 
    55   26   27 ar
    56   26   32 1 
    57   27   28 ar
    58   27   53 1 
    59   28   54 1 
@<TRIPOS>SUBSTRUCTURE
1 MOL         1
@<TRIPOS>MOLECULE
query molecule
   55    59     1     0     0
SMALL
NO_CHARGE

@<TRIPOS>ATOM
      1 N          52.5549    4.8443    8.4451 N.am      1 MOL    -0.2945
      2 N          52.3054    3.0271    6.6055 N.am      1 MOL    -0.2983
      3 N          55.2141    2.7829   15.9981 N.ar      1 MOL    -0.1750
      4 N          55.3388    3.2266   17.2254 N.ar      1 MOL    -0.2425
      5 C          55.3394    4.5298   17.5394 C.ar      1 MOL     0.2725
      6 C          55.2029    5.4565   16.5264 C.ar      1 MOL     0.0496
      7 C          55.2171    6.8256   16.7954 C.ar      1 MOL     0.0138
      8 C          55.1006    7.7335   15.7650 C.ar      1 MOL     0.0008
      9 C          54.9747    7.2209   14.4912 C.ar      1 MOL     0.0007
     10 C          54.9594    5.8651   14.2097 C.ar      1 MOL     0.0103
     11 C          55.0727    4.9750   15.2367 C.ar      1 MOL     0.0106
     12 C          55.0735    3.6386   14.9393 C.ar      1 MOL     0.0736
     13 C          54.8777    3.0160   13.6366 C.3       1 MOL     0.0925
     14 C          53.7528    3.6661   12.9092 C.ar      1 MOL    -0.0406
     15 C          54.0581    4.1400   11.6208 C.ar      1 MOL     0.0196
     16 C          53.0877    4.7646   10.8745 C.ar      1 MOL     0.0723
     17 C          53.3790    5.2772    9.5167 C.2       1 MOL     0.2495
     18 C          52.8017    5.3207    7.1225 C.3       1 MOL     0.1268
     19 C          52.3239    4.3581    6.0566 C.3       1 MOL     0.1265
     20 C          51.3992    2.7854    7.7335 C.3       1 MOL     0.1265
     21 C          51.4713    3.9199    8.7228 C.3       1 MOL     0.1268
     22 C          53.1061    1.9969    6.1039 C.2       1 MOL     0.2187
     23 C          54.0652    2.0843    4.9995 C.3       1 MOL     0.0752
     24 C          53.8489    1.1249    3.8510 C.3       1 MOL     0.0134
     25 C          55.0170    0.9768    4.7220 C.3       1 MOL     0.0134
     26 C          51.8020    4.9596   11.3206 C.ar      1 MOL     0.1355
     27 C          51.5043    4.4953   12.5819 C.ar      1 MOL     0.0392
     28 C          52.4924    3.8585   13.3464 C.ar      1 MOL     0.0066
     29 O          55.4564    4.9745   18.7100 O.2       1 MOL    -0.2658
     30 O          53.0063    0.8437    6.6565 O.2       1 MOL    -0.2753
     31 O          54.3201    6.0723    9.2905 O.2       1 MOL    -0.2699
     32 F          50.8738    5.5868   10.5411 F         1 MOL    -0.2047
     33 H          55.3143    7.1591   17.7672 H         1 MOL     0.0625
     34 H          55.1079    8.7499   15.9389 H         1 MOL     0.0618
     35 H          54.8875    7.8835   13.7053 H         1 MOL     0.0618
     36 H          54.8633    5.5323   13.2374 H         1 MOL     0.0624
     37 H          54.6564    1.9779   13.7720 H         1 MOL     0.0377
     38 H          55.7722    3.1319   13.0605 H         1 MOL     0.0377
     39 H          55.0083    4.0195   11.2370 H         1 MOL     0.0629
     40 H          53.8548    5.4694    7.0031 H         1 MOL     0.0480
     41 H          52.2570    6.2342    7.0011 H         1 MOL     0.0480
     42 H          52.9873    4.3923    5.2181 H         1 MOL     0.0480
     43 H          51.3405    4.6321    5.7352 H         1 MOL     0.0480
     44 H          51.6787    1.8753    8.2217 H         1 MOL     0.0480
     45 H          50.3976    2.7136    7.3639 H         1 MOL     0.0480
     46 H          51.6151    3.5114    9.7014 H         1 MOL     0.0480
     47 H          50.5561    4.4679    8.6500 H         1 MOL     0.0480
     48 H          54.1809    3.1385    5.1395 H         1 MOL     0.0394
     49 H          53.9722    1.4610    2.8425 H         1 MOL     0.0273
     50 H          53.0498    0.4851    3.5392 H         1 MOL     0.0273
     51 H          55.9929    1.1977    4.3427 H         1 MOL     0.0273
     52 H          55.4179    0.1733    5.3025 H         1 MOL     0.0273
     53 H          50.5529    4.6161   12.9646 H         1 MOL     0.0646
     54 H          52.2428    3.5202   14.2892 H         1 MOL     0.0621
     55 H          55.4362    2.5698   17.9527 H         1 MOL     0.1921
@<TRIPOS>BOND
     1    1   18 1 
     2    1   21 1 
     3    1   17 am
     4    2   20 1 
     5    2   22 am
     6    2   19 1 
     7    3    4 ar
     8    3   12 ar
     9    4   55 1 
    10    4    5 ar
    11    5    6 ar
    12    5   29 2 
    13    6    7 ar
    14    6   11 ar
    15    7    8 ar
    16    7   33 1 
    17    8    9 ar
    18    8   34 1 
    19    9   10 ar
    20    9   35 1 
    21   10   11 ar
    22   10   36 1 
    23   11   12 ar
    24   12   13 1 
    25   13   14 1 
    26   13   37 1 
    27   13   38 1 
    28   14   15 ar
    29   14   28 ar
    30   15   16 ar
    31   15   39 1 
    32   16   17 1 
    33   16   26 ar
    34   17   31 2 
    35   18   19 1 
    36   18   40 1 
    37   18   41 1 
    38   19   42 1 
    39   19   43 1 
    40   20   21 1 
    41   20   44 1 
    42   20   45 1 
    43   21   46 1 
    44   21   47 1 
    45   22   23 1 
    46   22   30 2 
    47   23   24 1 
    48   23   25 1 
    49   23   48 1 
    50   24   25 1 
    51   24   49 1 
    52   24   50 1 
    53   25   51 1 
    54   25   52 1 
    55   26   27 ar
    56   26   32 1 
    57   27   28 ar
    58   27   53 1 
    59   28   54 1 
@<TRIPOS>SUBSTRUCTURE
1 MOL         1
@<TRIPOS>MOLECULE
query molecule
   55    59     1     0     0
SMALL
NO_CHARGE

@<TRIPOS>ATOM
      1 N          17.9664    0.0395    2.1721 N.am      1 MOL    -0.2945
      2 N          16.2704   -0.9654    0.4804 N.am      1 MOL    -0.2983
      3 N          23.4712    2.5617    3.5316 N.ar      1 MOL    -0.1750
      4 N          23.9707    2.5310    4.7433 N.ar      1 MOL    -0.2425
      5 C          24.6542    1.4858    5.2304 C.ar      1 MOL     0.2725
      6 C          24.8455    0.3835    4.4229 C.ar      1 MOL     0.0496
      7 C          25.5321   -0.7392    4.8867 C.ar      1 MOL     0.0138
      8 C          25.6927   -1.8374    4.0696 C.ar      1 MOL     0.0008
      9 C          25.1481   -1.7609    2.8052 C.ar      1 MOL     0.0007
     10 C          24.4641   -0.6536    2.3320 C.ar      1 MOL     0.0103
     11 C          24.3131    0.4288    3.1476 C.ar      1 MOL     0.0106
     12 C          23.6191    1.5083    2.6704 C.ar      1 MOL     0.0736
     13 C          23.0741    1.6960    1.3322 C.3       1 MOL     0.0925
     14 C          21.7240    2.3204    1.3994 C.ar      1 MOL    -0.0406
     15 C          20.7312    1.5500    2.0309 C.ar      1 MOL     0.0196
     16 C          19.4501    2.0369    2.1328 C.ar      1 MOL     0.0723
     17 C          18.3825    1.2485    2.7887 C.2       1 MOL     0.2495
     18 C          16.9431   -0.7503    2.7771 C.3       1 MOL     0.1268
     19 C          16.1858   -1.5930    1.7735 C.3       1 MOL     0.1265
     20 C          17.6077   -0.8304   -0.1073 C.3       1 MOL     0.1265
     21 C          18.5976   -0.3681    0.9307 C.3       1 MOL     0.1268
     22 C          15.1437   -0.4973   -0.2021 C.2       1 MOL     0.2187
     23 C          13.7527   -0.5460    0.2558 C.3       1 MOL     0.0752
     24 C          13.5394   -0.9393    1.7001 C.3       1 MOL     0.0134
     25 C          13.1119   -1.8359    0.6237 C.3       1 MOL     0.0134
     26 C          19.0682    3.2635    1.6435 C.ar      1 MOL     0.1355
     27 C          20.0407    4.0167    1.0255 C.ar      1 MOL     0.0392
     28 C          21.3487    3.5225    0.9189 C.ar      1 MOL     0.0066
     29 O          25.1418    1.4383    6.3888 O.2       1 MOL    -0.2658
     30 O          15.3258    0.0363   -1.3542 O.2       1 MOL    -0.2753
     31 O          17.8436    1.6140    3.8586 O.2       1 MOL    -0.2699
     32 F          17.7820    3.7024    1.7690 F         1 MOL    -0.2047
     33 H          25.9210   -0.7472    5.8426 H         1 MOL     0.0625
     34 H          26.1966   -2.6782    4.3897 H         1 MOL     0.0618
     35 H          25.2558   -2.5727    2.1779 H         1 MOL     0.0618
     36 H          24.0744   -0.6468    1.3762 H         1 MOL     0.0624
     37 H          22.9989    0.7458    0.8460 H         1 MOL     0.0377
     38 H          23.7251    2.3432    0.7819 H         1 MOL     0.0377
     39 H          20.9640    0.6217    2.4163 H         1 MOL     0.0629
     40 H          16.2515   -0.0973    3.2677 H         1 MOL     0.0480
     41 H          17.4158   -1.4173    3.4684 H         1 MOL     0.0480
     42 H          15.1608   -1.6701    2.0697 H         1 MOL     0.0480
     43 H          16.6112   -2.5741    1.7295 H         1 MOL     0.0480
     44 H          17.5729   -0.1156   -0.9026 H         1 MOL     0.0480
     45 H          17.9197   -1.7834   -0.4807 H         1 MOL     0.0480
     46 H          19.1422    0.4645    0.5366 H         1 MOL     0.0480
     47 H          19.2385   -1.1944    1.1534 H         1 MOL     0.0480
     48 H          13.4753    0.2558   -0.3957 H         1 MOL     0.0394
     49 H          12.8095   -0.4273    2.2920 H         1 MOL     0.0273
     50 H          14.1693   -1.0337    2.5599 H         1 MOL     0.0273
     51 H          12.0682   -1.9824    0.4384 H         1 MOL     0.0273
     52 H          13.3042   -2.8602    0.3852 H         1 MOL     0.0273
     53 H          19.8066    4.9459    0.6408 H         1 MOL     0.0646
     54 H          22.0588    4.1074    0.4505 H         1 MOL     0.0621
     55 H          23.8376    3.3151    5.3241 H         1 MOL     0.1921
@<TRIPOS>BOND
     1    1   18 1 
     2    1   21 1 
     3    1   17 am
     4    2   20 1 
     5    2   22 am
     6    2   19 1 
     7    3    4 ar
     8    3   12 ar
     9    4   55 1 
    10    4    5 ar
    11    5    6 ar
    12    5   29 2 
    13    6    7 ar
    14    6   11 ar
    15    7    8 ar
    16    7   33 1 
    17    8    9 ar
    18    8   34 1 
    19    9   10 ar
    20    9   35 1 
    21   10   11 ar
    22   10   36 1 
    23   11   12 ar
    24   12   13 1 
    25   13   14 1 
    26   13   37 1 
    27   13   38 1 
    28   14   15 ar
    29   14   28 ar
    30   15   16 ar
    31   15   39 1 
    32   16   17 1 
    33   16   26 ar
    34   17   31 2 
    35   18   19 1 
    36   18   40 1 
    37   18   41 1 
    38   19   42 1 
    39   19   43 1 
    40   20   21 1 
    41   20   44 1 
    42   20   45 1 
    43   21   46 1 
    44   21   47 1 
    45   22   23 1 
    46   22   30 2 
    47   23   24 1 
    48   23   25 1 
    49   23   48 1 
    50   24   25 1 
    51   24   49 1 
    52   24   50 1 
    53   25   51 1 
    54   25   52 1 
    55   26   27 ar
    56   26   32 1 
    57   27   28 ar
    58   27   53 1 
    59   28   54 1 
@<TRIPOS>SUBSTRUCTURE
1 MOL         1
@<TRIPOS>MOLECULE
query molecule
   55    59     1     0     0
SMALL
NO_CHARGE

@<TRIPOS>ATOM
      1 N          43.3567    4.0024   34.0616 N.am      1 MOL    -0.2945
      2 N          41.9508    6.1869   34.0647 N.am      1 MOL    -0.2983
      3 N          40.7938   -2.8854   35.8119 N.ar      1 MOL    -0.1750
      4 N          39.6986   -3.1871   36.4661 N.ar      1 MOL    -0.2425
      5 C          39.1687   -2.4016   37.4142 C.ar      1 MOL     0.2725
      6 C          39.8016   -1.2151   37.7231 C.ar      1 MOL     0.0496
      7 C          39.3039   -0.3699   38.7156 C.ar      1 MOL     0.0138
      8 C          39.9647    0.8001   39.0222 C.ar      1 MOL     0.0008
      9 C          41.1134    1.0743   38.3105 C.ar      1 MOL     0.0007
     10 C          41.6188    0.2447   37.3235 C.ar      1 MOL     0.0103
     11 C          40.9559   -0.9093   37.0261 C.ar      1 MOL     0.0106
     12 C          41.4787   -1.7267   36.0600 C.ar      1 MOL     0.0736
     13 C          42.6423   -1.4798   35.2185 C.3       1 MOL     0.0925
     14 C          42.3288   -0.4635   34.1763 C.ar      1 MOL    -0.0406
     15 C          43.1413    0.6842   34.1858 C.ar      1 MOL     0.0196
     16 C          42.9228    1.6840   33.2685 C.ar      1 MOL     0.0723
     17 C          43.7587    2.9056   33.2552 C.2       1 MOL     0.2495
     18 C          44.1396    5.1955   34.0788 C.3       1 MOL     0.1268
     19 C          43.3249    6.4236   34.4238 C.3       1 MOL     0.1265
     20 C          41.2599    5.0960   34.7607 C.3       1 MOL     0.1265
     21 C          42.1486    3.8826   34.8566 C.3       1 MOL     0.1268
     22 C          41.2853    6.9479   33.0992 C.2       1 MOL     0.2187
     23 C          41.8392    8.0532   32.3127 C.3       1 MOL     0.0752
     24 C          43.2772    8.4215   32.6005 C.3       1 MOL     0.0134
     25 C          42.1973    9.3457   32.9539 C.3       1 MOL     0.0134
     26 C          41.9330    1.6303   32.3159 C.ar      1 MOL     0.1355
     27 C          41.1382    0.5064   32.3075 C.ar      1 MOL     0.0392
     28 C          41.3578   -0.5151   33.2427 C.ar      1 MOL     0.0066
     29 O          38.1189   -2.6730   38.0514 O.2       1 MOL    -0.2658
     30 O          40.0575    6.6635   32.8606 O.2       1 MOL    -0.2753
     31 O          44.7975    2.9967   32.5613 O.2       1 MOL    -0.2699
     32 F          41.7555    2.6503   31.4266 F         1 MOL    -0.2047
     33 H          38.4395   -0.6207   39.2205 H         1 MOL     0.0625
     34 H          39.6161    1.4407   39.7511 H         1 MOL     0.0618
     35 H          41.6241    1.9445   38.5253 H         1 MOL     0.0618
     36 H          42.4841    0.4956   36.8197 H         1 MOL     0.0624
     37 H          42.9335   -2.3932   34.7433 H         1 MOL     0.0377
     38 H          43.4388   -1.1103   35.8304 H         1 MOL     0.0377
     39 H          43.8993    0.7757   34.8798 H         1 MOL     0.0629
     40 H          44.5748    5.3335   33.1108 H         1 MOL     0.0480
     41 H          44.8876    5.0804   34.8360 H         1 MOL     0.0480
     42 H          43.6985    7.2666   33.8814 H         1 MOL     0.0480
     43 H          43.3969    6.6235   35.4728 H         1 MOL     0.0480
     44 H          40.3723    4.8396   34.2212 H         1 MOL     0.0480
     45 H          41.0103    5.4193   35.7498 H         1 MOL     0.0480
     46 H          41.6000    3.0295   34.5154 H         1 MOL     0.0480
     47 H          42.4462    3.7828   35.8787 H         1 MOL     0.0480
     48 H          41.2437    7.7913   31.4635 H         1 MOL     0.0394
     49 H          43.9409    8.6568   31.7947 H         1 MOL     0.0273
     50 H          44.0850    7.9615   33.1304 H         1 MOL     0.0273
     51 H          42.0812   10.2591   32.4088 H         1 MOL     0.0273
     52 H          41.9026    9.8391   33.8555 H         1 MOL     0.0273
     53 H          40.3804    0.4158   31.6121 H         1 MOL     0.0646
     54 H          40.7473   -1.3470   33.2149 H         1 MOL     0.0621
     55 H          39.2423   -4.0325   36.2496 H         1 MOL     0.1921
@<TRIPOS>BOND
     1    1   18 1 
     2    1   21 1 
     3    1   17 am
     4    2   20 1 
     5    2   22 am
     6    2   19 1 
     7    3    4 ar
     8    3   12 ar
     9    4   55 1 
    10    4    5 ar
    11    5    6 ar
    12    5   29 2 
    13    6    7 ar
    14    6   11 ar
    15    7    8 ar
    16    7   33 1 
    17    8    9 ar
    18    8   34 1 
    19    9   10 ar
    20    9   35 1 
    21   10   11 ar
    22   10   36 1 
    23   11   12 ar
    24   12   13 1 
    25   13   14 1 
    26   13   37 1 
    27   13   38 1 
    28   14   15 ar
    29   14   28 ar
    30   15   16 ar
    31   15   39 1 
    32   16   17 1 
    33   16   26 ar
    34   17   31 2 
    35   18   19 1 
    36   18   40 1 
    37   18   41 1 
    38   19   42 1 
    39   19   43 1 
    40   20   21 1 
    41   20   44 1 
    42   20   45 1 
    43   21   46 1 
    44   21   47 1 
    45   22   23 1 
    46   22   30 2 
    47   23   24 1 
    48   23   25 1 
    49   23   48 1 
    50   24   25 1 
    51   24   49 1 
    52   24   50 1 
    53   25   51 1 
    54   25   52 1 
    55   26   27 ar
    56   26   32 1 
    57   27   28 ar
    58   27   53 1 
    59   28   54 1 
@<TRIPOS>SUBSTRUCTURE
1 MOL         1
@<TRIPOS>MOLECULE
query molecule
   55    59     1     0     0
SMALL
NO_CHARGE

@<TRIPOS>ATOM
      1 N          11.1173   -4.3729    4.3296 N.am      1 MOL    -0.2945
      2 N           8.6446   -5.0849    3.9731 N.am      1 MOL    -0.2983
      3 N          10.2335   -0.0380    0.2449 N.ar      1 MOL    -0.1750
      4 N           9.4220    0.8478    0.7699 N.ar      1 MOL    -0.2425
      5 C           9.8218    1.7872    1.6384 C.ar      1 MOL     0.2725
      6 C          11.1517    1.8306    2.0035 C.ar      1 MOL     0.0496
      7 C          11.6172    2.7752    2.9190 C.ar      1 MOL     0.0138
      8 C          12.9459    2.7862    3.2852 C.ar      1 MOL     0.0008
      9 C          13.7609    1.8344    2.7098 C.ar      1 MOL     0.0007
     10 C          13.3125    0.8911    1.8004 C.ar      1 MOL     0.0103
     11 C          11.9965    0.8905    1.4428 C.ar      1 MOL     0.0106
     12 C          11.5661   -0.0597    0.5561 C.ar      1 MOL     0.0736
     13 C          12.3698   -1.0518   -0.1461 C.3       1 MOL     0.0925
     14 C          12.9710   -2.0154    0.8168 C.ar      1 MOL    -0.0406
     15 C          12.2575   -2.1995    2.0146 C.ar      1 MOL     0.0196
     16 C          12.7381   -3.0617    2.9708 C.ar      1 MOL     0.0723
     17 C          12.0119   -3.2742    4.2432 C.2       1 MOL     0.2495
     18 C          10.4027   -4.6129    5.5415 C.3       1 MOL     0.1268
     19 C           9.0978   -5.3455    5.3146 C.3       1 MOL     0.1265
     20 C           9.5053   -5.5466    2.8786 C.3       1 MOL     0.1265
     21 C          10.9497   -5.2335    3.1732 C.3       1 MOL     0.1268
     22 C           7.4436   -4.4229    3.7017 C.2       1 MOL     0.2187
     23 C           6.4893   -3.8924    4.6790 C.3       1 MOL     0.0752
     24 C           5.4973   -2.8768    4.1590 C.3       1 MOL     0.0134
     25 C           6.5394   -2.4688    5.1039 C.3       1 MOL     0.0134
     26 C          13.9041   -3.7755    2.8253 C.ar      1 MOL     0.1355
     27 C          14.6016   -3.5945    1.6524 C.ar      1 MOL     0.0392
     28 C          14.1146   -2.7147    0.6751 C.ar      1 MOL     0.0066
     29 O           9.0591    2.6457    2.1514 O.2       1 MOL    -0.2658
     30 O           7.1248   -4.2504    2.4713 O.2       1 MOL    -0.2753
     31 O          12.1634   -2.5212    5.2326 O.2       1 MOL    -0.2699
     32 F          14.3400   -4.6195    3.8052 F         1 MOL    -0.2047
     33 H          10.9661    3.4670    3.3222 H         1 MOL     0.0625
     34 H          13.3133    3.4745    3.9594 H         1 MOL     0.0618
     35 H          14.7588    1.8244    2.9713 H         1 MOL     0.0618
     36 H          13.9641    0.1988    1.3985 H         1 MOL     0.0624
     37 H          13.1517   -0.5560   -0.6826 H         1 MOL     0.0377
     38 H          11.7397   -1.5902   -0.8231 H         1 MOL     0.0377
     39 H          11.3758   -1.6883    2.1753 H         1 MOL     0.0629
     40 H          10.1916   -3.6724    6.0065 H         1 MOL     0.0480
     41 H          11.0175   -5.2318    6.1620 H         1 MOL     0.0480
     42 H           8.3661   -5.0014    6.0149 H         1 MOL     0.0480
     43 H           9.2440   -6.3970    5.4507 H         1 MOL     0.0480
     44 H           9.2173   -5.0562    1.9725 H         1 MOL     0.0480
     45 H           9.3965   -6.6061    2.7758 H         1 MOL     0.0480
     46 H          11.3741   -4.7447    2.3211 H         1 MOL     0.0480
     47 H          11.4412   -6.1583    3.3883 H         1 MOL     0.0480
     48 H           6.4673   -4.8204    5.2107 H         1 MOL     0.0394
     49 H           4.4753   -2.9171    4.4737 H         1 MOL     0.0273
     50 H           5.1848   -2.5518    3.1886 H         1 MOL     0.0273
     51 H           6.2727   -2.2039    6.1058 H         1 MOL     0.0273
     52 H           7.2968   -1.7142    5.0995 H         1 MOL     0.0273
     53 H          15.4836   -4.1071    1.4926 H         1 MOL     0.0646
     54 H          14.6573   -2.5971   -0.1951 H         1 MOL     0.0621
     55 H           8.4717    0.8219    0.5128 H         1 MOL     0.1921
@<TRIPOS>BOND
     1    1   18 1 
     2    1   21 1 
     3    1   17 am
     4    2   20 1 
     5    2   22 am
     6    2   19 1 
     7    3    4 ar
     8    3   12 ar
     9    4   55 1 
    10    4    5 ar
    11    5    6 ar
    12    5   29 2 
    13    6    7 ar
    14    6   11 ar
    15    7    8 ar
    16    7   33 1 
    17    8    9 ar
    18    8   34 1 
    19    9   10 ar
    20    9   35 1 
    21   10   11 ar
    22   10   36 1 
    23   11   12 ar
    24   12   13 1 
    25   13   14 1 
    26   13   37 1 
    27   13   38 1 
    28   14   15 ar
    29   14   28 ar
    30   15   16 ar
    31   15   39 1 
    32   16   17 1 
    33   16   26 ar
    34   17   31 2 
    35   18   19 1 
    36   18   40 1 
    37   18   41 1 
    38   19   42 1 
    39   19   43 1 
    40   20   21 1 
    41   20   44 1 
    42   20   45 1 
    43   21   46 1 
    44   21   47 1 
    45   22   23 1 
    46   22   30 2 
    47   23   24 1 
    48   23   25 1 
    49   23   48 1 
    50   24   25 1 
    51   24   49 1 
    52   24   50 1 
    53   25   51 1 
    54   25   52 1 
    55   26   27 ar
    56   26   32 1 
    57   27   28 ar
    58   27   53 1 
    59   28   54 1 
@<TRIPOS>SUBSTRUCTURE
1 MOL         1
@<TRIPOS>MOLECULE
query molecule
   55    59     1     0     0
SMALL
NO_CHARGE

@<TRIPOS>ATOM
      1 N           0.6640    3.1132   27.7526 N.am      1 MOL    -0.2945
      2 N           0.5658    3.2600   25.1609 N.am      1 MOL    -0.2983
      3 N          -1.1924   -0.8483   30.6566 N.ar      1 MOL    -0.1750
      4 N          -2.2673   -1.4258   30.1771 N.ar      1 MOL    -0.2425
      5 C          -2.5438   -2.7256   30.3527 C.ar      1 MOL     0.2725
      6 C          -1.6581   -3.5012   31.0723 C.ar      1 MOL     0.0496
      7 C          -1.8874   -4.8636   31.2678 C.ar      1 MOL     0.0138
      8 C          -0.9781   -5.6233   31.9718 C.ar      1 MOL     0.0008
      9 C           0.1384   -4.9740   32.4545 C.ar      1 MOL     0.0007
     10 C           0.3789   -3.6230   32.2677 C.ar      1 MOL     0.0103
     11 C          -0.5285   -2.8798   31.5718 C.ar      1 MOL     0.0106
     12 C          -0.2669   -1.5495   31.3811 C.ar      1 MOL     0.0736
     13 C           0.8477   -0.7758   31.9124 C.3       1 MOL     0.0925
     14 C           1.6588   -0.1979   30.8055 C.ar      1 MOL    -0.0406
     15 C           1.2637    1.0789   30.3679 C.ar      1 MOL     0.0196
     16 C           1.9448    1.6913   29.3433 C.ar      1 MOL     0.0723
     17 C           1.5510    3.0332   28.8580 C.2       1 MOL     0.2495
     18 C           0.2577    4.3894   27.2593 C.3       1 MOL     0.1268
     19 C          -0.1212    4.3554   25.7943 C.3       1 MOL     0.1265
     20 C           0.2496    1.9102   25.6402 C.3       1 MOL     0.1265
     21 C           0.1871    1.8843   27.1458 C.3       1 MOL     0.1268
     22 C           1.4964    3.4500   24.1351 C.2       1 MOL     0.2187
     23 C           1.9265    4.7276   23.5609 C.3       1 MOL     0.0752
     24 C           3.3255    5.1799   23.9135 C.3       1 MOL     0.0134
     25 C           2.1655    5.9138   24.4243 C.3       1 MOL     0.0134
     26 C           3.0178    1.1184   28.7025 C.ar      1 MOL     0.1355
     27 C           3.4036   -0.1313   29.1316 C.ar      1 MOL     0.0392
     28 C           2.7102   -0.7594   30.1761 C.ar      1 MOL     0.0066
     29 O          -3.5696   -3.2970   29.9020 O.2       1 MOL    -0.2658
     30 O           2.0447    2.4066   23.6292 O.2       1 MOL    -0.2753
     31 O           1.9731    4.0860   29.3891 O.2       1 MOL    -0.2699
     32 F           3.6611    1.7675   27.6888 F         1 MOL    -0.2047
     33 H          -2.7393   -5.3032   30.8855 H         1 MOL     0.0625
     34 H          -1.1259   -6.6315   32.1297 H         1 MOL     0.0618
     35 H           0.8324   -5.5245   32.9831 H         1 MOL     0.0618
     36 H           1.2317   -3.1843   32.6493 H         1 MOL     0.0624
     37 H           1.4675   -1.4138   32.5073 H         1 MOL     0.0377
     38 H           0.4598    0.0241   32.5083 H         1 MOL     0.0377
     39 H           0.4645    1.5545   30.8147 H         1 MOL     0.0629
     40 H           1.0654    5.0795   27.3887 H         1 MOL     0.0480
     41 H          -0.6098    4.6879   27.8110 H         1 MOL     0.0480
     42 H           0.1624    5.2756   25.3285 H         1 MOL     0.0480
     43 H          -1.1791    4.2260   25.6963 H         1 MOL     0.0480
     44 H           1.0072    1.2315   25.3084 H         1 MOL     0.0480
     45 H          -0.7035    1.6187   25.2508 H         1 MOL     0.0480
     46 H           0.7904    1.0741   27.4990 H         1 MOL     0.0480
     47 H          -0.8391    1.7676   27.4224 H         1 MOL     0.0480
     48 H           1.3466    4.5636   22.6771 H         1 MOL     0.0394
     49 H           3.9503    5.6203   23.1646 H         1 MOL     0.0273
     50 H           4.1828    4.7155   24.3543 H         1 MOL     0.0273
     51 H           1.9516    6.8938   24.0515 H         1 MOL     0.0273
     52 H           1.8377    6.2065   25.3990 H         1 MOL     0.0273
     53 H           4.2040   -0.6059   28.6841 H         1 MOL     0.0646
     54 H           3.0199   -1.6966   30.4784 H         1 MOL     0.0621
     55 H          -2.9032   -0.8771   29.6630 H         1 MOL     0.1921
@<TRIPOS>BOND
     1    1   18 1 
     2    1   21 1 
     3    1   17 am
     4    2   20 1 
     5    2   22 am
     6    2   19 1 
     7    3    4 ar
     8    3   12 ar
     9    4   55 1 
    10    4    5 ar
    11    5    6 ar
    12    5   29 2 
    13    6    7 ar
    14    6   11 ar
    15    7    8 ar
    16    7   33 1 
    17    8    9 ar
    18    8   34 1 
    19    9   10 ar
    20    9   35 1 
    21   10   11 ar
    22   10   36 1 
    23   11   12 ar
    24   12   13 1 
    25   13   14 1 
    26   13   37 1 
    27   13   38 1 
    28   14   15 ar
    29   14   28 ar
    30   15   16 ar
    31   15   39 1 
    32   16   17 1 
    33   16   26 ar
    34   17   31 2 
    35   18   19 1 
    36   18   40 1 
    37   18   41 1 
    38   19   42 1 
    39   19   43 1 
    40   20   21 1 
    41   20   44 1 
    42   20   45 1 
    43   21   46 1 
    44   21   47 1 
    45   22   23 1 
    46   22   30 2 
    47   23   24 1 
    48   23   25 1 
    49   23   48 1 
    50   24   25 1 
    51   24   49 1 
    52   24   50 1 
    53   25   51 1 
    54   25   52 1 
    55   26   27 ar
    56   26   32 1 
    57   27   28 ar
    58   27   53 1 
    59   28   54 1 
@<TRIPOS>SUBSTRUCTURE
1 MOL         1
@<TRIPOS>MOLECULE
query molecule
   55    59     1     0     0
SMALL
NO_CHARGE

@<TRIPOS>ATOM
      1 N          47.7668   -9.1326   33.3601 N.am      1 MOL    -0.2945
      2 N          48.3029  -10.8378   35.2451 N.am      1 MOL    -0.2983
      3 N          49.5762  -10.6184   28.9379 N.ar      1 MOL    -0.1750
      4 N          50.7743  -10.2344   29.3063 N.ar      1 MOL    -0.2425
      5 C          51.1950   -8.9640   29.2293 C.ar      1 MOL     0.2725
      6 C          50.3304   -8.0072   28.7387 C.ar      1 MOL     0.0496
      7 C          50.7241   -6.6739   28.6185 C.ar      1 MOL     0.0138
      8 C          49.8507   -5.7391   28.1057 C.ar      1 MOL     0.0008
      9 C          48.6031   -6.1894   27.7290 C.ar      1 MOL     0.0007
     10 C          48.1993   -7.5093   27.8422 C.ar      1 MOL     0.0103
     11 C          49.0703   -8.4258   28.3534 C.ar      1 MOL     0.0106
     12 C          48.6613   -9.7294   28.4421 C.ar      1 MOL     0.0736
     13 C          47.3455  -10.2732   28.1321 C.3       1 MOL     0.0925
     14 C          46.3933  -10.0072   29.2455 C.ar      1 MOL    -0.0406
     15 C          46.9480   -9.3951   30.3836 C.ar      1 MOL     0.0196
     16 C          46.1504   -9.1185   31.4681 C.ar      1 MOL     0.0723
     17 C          46.7054   -8.4781   32.6818 C.2       1 MOL     0.2495
     18 C          48.3311   -8.5436   34.5312 C.3       1 MOL     0.1268
     19 C          48.9448   -9.5674   35.4620 C.3       1 MOL     0.1265
     20 C          48.4471  -11.4373   33.9140 C.3       1 MOL     0.1265
     21 C          48.2571  -10.3960   32.8412 C.3       1 MOL     0.1268
     22 C          47.5697  -11.4884   36.2418 C.2       1 MOL     0.2187
     23 C          47.3245  -11.0148   37.6066 C.3       1 MOL     0.0752
     24 C          47.9629  -11.8191   38.7164 C.3       1 MOL     0.0134
     25 C          46.5068  -11.8114   38.5587 C.3       1 MOL     0.0134
     26 C          44.8076   -9.4102   31.5107 C.ar      1 MOL     0.1355
     27 C          44.2657  -10.0093   30.3961 C.ar      1 MOL     0.0392
     28 C          45.0768  -10.2938   29.2882 C.ar      1 MOL     0.0066
     29 O          52.3393   -8.5762   29.5788 O.2       1 MOL    -0.2658
     30 O          47.0465  -12.6227   35.9503 O.2       1 MOL    -0.2753
     31 O          46.2701   -7.3888   33.1208 O.2       1 MOL    -0.2699
     32 F          44.0577   -9.1160   32.6125 F         1 MOL    -0.2047
     33 H          51.6701   -6.3869   28.9146 H         1 MOL     0.0625
     34 H          50.1185   -4.7481   28.0077 H         1 MOL     0.0618
     35 H          47.9345   -5.5062   27.3414 H         1 MOL     0.0618
     36 H          47.2533   -7.7957   27.5449 H         1 MOL     0.0624
     37 H          47.4271  -11.3298   27.9834 H         1 MOL     0.0377
     38 H          46.9773   -9.8016   27.2448 H         1 MOL     0.0377
     39 H          47.9511   -9.1546   30.4045 H         1 MOL     0.0629
     40 H          47.5595   -8.0208   35.0574 H         1 MOL     0.0480
     41 H          49.1125   -7.8831   34.2163 H         1 MOL     0.0480
     42 H          48.8027   -9.2610   36.4769 H         1 MOL     0.0480
     43 H          49.9936   -9.6523   35.2665 H         1 MOL     0.0480
     44 H          47.7127  -12.2057   33.7918 H         1 MOL     0.0480
     45 H          49.4307  -11.8490   33.8242 H         1 MOL     0.0480
     46 H          47.5524  -10.7666   32.1263 H         1 MOL     0.0480
     47 H          49.2134  -10.2117   32.4000 H         1 MOL     0.0480
     48 H          47.2957   -9.9955   37.2832 H         1 MOL     0.0394
     49 H          48.4140  -11.3194   39.5483 H         1 MOL     0.0273
     50 H          48.7160  -12.5777   38.7648 H         1 MOL     0.0273
     51 H          45.8975  -11.3117   39.2826 H         1 MOL     0.0273
     52 H          45.7639  -12.5726   38.4499 H         1 MOL     0.0273
     53 H          43.2615  -10.2490   30.3763 H         1 MOL     0.0646
     54 H          44.6454  -10.7438   28.4654 H         1 MOL     0.0621
     55 H          51.3956  -10.9128   29.6576 H         1 MOL     0.1921
@<TRIPOS>BOND
     1    1   18 1 
     2    1   21 1 
     3    1   17 am
     4    2   20 1 
     5    2   22 am
     6    2   19 1 
     7    3    4 ar
     8    3   12 ar
     9    4   55 1 
    10    4    5 ar
    11    5    6 ar
    12    5   29 2 
    13    6    7 ar
    14    6   11 ar
    15    7    8 ar
    16    7   33 1 
    17    8    9 ar
    18    8   34 1 
    19    9   10 ar
    20    9   35 1 
    21   10   11 ar
    22   10   36 1 
    23   11   12 ar
    24   12   13 1 
    25   13   14 1 
    26   13   37 1 
    27   13   38 1 
    28   14   15 ar
    29   14   28 ar
    30   15   16 ar
    31   15   39 1 
    32   16   17 1 
    33   16   26 ar
    34   17   31 2 
    35   18   19 1 
    36   18   40 1 
    37   18   41 1 
    38   19   42 1 
    39   19   43 1 
    40   20   21 1 
    41   20   44 1 
    42   20   45 1 
    43   21   46 1 
    44   21   47 1 
    45   22   23 1 
    46   22   30 2 
    47   23   24 1 
    48   23   25 1 
    49   23   48 1 
    50   24   25 1 
    51   24   49 1 
    52   24   50 1 
    53   25   51 1 
    54   25   52 1 
    55   26   27 ar
    56   26   32 1 
    57   27   28 ar
    58   27   53 1 
    59   28   54 1 
@<TRIPOS>SUBSTRUCTURE
1 MOL         1
@<TRIPOS>MOLECULE
query molecule
   55    59     1     0     0
SMALL
NO_CHARGE

@<TRIPOS>ATOM
      1 N          48.3840    4.4894   19.1541 N.am      1 MOL    -0.2945
      2 N          50.5290    3.4705   20.2073 N.am      1 MOL    -0.2983
      3 N          45.9912    9.5380   22.9684 N.ar      1 MOL    -0.1750
      4 N          46.3793   10.7713   22.7516 N.ar      1 MOL    -0.2425
      5 C          47.6448   11.1827   22.9128 C.ar      1 MOL     0.2725
      6 C          48.5919   10.2691   23.3277 C.ar      1 MOL     0.0496
      7 C          49.9192   10.6487   23.5304 C.ar      1 MOL     0.0138
      8 C          50.8437    9.7238   23.9657 C.ar      1 MOL     0.0008
      9 C          50.3893    8.4403   24.1832 C.ar      1 MOL     0.0007
     10 C          49.0753    8.0497   23.9865 C.ar      1 MOL     0.0103
     11 C          48.1690    8.9721   23.5532 C.ar      1 MOL     0.0106
     12 C          46.8706    8.5737   23.3807 C.ar      1 MOL     0.0736
     13 C          46.3250    7.2299   23.5215 C.3       1 MOL     0.0925
     14 C          45.8755    6.7063   22.2020 C.ar      1 MOL    -0.0406
     15 C          46.8988    6.4458   21.2732 C.ar      1 MOL     0.0196
     16 C          46.5825    5.9697   20.0234 C.ar      1 MOL     0.0723
     17 C          47.6367    5.6891   19.0228 C.2       1 MOL     0.2495
     18 C          49.4055    4.1819   18.2059 C.3       1 MOL     0.1268
     19 C          50.4851    3.2895   18.7796 C.3       1 MOL     0.1265
     20 C          49.3263    3.1018   20.9619 C.3       1 MOL     0.1265
     21 C          48.0883    3.5964   20.2590 C.3       1 MOL     0.1268
     22 C          51.6546    3.9740   20.8660 C.2       1 MOL     0.2187
     23 C          52.9173    4.3974   20.2550 C.3       1 MOL     0.0752
     24 C          53.4037    3.5692   19.0872 C.3       1 MOL     0.0134
     25 C          54.1374    3.5541   20.3548 C.3       1 MOL     0.0134
     26 C          45.2933    5.7251   19.6135 C.ar      1 MOL     0.1355
     27 C          44.2924    5.9805   20.5234 C.ar      1 MOL     0.0392
     28 C          44.6115    6.4672   21.7991 C.ar      1 MOL     0.0066
     29 O          48.0364   12.3603   22.7087 O.2       1 MOL    -0.2658
     30 O          51.5958    4.0859   22.1424 O.2       1 MOL    -0.2753
     31 O          47.8839    6.4707   18.0758 O.2       1 MOL    -0.2699
     32 F          45.0305    5.2526   18.3603 F         1 MOL    -0.2047
     33 H          50.2095   11.6231   23.3536 H         1 MOL     0.0625
     34 H          51.8301    9.9804   24.1221 H         1 MOL     0.0618
     35 H          51.0649    7.7327   24.5105 H         1 MOL     0.0618
     36 H          48.7855    7.0753   24.1646 H         1 MOL     0.0624
     37 H          45.4917    7.2565   24.1922 H         1 MOL     0.0377
     38 H          47.0887    6.5856   23.9048 H         1 MOL     0.0377
     39 H          47.8844    6.6118   21.5294 H         1 MOL     0.0629
     40 H          49.8548    5.0962   17.8780 H         1 MOL     0.0480
     41 H          48.9461    3.6540   17.3958 H         1 MOL     0.0480
     42 H          51.4311    3.5513   18.3544 H         1 MOL     0.0480
     43 H          50.2700    2.2666   18.5496 H         1 MOL     0.0480
     44 H          49.3744    3.5382   21.9375 H         1 MOL     0.0480
     45 H          49.2774    2.0354   21.0363 H         1 MOL     0.0480
     46 H          47.4800    4.1204   20.9665 H         1 MOL     0.0480
     47 H          47.5858    2.7432   19.8557 H         1 MOL     0.0480
     48 H          52.7126    5.4260   20.4653 H         1 MOL     0.0394
     49 H          53.8266    4.0497   18.2296 H         1 MOL     0.0273
     50 H          52.9689    2.8241   18.4542 H         1 MOL     0.0273
     51 H          55.0999    4.0177   20.4161 H         1 MOL     0.0273
     52 H          54.4598    2.7827   21.0213 H         1 MOL     0.0273
     53 H          43.3065    5.8133   20.2660 H         1 MOL     0.0646
     54 H          43.8420    6.6508   22.4622 H         1 MOL     0.0621
     55 H          45.7078   11.4277   22.4550 H         1 MOL     0.1921
@<TRIPOS>BOND
     1    1   18 1 
     2    1   21 1 
     3    1   17 am
     4    2   20 1 
     5    2   22 am
     6    2   19 1 
     7    3    4 ar
     8    3   12 ar
     9    4   55 1 
    10    4    5 ar
    11    5    6 ar
    12    5   29 2 
    13    6    7 ar
    14    6   11 ar
    15    7    8 ar
    16    7   33 1 
    17    8    9 ar
    18    8   34 1 
    19    9   10 ar
    20    9   35 1 
    21   10   11 ar
    22   10   36 1 
    23   11   12 ar
    24   12   13 1 
    25   13   14 1 
    26   13   37 1 
    27   13   38 1 
    28   14   15 ar
    29   14   28 ar
    30   15   16 ar
    31   15   39 1 
    32   16   17 1 
    33   16   26 ar
    34   17   31 2 
    35   18   19 1 
    36   18   40 1 
    37   18   41 1 
    38   19   42 1 
    39   19   43 1 
    40   20   21 1 
    41   20   44 1 
    42   20   45 1 
    43   21   46 1 
    44   21   47 1 
    45   22   23 1 
    46   22   30 2 
    47   23   24 1 
    48   23   25 1 
    49   23   48 1 
    50   24   25 1 
    51   24   49 1 
    52   24   50 1 
    53   25   51 1 
    54   25   52 1 
    55   26   27 ar
    56   26   32 1 
    57   27   28 ar
    58   27   53 1 
    59   28   54 1 
@<TRIPOS>SUBSTRUCTURE
1 MOL         1
@<TRIPOS>MOLECULE
query molecule
   55    59     1     0     0
SMALL
NO_CHARGE

@<TRIPOS>ATOM
      1 N          43.1666   11.7924   31.6655 N.am      1 MOL    -0.2945
      2 N          44.0177   12.6169   33.9772 N.am      1 MOL    -0.2983
      3 N          47.2797   15.0076   29.9018 N.ar      1 MOL    -0.1750
      4 N          47.8339   15.2733   31.0597 N.ar      1 MOL    -0.2425
      5 C          48.7608   14.4895   31.6282 C.ar      1 MOL     0.2725
      6 C          49.1565   13.3441   30.9685 C.ar      1 MOL     0.0496
      7 C          50.1030   12.4826   31.5245 C.ar      1 MOL     0.0138
      8 C          50.4673   11.3330   30.8573 C.ar      1 MOL     0.0008
      9 C          49.8563   11.0935   29.6446 C.ar      1 MOL     0.0007
     10 C          48.9154   11.9393   29.0813 C.ar      1 MOL     0.0103
     11 C          48.5638   13.0755   29.7484 C.ar      1 MOL     0.0106
     12 C          47.6194   13.8917   29.1859 C.ar      1 MOL     0.0736
     13 C          46.9789   13.7480   27.8850 C.3       1 MOL     0.0925
     14 C          45.5378   13.4094   28.0453 C.ar      1 MOL    -0.0406
     15 C          45.2354   12.5343   29.1038 C.ar      1 MOL     0.0196
     16 C          43.9334   12.1545   29.3260 C.ar      1 MOL     0.0723
     17 C          43.5837   11.2321   30.4297 C.2       1 MOL     0.2495
     18 C          42.8165   10.9351   32.7515 C.3       1 MOL     0.1268
     19 C          43.0145   11.5915   34.1009 C.3       1 MOL     0.1265
     20 C          43.7170   13.7369   33.0788 C.3       1 MOL     0.1265
     21 C          43.1052   13.2364   31.7957 C.3       1 MOL     0.1268
     22 C          45.2306   12.5681   34.6706 C.2       1 MOL     0.2187
     23 C          45.6803   11.5166   35.5867 C.3       1 MOL     0.0752
     24 C          46.3873   10.3390   34.9547 C.3       1 MOL     0.0134
     25 C          45.0656   10.1634   35.5607 C.3       1 MOL     0.0134
     26 C          42.8794   12.5890   28.5576 C.ar      1 MOL     0.1355
     27 C          43.1766   13.4455   27.5217 C.ar      1 MOL     0.0392
     28 C          44.5041   13.8342   27.2917 C.ar      1 MOL     0.0066
     29 O          49.3045   14.7281   32.7369 O.2       1 MOL    -0.2658
     30 O          46.0524   13.5380   34.4997 O.2       1 MOL    -0.2753
     31 O          43.6446    9.9874   30.3047 O.2       1 MOL    -0.2699
     32 F          41.6031   12.1821   28.8184 F         1 MOL    -0.2047
     33 H          50.5314   12.7067   32.4362 H         1 MOL     0.0625
     34 H          51.1646   10.6814   31.2477 H         1 MOL     0.0618
     35 H          50.1138   10.2378   29.1294 H         1 MOL     0.0618
     36 H          48.4865   11.7139   28.1699 H         1 MOL     0.0624
     37 H          47.4651   12.9679   27.3372 H         1 MOL     0.0377
     38 H          47.0574   14.6756   27.3571 H         1 MOL     0.0377
     39 H          45.9890   12.1780   29.7119 H         1 MOL     0.0629
     40 H          43.4263   10.0568   32.7047 H         1 MOL     0.0480
     41 H          41.7765   10.7001   32.6555 H         1 MOL     0.0480
     42 H          43.3336   10.8599   34.8130 H         1 MOL     0.0480
     43 H          42.0931   12.0232   34.4327 H         1 MOL     0.0480
     44 H          44.6217   14.2623   32.8550 H         1 MOL     0.0480
     45 H          43.0201   14.3902   33.5609 H         1 MOL     0.0480
     46 H          43.6304   13.6748   30.9728 H         1 MOL     0.0480
     47 H          42.0726   13.5137   31.8029 H         1 MOL     0.0480
     48 H          45.8660   12.2274   36.3643 H         1 MOL     0.0394
     49 H          47.2519    9.9187   35.4247 H         1 MOL     0.0273
     50 H          46.8133   10.1385   33.9938 H         1 MOL     0.0273
     51 H          44.9683    9.6067   36.4693 H         1 MOL     0.0273
     52 H          44.1319    9.7737   35.2149 H         1 MOL     0.0273
     53 H          42.4214   13.8018   26.9144 H         1 MOL     0.0646
     54 H          44.6996   14.4771   26.5080 H         1 MOL     0.0621
     55 H          47.5557   16.0897   31.5351 H         1 MOL     0.1921
@<TRIPOS>BOND
     1    1   18 1 
     2    1   21 1 
     3    1   17 am
     4    2   20 1 
     5    2   22 am
     6    2   19 1 
     7    3    4 ar
     8    3   12 ar
     9    4   55 1 
    10    4    5 ar
    11    5    6 ar
    12    5   29 2 
    13    6    7 ar
    14    6   11 ar
    15    7    8 ar
    16    7   33 1 
    17    8    9 ar
    18    8   34 1 
    19    9   10 ar
    20    9   35 1 
    21   10   11 ar
    22   10   36 1 
    23   11   12 ar
    24   12   13 1 
    25   13   14 1 
    26   13   37 1 
    27   13   38 1 
    28   14   15 ar
    29   14   28 ar
    30   15   16 ar
    31   15   39 1 
    32   16   17 1 
    33   16   26 ar
    34   17   31 2 
    35   18   19 1 
    36   18   40 1 
    37   18   41 1 
    38   19   42 1 
    39   19   43 1 
    40   20   21 1 
    41   20   44 1 
    42   20   45 1 
    43   21   46 1 
    44   21   47 1 
    45   22   23 1 
    46   22   30 2 
    47   23   24 1 
    48   23   25 1 
    49   23   48 1 
    50   24   25 1 
    51   24   49 1 
    52   24   50 1 
    53   25   51 1 
    54   25   52 1 
    55   26   27 ar
    56   26   32 1 
    57   27   28 ar
    58   27   53 1 
    59   28   54 1 
@<TRIPOS>SUBSTRUCTURE
1 MOL         1
@<TRIPOS>MOLECULE
query molecule
   55    59     1     0     0
SMALL
NO_CHARGE

@<TRIPOS>ATOM
      1 N           4.2279    3.0103   21.7847 N.am      1 MOL    -0.2945
      2 N           6.4064    4.3482   22.2460 N.am      1 MOL    -0.2983
      3 N          -0.4649    0.5665   25.1404 N.ar      1 MOL    -0.1750
      4 N          -0.3370    0.0794   26.3507 N.ar      1 MOL    -0.2425
      5 C          -0.8740    0.6553   27.4355 C.ar      1 MOL     0.2725
      6 C          -1.5985    1.8191   27.2789 C.ar      1 MOL     0.0496
      7 C          -2.1618    2.4705   28.3768 C.ar      1 MOL     0.0138
      8 C          -2.8635    3.6434   28.1992 C.ar      1 MOL     0.0008
      9 C          -2.9695    4.1193   26.9094 C.ar      1 MOL     0.0007
     10 C          -2.4154    3.4836   25.8109 C.ar      1 MOL     0.0103
     11 C          -1.7253    2.3223   25.9973 C.ar      1 MOL     0.0106
     12 C          -1.1689    1.7160   24.9030 C.ar      1 MOL     0.0736
     13 C          -1.2909    2.1134   23.5065 C.3       1 MOL     0.0925
     14 C          -0.2641    3.1351   23.1611 C.ar      1 MOL    -0.0406
     15 C           0.8042    2.6766   22.3698 C.ar      1 MOL     0.0196
     16 C           1.8075    3.5433   22.0076 C.ar      1 MOL     0.0723
     17 C           2.9469    3.0901   21.1783 C.2       1 MOL     0.2495
     18 C           5.3499    2.5730   21.0186 C.3       1 MOL     0.1268
     19 C           6.6616    3.1196   21.5399 C.3       1 MOL     0.1265
     20 C           5.5574    4.2655   23.4394 C.3       1 MOL     0.1265
     21 C           4.3668    3.3783   23.1815 C.3       1 MOL     0.1268
     22 C           6.9317    5.5755   21.8313 C.2       1 MOL     0.2187
     23 C           7.7783    5.8215   20.6610 C.3       1 MOL     0.0752
     24 C           7.4993    7.0927   19.8913 C.3       1 MOL     0.0134
     25 C           7.2134    5.7898   19.2864 C.3       1 MOL     0.0134
     26 C           1.8321    4.8664   22.3799 C.ar      1 MOL     0.1355
     27 C           0.7859    5.3141   23.1545 C.ar      1 MOL     0.0392
     28 C          -0.2389    4.4322   23.5268 C.ar      1 MOL     0.0066
     29 O          -0.7634    0.2027   28.6037 O.2       1 MOL    -0.2658
     30 O           6.6538    6.6100   22.5370 O.2       1 MOL    -0.2753
     31 O           2.8134    2.7789   19.9725 O.2       1 MOL    -0.2699
     32 F           2.8521    5.6874   21.9948 F         1 MOL    -0.2047
     33 H          -2.0537    2.0733   29.3232 H         1 MOL     0.0625
     34 H          -3.2891    4.1425   28.9948 H         1 MOL     0.0618
     35 H          -3.4895    4.9967   26.7545 H         1 MOL     0.0618
     36 H          -2.5229    3.8821   24.8648 H         1 MOL     0.0624
     37 H          -2.2653    2.5233   23.3407 H         1 MOL     0.0377
     38 H          -1.1409    1.2528   22.8882 H         1 MOL     0.0377
     39 H           0.8350    1.6922   22.0624 H         1 MOL     0.0629
     40 H           5.2212    2.8974   20.0068 H         1 MOL     0.0480
     41 H           5.3933    1.5057   21.0893 H         1 MOL     0.0480
     42 H           7.3239    3.3062   20.7209 H         1 MOL     0.0480
     43 H           7.1140    2.4087   22.1997 H         1 MOL     0.0480
     44 H           5.2156    5.2458   23.6978 H         1 MOL     0.0480
     45 H           6.1290    3.8501   24.2430 H         1 MOL     0.0480
     46 H           3.4818    3.8968   23.4863 H         1 MOL     0.0480
     47 H           4.5122    2.4765   23.7373 H         1 MOL     0.0480
     48 H           8.6159    5.3447   21.1252 H         1 MOL     0.0394
     49 H           8.3113    7.6861   19.5256 H         1 MOL     0.0273
     50 H           6.9344    7.9821   20.0778 H         1 MOL     0.0273
     51 H           7.8141    5.4392   18.4732 H         1 MOL     0.0273
     52 H           6.3464    5.3460   18.8452 H         1 MOL     0.0273
     53 H           0.7560    6.2996   23.4610 H         1 MOL     0.0646
     54 H          -1.0115    4.7935   24.1082 H         1 MOL     0.0621
     55 H           0.1788   -0.7512   26.4685 H         1 MOL     0.1921
@<TRIPOS>BOND
     1    1   18 1 
     2    1   21 1 
     3    1   17 am
     4    2   20 1 
     5    2   22 am
     6    2   19 1 
     7    3    4 ar
     8    3   12 ar
     9    4   55 1 
    10    4    5 ar
    11    5    6 ar
    12    5   29 2 
    13    6    7 ar
    14    6   11 ar
    15    7    8 ar
    16    7   33 1 
    17    8    9 ar
    18    8   34 1 
    19    9   10 ar
    20    9   35 1 
    21   10   11 ar
    22   10   36 1 
    23   11   12 ar
    24   12   13 1 
    25   13   14 1 
    26   13   37 1 
    27   13   38 1 
    28   14   15 ar
    29   14   28 ar
    30   15   16 ar
    31   15   39 1 
    32   16   17 1 
    33   16   26 ar
    34   17   31 2 
    35   18   19 1 
    36   18   40 1 
    37   18   41 1 
    38   19   42 1 
    39   19   43 1 
    40   20   21 1 
    41   20   44 1 
    42   20   45 1 
    43   21   46 1 
    44   21   47 1 
    45   22   23 1 
    46   22   30 2 
    47   23   24 1 
    48   23   25 1 
    49   23   48 1 
    50   24   25 1 
    51   24   49 1 
    52   24   50 1 
    53   25   51 1 
    54   25   52 1 
    55   26   27 ar
    56   26   32 1 
    57   27   28 ar
    58   27   53 1 
    59   28   54 1 
@<TRIPOS>SUBSTRUCTURE
1 MOL         1
@<TRIPOS>MOLECULE
query molecule
   55    59     1     0     0
SMALL
NO_CHARGE

@<TRIPOS>ATOM
      1 N          47.9229  -20.1278    5.6751 N.am      1 MOL    -0.2945
      2 N          45.4868  -20.6600    6.4034 N.am      1 MOL    -0.2983
      3 N          51.6642  -20.5369    1.1973 N.ar      1 MOL    -0.1750
      4 N          52.1641  -21.7093    1.5039 N.ar      1 MOL    -0.2425
      5 C          53.1971  -21.8714    2.3427 C.ar      1 MOL     0.2725
      6 C          53.7683  -20.7537    2.9156 C.ar      1 MOL     0.0496
      7 C          54.8583  -20.8642    3.7799 C.ar      1 MOL     0.0138
      8 C          55.4263  -19.7323    4.3238 C.ar      1 MOL     0.0008
      9 C          54.8691  -18.5215    3.9706 C.ar      1 MOL     0.0007
     10 C          53.7880  -18.3971    3.1141 C.ar      1 MOL     0.0103
     11 C          53.2317  -19.5235    2.5833 C.ar      1 MOL     0.0106
     12 C          52.1748  -19.3817    1.7247 C.ar      1 MOL     0.0736
     13 C          51.4864  -18.1519    1.3548 C.3       1 MOL     0.0925
     14 C          50.1540  -18.0785    2.0155 C.ar      1 MOL    -0.0406
     15 C          50.1030  -18.5698    3.3322 C.ar      1 MOL     0.0196
     16 C          48.9144  -18.5541    4.0220 C.ar      1 MOL     0.0723
     17 C          48.8279  -19.0673    5.4078 C.2       1 MOL     0.2495
     18 C          47.8150  -20.6525    6.9980 C.3       1 MOL     0.1268
     19 C          46.4599  -21.2682    7.2731 C.3       1 MOL     0.1265
     20 C          45.6750  -20.8474    4.9607 C.3       1 MOL     0.1265
     21 C          47.1226  -20.6579    4.5869 C.3       1 MOL     0.1268
     22 C          44.4049  -19.9197    6.8887 C.2       1 MOL     0.2187
     23 C          44.0911  -19.6335    8.2911 C.3       1 MOL     0.0752
     24 C          43.5719  -20.7946    9.1086 C.3       1 MOL     0.0134
     25 C          42.6898  -19.6710    8.7857 C.3       1 MOL     0.0134
     26 C          47.7406  -18.0744    3.4911 C.ar      1 MOL     0.1355
     27 C          47.7916  -17.5938    2.2021 C.ar      1 MOL     0.0392
     28 C          49.0025  -17.6092    1.4951 C.ar      1 MOL     0.0066
     29 O          53.6896  -22.9871    2.6499 O.2       1 MOL    -0.2658
     30 O          43.5878  -19.4288    6.0304 O.2       1 MOL    -0.2753
     31 O          49.5222  -18.5979    6.3386 O.2       1 MOL    -0.2699
     32 F          46.5849  -18.0811    4.2170 F         1 MOL    -0.2047
     33 H          55.2393  -21.7945    4.0128 H         1 MOL     0.0625
     34 H          56.2318  -19.7886    4.9651 H         1 MOL     0.0618
     35 H          55.2801  -17.6618    4.3657 H         1 MOL     0.0618
     36 H          53.4081  -17.4662    2.8807 H         1 MOL     0.0624
     37 H          51.3549  -18.1274    0.2931 H         1 MOL     0.0377
     38 H          52.0751  -17.3172    1.6744 H         1 MOL     0.0377
     39 H          50.9555  -18.9414    3.7790 H         1 MOL     0.0629
     40 H          47.9786  -19.8578    7.6959 H         1 MOL     0.0480
     41 H          48.5483  -21.4257    7.0999 H         1 MOL     0.0480
     42 H          46.1878  -21.0966    8.2933 H         1 MOL     0.0480
     43 H          46.4979  -22.3227    7.0945 H         1 MOL     0.0480
     44 H          45.0792  -20.1334    4.4317 H         1 MOL     0.0480
     45 H          45.3788  -21.8417    4.6989 H         1 MOL     0.0480
     46 H          47.1765  -19.9779    3.7624 H         1 MOL     0.0480
     47 H          47.5180  -21.6194    4.3372 H         1 MOL     0.0480
     48 H          44.8760  -18.9094    8.3536 H         1 MOL     0.0394
     49 H          43.9124  -20.9365   10.1132 H         1 MOL     0.0273
     50 H          43.5283  -21.8554    8.9746 H         1 MOL     0.0273
     51 H          42.3815  -18.9992    9.5594 H         1 MOL     0.0273
     52 H          41.7309  -19.5848    8.3204 H         1 MOL     0.0273
     53 H          46.9379  -17.2216    1.7563 H         1 MOL     0.0646
     54 H          49.0132  -17.2432    0.5300 H         1 MOL     0.0621
     55 H          51.7603  -22.5107    1.0982 H         1 MOL     0.1921
@<TRIPOS>BOND
     1    1   18 1 
     2    1   21 1 
     3    1   17 am
     4    2   20 1 
     5    2   22 am
     6    2   19 1 
     7    3    4 ar
     8    3   12 ar
     9    4   55 1 
    10    4    5 ar
    11    5    6 ar
    12    5   29 2 
    13    6    7 ar
    14    6   11 ar
    15    7    8 ar
    16    7   33 1 
    17    8    9 ar
    18    8   34 1 
    19    9   10 ar
    20    9   35 1 
    21   10   11 ar
    22   10   36 1 
    23   11   12 ar
    24   12   13 1 
    25   13   14 1 
    26   13   37 1 
    27   13   38 1 
    28   14   15 ar
    29   14   28 ar
    30   15   16 ar
    31   15   39 1 
    32   16   17 1 
    33   16   26 ar
    34   17   31 2 
    35   18   19 1 
    36   18   40 1 
    37   18   41 1 
    38   19   42 1 
    39   19   43 1 
    40   20   21 1 
    41   20   44 1 
    42   20   45 1 
    43   21   46 1 
    44   21   47 1 
    45   22   23 1 
    46   22   30 2 
    47   23   24 1 
    48   23   25 1 
    49   23   48 1 
    50   24   25 1 
    51   24   49 1 
    52   24   50 1 
    53   25   51 1 
    54   25   52 1 
    55   26   27 ar
    56   26   32 1 
    57   27   28 ar
    58   27   53 1 
    59   28   54 1 
@<TRIPOS>SUBSTRUCTURE
1 MOL         1
@<TRIPOS>MOLECULE
query molecule
   55    59     1     0     0
SMALL
NO_CHARGE

@<TRIPOS>ATOM
      1 N          49.6573   10.2551   21.9192 N.am      1 MOL    -0.2945
      2 N          51.8315   11.6626   21.7197 N.am      1 MOL    -0.2983
      3 N          51.8999    5.0956   20.0148 N.ar      1 MOL    -0.1750
      4 N          52.3666    4.1655   20.8120 N.ar      1 MOL    -0.2425
      5 C          51.8559    2.9277   20.8757 C.ar      1 MOL     0.2725
      6 C          50.7856    2.6091   20.0655 C.ar      1 MOL     0.0496
      7 C          50.2030    1.3418   20.1063 C.ar      1 MOL     0.0138
      8 C          49.1209    1.0525   19.3033 C.ar      1 MOL     0.0008
      9 C          48.6629    2.0622   18.4836 C.ar      1 MOL     0.0007
     10 C          49.2309    3.3242   18.4331 C.ar      1 MOL     0.0103
     11 C          50.3029    3.5994   19.2299 C.ar      1 MOL     0.0106
     12 C          50.8414    4.8572   19.1805 C.ar      1 MOL     0.0736
     13 C          50.4634    5.9539   18.2989 C.3       1 MOL     0.0925
     14 C          49.3896    6.7782   18.9191 C.ar      1 MOL    -0.0406
     15 C          49.7455    7.4423   20.1066 C.ar      1 MOL     0.0196
     16 C          48.8188    8.2195   20.7591 C.ar      1 MOL     0.0723
     17 C          49.1619    8.9281   22.0127 C.2       1 MOL     0.2495
     18 C          49.9945   10.9723   23.1062 C.3       1 MOL     0.1268
     19 C          51.0461   12.0344   22.8677 C.3       1 MOL     0.1265
     20 C          51.1284   11.5654   20.4359 C.3       1 MOL     0.1265
     21 C          49.8100   10.8558   20.6071 C.3       1 MOL     0.1268
     22 C          53.2023   11.4005   21.8007 C.2       1 MOL     0.2187
     23 C          54.0376   11.4412   23.0039 C.3       1 MOL     0.0752
     24 C          53.8018   10.3439   24.0170 C.3       1 MOL     0.0134
     25 C          53.4469   11.7283   24.3374 C.3       1 MOL     0.0134
     26 C          47.5308    8.3936   20.3110 C.ar      1 MOL     0.1355
     27 C          47.1835    7.7431   19.1486 C.ar      1 MOL     0.0392
     28 C          48.1264    6.9485   18.4808 C.ar      1 MOL     0.0066
     29 O          52.2905    2.0221   21.6326 O.2       1 MOL    -0.2658
     30 O          53.8129   11.0881   20.7168 O.2       1 MOL    -0.2753
     31 O          49.0285    8.3961   23.1388 O.2       1 MOL    -0.2699
     32 F          46.6467    9.1759   20.9959 F         1 MOL    -0.2047
     33 H          50.5832    0.6197   20.7381 H         1 MOL     0.0625
     34 H          48.6739    0.1233   19.3155 H         1 MOL     0.0618
     35 H          47.8529    1.8670   17.8753 H         1 MOL     0.0618
     36 H          48.8494    4.0462   17.8018 H         1 MOL     0.0624
     37 H          50.1093    5.5544   17.3715 H         1 MOL     0.0377
     38 H          51.3197    6.5738   18.1322 H         1 MOL     0.0377
     39 H          50.6997    7.3460   20.4871 H         1 MOL     0.0629
     40 H          50.3660   10.2786   23.8315 H         1 MOL     0.0480
     41 H          49.1082   11.4657   23.4484 H         1 MOL     0.0480
     42 H          51.6789   12.1127   23.7266 H         1 MOL     0.0480
     43 H          50.5743   12.9793   22.6944 H         1 MOL     0.0480
     44 H          51.7337   11.0197   19.7427 H         1 MOL     0.0480
     45 H          50.9431   12.5525   20.0668 H         1 MOL     0.0480
     46 H          49.7389   10.0840   19.8692 H         1 MOL     0.0480
     47 H          49.0362   11.5854   20.4968 H         1 MOL     0.0480
     48 H          54.8613   11.8516   22.4584 H         1 MOL     0.0394
     49 H          54.6327    9.8777   24.5043 H         1 MOL     0.0273
     50 H          53.2807    9.4093   24.0133 H         1 MOL     0.0273
     51 H          54.0164   12.2669   25.0659 H         1 MOL     0.0273
     52 H          52.5530   12.2117   24.6700 H         1 MOL     0.0273
     53 H          46.2284    7.8408   18.7686 H         1 MOL     0.0646
     54 H          47.8399    6.4714   17.6114 H         1 MOL     0.0621
     55 H          53.1307    4.3871   21.3924 H         1 MOL     0.1921
@<TRIPOS>BOND
     1    1   18 1 
     2    1   21 1 
     3    1   17 am
     4    2   20 1 
     5    2   22 am
     6    2   19 1 
     7    3    4 ar
     8    3   12 ar
     9    4   55 1 
    10    4    5 ar
    11    5    6 ar
    12    5   29 2 
    13    6    7 ar
    14    6   11 ar
    15    7    8 ar
    16    7   33 1 
    17    8    9 ar
    18    8   34 1 
    19    9   10 ar
    20    9   35 1 
    21   10   11 ar
    22   10   36 1 
    23   11   12 ar
    24   12   13 1 
    25   13   14 1 
    26   13   37 1 
    27   13   38 1 
    28   14   15 ar
    29   14   28 ar
    30   15   16 ar
    31   15   39 1 
    32   16   17 1 
    33   16   26 ar
    34   17   31 2 
    35   18   19 1 
    36   18   40 1 
    37   18   41 1 
    38   19   42 1 
    39   19   43 1 
    40   20   21 1 
    41   20   44 1 
    42   20   45 1 
    43   21   46 1 
    44   21   47 1 
    45   22   23 1 
    46   22   30 2 
    47   23   24 1 
    48   23   25 1 
    49   23   48 1 
    50   24   25 1 
    51   24   49 1 
    52   24   50 1 
    53   25   51 1 
    54   25   52 1 
    55   26   27 ar
    56   26   32 1 
    57   27   28 ar
    58   27   53 1 
    59   28   54 1 
@<TRIPOS>SUBSTRUCTURE
1 MOL         1
@<TRIPOS>MOLECULE
query molecule
   55    59     1     0     0
SMALL
NO_CHARGE

@<TRIPOS>ATOM
      1 N          41.5534  -17.3303   33.3258 N.am      1 MOL    -0.2945
      2 N          42.8529  -19.4823   33.9804 N.am      1 MOL    -0.2983
      3 N          42.2714  -17.5620   28.0544 N.ar      1 MOL    -0.1750
      4 N          41.6355  -18.4765   27.3630 N.ar      1 MOL    -0.2425
      5 C          42.2289  -19.2427   26.4369 C.ar      1 MOL     0.2725
      6 C          43.5753  -19.0661   26.1930 C.ar      1 MOL     0.0496
      7 C          44.2379  -19.8229   25.2259 C.ar      1 MOL     0.0138
      8 C          45.5787  -19.6144   24.9843 C.ar      1 MOL     0.0008
      9 C          46.2049  -18.6407   25.7331 C.ar      1 MOL     0.0007
     10 C          45.5600  -17.8821   26.6956 C.ar      1 MOL     0.0103
     11 C          44.2337  -18.0981   26.9287 C.ar      1 MOL     0.0106
     12 C          43.6073  -17.3274   27.8712 C.ar      1 MOL     0.0736
     13 C          44.2070  -16.3309   28.7489 C.3       1 MOL     0.0925
     14 C          43.1596  -15.6441   29.5541 C.ar      1 MOL    -0.0406
     15 C          42.4999  -16.4475   30.5013 C.ar      1 MOL     0.0196
     16 C          41.5098  -15.9061   31.2857 C.ar      1 MOL     0.0723
     17 C          40.7947  -16.7266   32.2890 C.2       1 MOL     0.2495
     18 C          40.8987  -18.1247   34.3144 C.3       1 MOL     0.1268
     19 C          41.8107  -19.1682   34.9229 C.3       1 MOL     0.1265
     20 C          43.7611  -18.3930   33.6054 C.3       1 MOL     0.1265
     21 C          42.9893  -17.1228   33.3560 C.3       1 MOL     0.1268
     22 C          43.0108  -20.7591   33.4336 C.2       1 MOL     0.2187
     23 C          42.1822  -21.9388   33.6959 C.3       1 MOL     0.0752
     24 C          42.9242  -23.2232   33.9887 C.3       1 MOL     0.0134
     25 C          42.1577  -23.0840   32.7485 C.3       1 MOL     0.0134
     26 C          41.1137  -14.5924   31.2005 C.ar      1 MOL     0.1355
     27 C          41.7601  -13.8069   30.2730 C.ar      1 MOL     0.0392
     28 C          42.7701  -14.3564   29.4703 C.ar      1 MOL     0.0066
     29 O          41.6364  -20.1254   25.7648 O.2       1 MOL    -0.2658
     30 O          43.9786  -20.9380   32.6110 O.2       1 MOL    -0.2753
     31 O          39.5549  -16.9004   32.2489 O.2       1 MOL    -0.2699
     32 F          40.1239  -14.1019   32.0020 F         1 MOL    -0.2047
     33 H          43.7237  -20.5402   24.6911 H         1 MOL     0.0625
     34 H          46.0899  -20.1614   24.2752 H         1 MOL     0.0618
     35 H          47.2083  -18.4677   25.5671 H         1 MOL     0.0618
     36 H          46.0747  -17.1640   27.2293 H         1 MOL     0.0624
     37 H          44.7270  -15.6071   28.1567 H         1 MOL     0.0377
     38 H          44.8861  -16.8214   29.4150 H         1 MOL     0.0377
     39 H          42.7583  -17.4408   30.6068 H         1 MOL     0.0629
     40 H          40.0663  -18.6201   33.8593 H         1 MOL     0.0480
     41 H          40.5869  -17.4691   35.1013 H         1 MOL     0.0480
     42 H          41.2487  -20.0508   35.1453 H         1 MOL     0.0480
     43 H          42.2407  -18.7908   35.8274 H         1 MOL     0.0480
     44 H          44.2884  -18.6642   32.7149 H         1 MOL     0.0480
     45 H          44.4506  -18.2257   34.4064 H         1 MOL     0.0480
     46 H          43.2943  -16.7170   32.4140 H         1 MOL     0.0480
     47 H          43.1997  -16.4556   34.1646 H         1 MOL     0.0480
     48 H          41.4200  -21.3430   34.1525 H         1 MOL     0.0394
     49 H          42.5776  -23.8773   34.7617 H         1 MOL     0.0273
     50 H          43.9357  -23.4750   34.2304 H         1 MOL     0.0273
     51 H          41.2560  -23.6448   32.6163 H         1 MOL     0.0273
     52 H          42.3893  -23.2002   31.7111 H         1 MOL     0.0273
     53 H          41.5009  -12.8128   30.1689 H         1 MOL     0.0646
     54 H          43.2385  -13.7456   28.7825 H         1 MOL     0.0621
     55 H          40.6744  -18.6073   27.5330 H         1 MOL     0.1921
@<TRIPOS>BOND
     1    1   18 1 
     2    1   21 1 
     3    1   17 am
     4    2   20 1 
     5    2   22 am
     6    2   19 1 
     7    3    4 ar
     8    3   12 ar
     9    4   55 1 
    10    4    5 ar
    11    5    6 ar
    12    5   29 2 
    13    6    7 ar
    14    6   11 ar
    15    7    8 ar
    16    7   33 1 
    17    8    9 ar
    18    8   34 1 
    19    9   10 ar
    20    9   35 1 
    21   10   11 ar
    22   10   36 1 
    23   11   12 ar
    24   12   13 1 
    25   13   14 1 
    26   13   37 1 
    27   13   38 1 
    28   14   15 ar
    29   14   28 ar
    30   15   16 ar
    31   15   39 1 
    32   16   17 1 
    33   16   26 ar
    34   17   31 2 
    35   18   19 1 
    36   18   40 1 
    37   18   41 1 
    38   19   42 1 
    39   19   43 1 
    40   20   21 1 
    41   20   44 1 
    42   20   45 1 
    43   21   46 1 
    44   21   47 1 
    45   22   23 1 
    46   22   30 2 
    47   23   24 1 
    48   23   25 1 
    49   23   48 1 
    50   24   25 1 
    51   24   49 1 
    52   24   50 1 
    53   25   51 1 
    54   25   52 1 
    55   26   27 ar
    56   26   32 1 
    57   27   28 ar
    58   27   53 1 
    59   28   54 1 
@<TRIPOS>SUBSTRUCTURE
1 MOL         1
@<TRIPOS>MOLECULE
query molecule
   55    59     1     0     0
SMALL
NO_CHARGE

@<TRIPOS>ATOM
      1 N          47.2010    1.8438   23.2187 N.am      1 MOL    -0.2945
      2 N          47.1732   -0.3119   21.7694 N.am      1 MOL    -0.2983
      3 N          45.1142    7.8376   20.3109 N.ar      1 MOL    -0.1750
      4 N          44.6155    9.0499   20.3293 N.ar      1 MOL    -0.2425
      5 C          45.0409   10.0320   19.5222 C.ar      1 MOL     0.2725
      6 C          46.0537    9.7618   18.6251 C.ar      1 MOL     0.0496
      7 C          46.5478   10.7528   17.7760 C.ar      1 MOL     0.0138
      8 C          47.5746   10.4656   16.9027 C.ar      1 MOL     0.0008
      9 C          48.0693    9.1786   16.9207 C.ar      1 MOL     0.0007
     10 C          47.5890    8.1856   17.7580 C.ar      1 MOL     0.0103
     11 C          46.5709    8.4795   18.6165 C.ar      1 MOL     0.0106
     12 C          46.1198    7.4911   19.4496 C.ar      1 MOL     0.0736
     13 C          46.5382    6.0958   19.4846 C.3       1 MOL     0.0925
     14 C          47.1574    5.7676   20.7985 C.ar      1 MOL    -0.0406
     15 C          46.6192    4.6487   21.4589 C.ar      1 MOL     0.0196
     16 C          47.1177    4.2725   22.6831 C.ar      1 MOL     0.0723
     17 C          46.5701    3.1017   23.4047 C.2       1 MOL     0.2495
     18 C          46.7047    0.6928   23.9013 C.3       1 MOL     0.1268
     19 C          47.0132   -0.5970   23.1717 C.3       1 MOL     0.1265
     20 C          48.2752    0.5804   21.3935 C.3       1 MOL     0.1265
     21 C          48.3461    1.7579   22.3315 C.3       1 MOL     0.1268
     22 C          46.3287   -0.8485   20.7931 C.2       1 MOL     0.2187
     23 C          45.1840   -1.7372   21.0098 C.3       1 MOL     0.0752
     24 C          43.8926   -1.3386   20.3319 C.3       1 MOL     0.0134
     25 C          44.0023   -1.2877   21.7916 C.3       1 MOL     0.0134
     26 C          48.1378    4.9393   23.3193 C.ar      1 MOL     0.1355
     27 C          48.6638    6.0343   22.6720 C.ar      1 MOL     0.0392
     28 C          48.1568    6.4216   21.4233 C.ar      1 MOL     0.0066
     29 O          44.5745   11.2000   19.5241 O.2       1 MOL    -0.2658
     30 O          46.5636   -0.5414   19.5701 O.2       1 MOL    -0.2753
     31 O          45.5786    3.1894   24.1650 O.2       1 MOL    -0.2699
     32 F          48.5979    4.5263   24.5361 F         1 MOL    -0.2047
     33 H          46.1434   11.7019   17.8013 H         1 MOL     0.0625
     34 H          47.9560   11.1809   16.2655 H         1 MOL     0.0618
     35 H          48.8391    8.9430   16.2758 H         1 MOL     0.0618
     36 H          47.9947    7.2368   17.7330 H         1 MOL     0.0624
     37 H          47.2515    5.9223   18.7061 H         1 MOL     0.0377
     38 H          45.6786    5.4739   19.3448 H         1 MOL     0.0377
     39 H          45.8519    4.1119   21.0257 H         1 MOL     0.0629
     40 H          45.6430    0.7850   24.0007 H         1 MOL     0.0480
     41 H          47.1889    0.6488   24.8550 H         1 MOL     0.0480
     42 H          46.2088   -1.2886   23.3088 H         1 MOL     0.0480
     43 H          47.9132   -1.0267   23.5599 H         1 MOL     0.0480
     44 H          48.1177    0.9346   20.3963 H         1 MOL     0.0480
     45 H          49.1956    0.0377   21.4516 H         1 MOL     0.0480
     46 H          48.3943    2.6552   21.7504 H         1 MOL     0.0480
     47 H          49.2150    1.6305   22.9413 H         1 MOL     0.0480
     48 H          45.8187   -2.5967   21.0613 H         1 MOL     0.0394
     49 H          43.2804   -2.0830   19.8667 H         1 MOL     0.0273
     50 H          43.6231   -0.6403   19.5673 H         1 MOL     0.0273
     51 H          43.4616   -1.9917   22.3891 H         1 MOL     0.0273
     52 H          43.8375   -0.5285   22.5262 H         1 MOL     0.0273
     53 H          49.4321    6.5703   23.1063 H         1 MOL     0.0646
     54 H          48.5689    7.2467   20.9595 H         1 MOL     0.0621
     55 H          43.8921    9.2485   20.9673 H         1 MOL     0.1921
@<TRIPOS>BOND
     1    1   18 1 
     2    1   21 1 
     3    1   17 am
     4    2   20 1 
     5    2   22 am
     6    2   19 1 
     7    3    4 ar
     8    3   12 ar
     9    4   55 1 
    10    4    5 ar
    11    5    6 ar
    12    5   29 2 
    13    6    7 ar
    14    6   11 ar
    15    7    8 ar
    16    7   33 1 
    17    8    9 ar
    18    8   34 1 
    19    9   10 ar
    20    9   35 1 
    21   10   11 ar
    22   10   36 1 
    23   11   12 ar
    24   12   13 1 
    25   13   14 1 
    26   13   37 1 
    27   13   38 1 
    28   14   15 ar
    29   14   28 ar
    30   15   16 ar
    31   15   39 1 
    32   16   17 1 
    33   16   26 ar
    34   17   31 2 
    35   18   19 1 
    36   18   40 1 
    37   18   41 1 
    38   19   42 1 
    39   19   43 1 
    40   20   21 1 
    41   20   44 1 
    42   20   45 1 
    43   21   46 1 
    44   21   47 1 
    45   22   23 1 
    46   22   30 2 
    47   23   24 1 
    48   23   25 1 
    49   23   48 1 
    50   24   25 1 
    51   24   49 1 
    52   24   50 1 
    53   25   51 1 
    54   25   52 1 
    55   26   27 ar
    56   26   32 1 
    57   27   28 ar
    58   27   53 1 
    59   28   54 1 
@<TRIPOS>SUBSTRUCTURE
1 MOL         1
@<TRIPOS>MOLECULE
query molecule
   55    59     1     0     0
SMALL
NO_CHARGE

@<TRIPOS>ATOM
      1 N          -1.4614   -6.6187   36.5980 N.am      1 MOL    -0.2945
      2 N          -0.6880   -8.6601   38.0061 N.am      1 MOL    -0.2983
      3 N           4.0977   -6.9782   35.0330 N.ar      1 MOL    -0.1750
      4 N           5.0344   -6.9371   35.9493 N.ar      1 MOL    -0.2425
      5 C           5.9355   -5.9484   36.0355 C.ar      1 MOL     0.2725
      6 C           5.8816   -4.9195   35.1178 C.ar      1 MOL     0.0496
      7 C           6.8075   -3.8761   35.1498 C.ar      1 MOL     0.0138
      8 C           6.7474   -2.8699   34.2098 C.ar      1 MOL     0.0008
      9 C           5.7477   -2.9566   33.2642 C.ar      1 MOL     0.0007
     10 C           4.8226   -3.9862   33.2203 C.ar      1 MOL     0.0103
     11 C           4.8892   -4.9755   34.1566 C.ar      1 MOL     0.0106
     12 C           3.9780   -5.9951   34.0884 C.ar      1 MOL     0.0736
     13 C           2.8551   -6.1260   33.1691 C.3       1 MOL     0.0925
     14 C           1.6959   -5.3186   33.6399 C.ar      1 MOL    -0.0406
     15 C           0.6402   -6.0509   34.2118 C.ar      1 MOL     0.0196
     16 C          -0.4786   -5.3952   34.6668 C.ar      1 MOL     0.0723
     17 C          -1.6078   -6.1382   35.2703 C.2       1 MOL     0.2495
     18 C          -2.5301   -7.3352   37.2155 C.3       1 MOL     0.1268
     19 C          -2.0504   -8.2894   38.2881 C.3       1 MOL     0.1265
     20 C           0.3097   -7.5848   38.0161 C.3       1 MOL     0.1265
     21 C          -0.2175   -6.3671   37.3017 C.3       1 MOL     0.1268
     22 C          -0.3100   -9.9776   37.7313 C.2       1 MOL     0.2187
     23 C          -1.1853  -11.1512   37.6708 C.3       1 MOL     0.0752
     24 C          -0.7892  -12.2285   36.6866 C.3       1 MOL     0.0134
     25 C          -2.0009  -11.4371   36.4613 C.3       1 MOL     0.0134
     26 C          -0.6341   -4.0311   34.5965 C.ar      1 MOL     0.1355
     27 C           0.3998   -3.3153   34.0365 C.ar      1 MOL     0.0392
     28 C           1.5424   -3.9813   33.5704 C.ar      1 MOL     0.0066
     29 O           6.8400   -5.8908   36.9075 O.2       1 MOL    -0.2658
     30 O           0.9318  -10.2047   37.5042 O.2       1 MOL    -0.2753
     31 O          -2.6748   -6.3514   34.6500 O.2       1 MOL    -0.2699
     32 F          -1.7657   -3.4265   35.0620 F         1 MOL    -0.2047
     33 H           7.5379   -3.8571   35.8786 H         1 MOL     0.0625
     34 H           7.4200   -2.0884   34.2133 H         1 MOL     0.0618
     35 H           5.6858   -2.2143   32.5505 H         1 MOL     0.0618
     36 H           4.0931   -4.0051   32.4904 H         1 MOL     0.0624
     37 H           2.5667   -7.1548   33.1095 H         1 MOL     0.0377
     38 H           3.1541   -5.7687   32.2056 H         1 MOL     0.0377
     39 H           0.7053   -7.0777   34.2893 H         1 MOL     0.0629
     40 H          -3.0460   -7.8957   36.4637 H         1 MOL     0.0480
     41 H          -3.1719   -6.6178   37.6842 H         1 MOL     0.0480
     42 H          -2.6674   -9.1632   38.2937 H         1 MOL     0.0480
     43 H          -2.1070   -7.8158   39.2462 H         1 MOL     0.0480
     44 H           1.1979   -7.9231   37.5250 H         1 MOL     0.0480
     45 H           0.5259   -7.3224   39.0307 H         1 MOL     0.0480
     46 H           0.5152   -6.0431   36.5923 H         1 MOL     0.0480
     47 H          -0.4134   -5.6206   38.0417 H         1 MOL     0.0480
     48 H          -1.4135  -11.0762   38.7132 H         1 MOL     0.0394
     49 H          -0.8668  -13.2597   36.9620 H         1 MOL     0.0273
     50 H           0.0898  -12.4476   36.1171 H         1 MOL     0.0273
     51 H          -2.9616  -11.8968   36.5650 H         1 MOL     0.0273
     52 H          -2.3651  -10.8450   35.6489 H         1 MOL     0.0273
     53 H           0.3336   -2.2877   33.9601 H         1 MOL     0.0646
     54 H           2.3030   -3.4208   33.1545 H         1 MOL     0.0621
     55 H           5.0775   -7.6686   36.6072 H         1 MOL     0.1921
@<TRIPOS>BOND
     1    1   18 1 
     2    1   21 1 
     3    1   17 am
     4    2   20 1 
     5    2   22 am
     6    2   19 1 
     7    3    4 ar
     8    3   12 ar
     9    4   55 1 
    10    4    5 ar
    11    5    6 ar
    12    5   29 2 
    13    6    7 ar
    14    6   11 ar
    15    7    8 ar
    16    7   33 1 
    17    8    9 ar
    18    8   34 1 
    19    9   10 ar
    20    9   35 1 
    21   10   11 ar
    22   10   36 1 
    23   11   12 ar
    24   12   13 1 
    25   13   14 1 
    26   13   37 1 
    27   13   38 1 
    28   14   15 ar
    29   14   28 ar
    30   15   16 ar
    31   15   39 1 
    32   16   17 1 
    33   16   26 ar
    34   17   31 2 
    35   18   19 1 
    36   18   40 1 
    37   18   41 1 
    38   19   42 1 
    39   19   43 1 
    40   20   21 1 
    41   20   44 1 
    42   20   45 1 
    43   21   46 1 
    44   21   47 1 
    45   22   23 1 
    46   22   30 2 
    47   23   24 1 
    48   23   25 1 
    49   23   48 1 
    50   24   25 1 
    51   24   49 1 
    52   24   50 1 
    53   25   51 1 
    54   25   52 1 
    55   26   27 ar
    56   26   32 1 
    57   27   28 ar
    58   27   53 1 
    59   28   54 1 
@<TRIPOS>SUBSTRUCTURE
1 MOL         1
@<TRIPOS>MOLECULE
query molecule
   55    59     1     0     0
SMALL
NO_CHARGE

@<TRIPOS>ATOM
      1 N           8.0067    3.4315   29.1505 N.am      1 MOL    -0.2945
      2 N           7.6295    1.5185   27.4340 N.am      1 MOL    -0.2983
      3 N           5.6588    7.4732   25.7980 N.ar      1 MOL    -0.1750
      4 N           4.4698    6.9639   25.5847 N.ar      1 MOL    -0.2425
      5 C           4.2609    5.8741   24.8328 C.ar      1 MOL     0.2725
      6 C           5.3460    5.2518   24.2505 C.ar      1 MOL     0.0496
      7 C           5.1830    4.1261   23.4422 C.ar      1 MOL     0.0138
      8 C           6.2793    3.5336   22.8535 C.ar      1 MOL     0.0008
      9 C           7.5088    4.1053   23.1037 C.ar      1 MOL     0.0007
     10 C           7.6852    5.2222   23.9032 C.ar      1 MOL     0.0103
     11 C           6.5941    5.7994   24.4832 C.ar      1 MOL     0.0106
     12 C           6.7841    6.9133   25.2563 C.ar      1 MOL     0.0736
     13 C           8.0484    7.5369   25.6245 C.3       1 MOL     0.0925
     14 C           8.3186    7.3549   27.0775 C.ar      1 MOL    -0.0406
     15 C           7.8197    6.1675   27.6422 C.ar      1 MOL     0.0196
     16 C           8.0098    5.9141   28.9795 C.ar      1 MOL     0.0723
     17 C           7.4938    4.6751   29.6038 C.2       1 MOL     0.2495
     18 C           7.5371    2.2155   29.7317 C.3       1 MOL     0.1268
     19 C           7.6522    1.0358   28.7903 C.3       1 MOL     0.1265
     20 C           8.7236    2.4061   27.0254 C.3       1 MOL     0.1265
     21 C           9.0055    3.4268   28.0978 C.3       1 MOL     0.1268
     22 C           6.6208    1.1716   26.5304 C.2       1 MOL     0.2187
     23 C           5.4621    0.3131   26.7901 C.3       1 MOL     0.0752
     24 C           4.8491   -0.3625   25.5844 C.3       1 MOL     0.0134
     25 C           4.1093    0.6820   26.2964 C.3       1 MOL     0.0134
     26 C           8.6759    6.7719   29.8224 C.ar      1 MOL     0.1355
     27 C           9.1638    7.9339   29.2686 C.ar      1 MOL     0.0392
     28 C           8.9707    8.1960   27.9047 C.ar      1 MOL     0.0066
     29 O           3.1288    5.3703   24.6178 O.2       1 MOL    -0.2658
     30 O           6.6991    1.6459   25.3413 O.2       1 MOL    -0.2753
     31 O           6.6287    4.6936   30.5094 O.2       1 MOL    -0.2699
     32 F           8.8382    6.4751   31.1446 F         1 MOL    -0.2047
     33 H           4.2405    3.7361   23.2854 H         1 MOL     0.0625
     34 H           6.1841    2.7009   22.2527 H         1 MOL     0.0618
     35 H           8.3424    3.6780   22.6716 H         1 MOL     0.0618
     36 H           8.6280    5.6124   24.0587 H         1 MOL     0.0624
     37 H           8.0030    8.5828   25.4031 H         1 MOL     0.0377
     38 H           8.8367    7.0743   25.0678 H         1 MOL     0.0377
     39 H           7.3120    5.4885   27.0541 H         1 MOL     0.0629
     40 H           6.5090    2.3398   30.0017 H         1 MOL     0.0480
     41 H           8.1482    2.0085   30.5860 H         1 MOL     0.0480
     42 H           6.8312    0.3685   28.9486 H         1 MOL     0.0480
     43 H           8.5677    0.5130   28.9746 H         1 MOL     0.0480
     44 H           8.4498    2.9112   26.1230 H         1 MOL     0.0480
     45 H           9.6048    1.8198   26.8676 H         1 MOL     0.0480
     46 H           9.0301    4.3973   27.6478 H         1 MOL     0.0480
     47 H           9.9420    3.1711   28.5459 H         1 MOL     0.0480
     48 H           5.8455    0.0287   27.7475 H         1 MOL     0.0394
     49 H           4.5297   -1.3820   25.6469 H         1 MOL     0.0273
     50 H           5.1508   -0.5201   24.5699 H         1 MOL     0.0273
     51 H           3.2450    0.4219   26.8712 H         1 MOL     0.0273
     52 H           3.6457    1.5998   26.0034 H         1 MOL     0.0273
     53 H           9.6722    8.6123   29.8581 H         1 MOL     0.0646
     54 H           9.3463    9.0749   27.5148 H         1 MOL     0.0621
     55 H           3.6915    7.4037   25.9981 H         1 MOL     0.1921
@<TRIPOS>BOND
     1    1   18 1 
     2    1   21 1 
     3    1   17 am
     4    2   20 1 
     5    2   22 am
     6    2   19 1 
     7    3    4 ar
     8    3   12 ar
     9    4   55 1 
    10    4    5 ar
    11    5    6 ar
    12    5   29 2 
    13    6    7 ar
    14    6   11 ar
    15    7    8 ar
    16    7   33 1 
    17    8    9 ar
    18    8   34 1 
    19    9   10 ar
    20    9   35 1 
    21   10   11 ar
    22   10   36 1 
    23   11   12 ar
    24   12   13 1 
    25   13   14 1 
    26   13   37 1 
    27   13   38 1 
    28   14   15 ar
    29   14   28 ar
    30   15   16 ar
    31   15   39 1 
    32   16   17 1 
    33   16   26 ar
    34   17   31 2 
    35   18   19 1 
    36   18   40 1 
    37   18   41 1 
    38   19   42 1 
    39   19   43 1 
    40   20   21 1 
    41   20   44 1 
    42   20   45 1 
    43   21   46 1 
    44   21   47 1 
    45   22   23 1 
    46   22   30 2 
    47   23   24 1 
    48   23   25 1 
    49   23   48 1 
    50   24   25 1 
    51   24   49 1 
    52   24   50 1 
    53   25   51 1 
    54   25   52 1 
    55   26   27 ar
    56   26   32 1 
    57   27   28 ar
    58   27   53 1 
    59   28   54 1 
@<TRIPOS>SUBSTRUCTURE
1 MOL         1
@<TRIPOS>MOLECULE
query molecule
   55    59     1     0     0
SMALL
NO_CHARGE

@<TRIPOS>ATOM
      1 N          27.7393  -14.7670   37.1154 N.am      1 MOL    -0.2945
      2 N          25.2784  -14.1154   36.5982 N.am      1 MOL    -0.2983
      3 N          33.7322  -13.2944   35.0616 N.ar      1 MOL    -0.1750
      4 N          34.3912  -13.6047   33.9716 N.ar      1 MOL    -0.2425
      5 C          35.7259  -13.7206   33.9275 C.ar      1 MOL     0.2725
      6 C          36.4493  -13.5038   35.0822 C.ar      1 MOL     0.0496
      7 C          37.8419  -13.5918   35.0873 C.ar      1 MOL     0.0138
      8 C          38.5453  -13.3502   36.2477 C.ar      1 MOL     0.0008
      9 C          37.8104  -13.0246   37.3680 C.ar      1 MOL     0.0007
     10 C          36.4286  -12.9334   37.3773 C.ar      1 MOL     0.0103
     11 C          35.7420  -13.1769   36.2244 C.ar      1 MOL     0.0106
     12 C          34.3776  -13.0652   36.2465 C.ar      1 MOL     0.0736
     13 C          33.5246  -12.7945   37.3964 C.3       1 MOL     0.0925
     14 C          32.1049  -12.6472   36.9722 C.ar      1 MOL    -0.0406
     15 C          31.1959  -13.5301   37.5821 C.ar      1 MOL     0.0196
     16 C          29.8639  -13.4782   37.2479 C.ar      1 MOL     0.0723
     17 C          28.8832  -14.3963   37.8698 C.2       1 MOL     0.2495
     18 C          26.7740  -15.6542   37.6794 C.3       1 MOL     0.1268
     19 C          25.3920  -15.4629   37.0924 C.3       1 MOL     0.1265
     20 C          26.1825  -13.7275   35.5101 C.3       1 MOL     0.1265
     21 C          27.5779  -14.2305   35.7768 C.3       1 MOL     0.1268
     22 C          24.3571  -13.2007   37.1166 C.2       1 MOL     0.2187
     23 C          23.4034  -13.4313   38.2050 C.3       1 MOL     0.0752
     24 C          21.9707  -13.0327   37.9319 C.3       1 MOL     0.0134
     25 C          22.7638  -12.2940   38.9171 C.3       1 MOL     0.0134
     26 C          29.3505  -12.5927   36.3301 C.ar      1 MOL     0.1355
     27 C          30.2412  -11.7290   35.7337 C.ar      1 MOL     0.0392
     28 C          31.6011  -11.7799   36.0717 C.ar      1 MOL     0.0066
     29 O          36.3755  -14.0184   32.8925 O.2       1 MOL    -0.2658
     30 O          24.3279  -12.0277   36.5984 O.2       1 MOL    -0.2753
     31 O          29.0332  -14.8492   39.0278 O.2       1 MOL    -0.2699
     32 F          28.0188  -12.5810   36.0316 F         1 MOL    -0.2047
     33 H          38.3461  -13.8388   34.2214 H         1 MOL     0.0625
     34 H          39.5743  -13.4096   36.2764 H         1 MOL     0.0618
     35 H          38.3175  -12.8386   38.2469 H         1 MOL     0.0618
     36 H          35.9251  -12.6852   38.2434 H         1 MOL     0.0624
     37 H          33.8467  -11.8899   37.8687 H         1 MOL     0.0377
     38 H          33.5958  -13.6149   38.0799 H         1 MOL     0.0377
     39 H          31.5282  -14.2151   38.2785 H         1 MOL     0.0629
     40 H          26.7253  -15.4813   38.7345 H         1 MOL     0.0480
     41 H          27.0847  -16.6541   37.4563 H         1 MOL     0.0480
     42 H          24.6541  -15.6325   37.8480 H         1 MOL     0.0480
     43 H          25.2386  -16.1573   36.2925 H         1 MOL     0.0480
     44 H          26.2027  -12.6607   35.4316 H         1 MOL     0.0480
     45 H          25.8298  -14.1583   34.5963 H         1 MOL     0.0480
     46 H          28.2637  -13.4189   35.6506 H         1 MOL     0.0480
     47 H          27.7696  -15.0254   35.0878 H         1 MOL     0.0480
     48 H          23.9350  -14.3004   38.5312 H         1 MOL     0.0394
     49 H          21.1688  -13.6636   38.2546 H         1 MOL     0.0273
     50 H          21.4114  -12.7700   37.0584 H         1 MOL     0.0273
     51 H          22.5322  -12.3818   39.9580 H         1 MOL     0.0273
     52 H          23.0126  -11.2631   39.0532 H         1 MOL     0.0273
     53 H          29.9072  -11.0435   35.0374 H         1 MOL     0.0646
     54 H          32.2478  -11.1213   35.6094 H         1 MOL     0.0621
     55 H          33.8801  -13.7608   33.1444 H         1 MOL     0.1921
@<TRIPOS>BOND
     1    1   18 1 
     2    1   21 1 
     3    1   17 am
     4    2   20 1 
     5    2   22 am
     6    2   19 1 
     7    3    4 ar
     8    3   12 ar
     9    4   55 1 
    10    4    5 ar
    11    5    6 ar
    12    5   29 2 
    13    6    7 ar
    14    6   11 ar
    15    7    8 ar
    16    7   33 1 
    17    8    9 ar
    18    8   34 1 
    19    9   10 ar
    20    9   35 1 
    21   10   11 ar
    22   10   36 1 
    23   11   12 ar
    24   12   13 1 
    25   13   14 1 
    26   13   37 1 
    27   13   38 1 
    28   14   15 ar
    29   14   28 ar
    30   15   16 ar
    31   15   39 1 
    32   16   17 1 
    33   16   26 ar
    34   17   31 2 
    35   18   19 1 
    36   18   40 1 
    37   18   41 1 
    38   19   42 1 
    39   19   43 1 
    40   20   21 1 
    41   20   44 1 
    42   20   45 1 
    43   21   46 1 
    44   21   47 1 
    45   22   23 1 
    46   22   30 2 
    47   23   24 1 
    48   23   25 1 
    49   23   48 1 
    50   24   25 1 
    51   24   49 1 
    52   24   50 1 
    53   25   51 1 
    54   25   52 1 
    55   26   27 ar
    56   26   32 1 
    57   27   28 ar
    58   27   53 1 
    59   28   54 1 
@<TRIPOS>SUBSTRUCTURE
1 MOL         1
@<TRIPOS>MOLECULE
query molecule
   55    59     1     0     0
SMALL
NO_CHARGE

@<TRIPOS>ATOM
      1 N          49.6126  -16.4670   32.6979 N.am      1 MOL    -0.2945
      2 N          47.5141  -15.6973   31.3742 N.am      1 MOL    -0.2983
      3 N          47.2203  -13.7786   37.0925 N.ar      1 MOL    -0.1750
      4 N          45.9653  -13.6356   36.7415 N.ar      1 MOL    -0.2425
      5 C          45.5776  -12.9301   35.6696 C.ar      1 MOL     0.2725
      6 C          46.5410  -12.3208   34.8923 C.ar      1 MOL     0.0496
      7 C          46.1912  -11.5582   33.7773 C.ar      1 MOL     0.0138
      8 C          47.1693  -10.9409   33.0278 C.ar      1 MOL     0.0008
      9 C          48.4744  -11.1169   33.4363 C.ar      1 MOL     0.0007
     10 C          48.8360  -11.8704   34.5406 C.ar      1 MOL     0.0103
     11 C          47.8605  -12.4792   35.2740 C.ar      1 MOL     0.0106
     12 C          48.2338  -13.2059   36.3727 C.ar      1 MOL     0.0736
     13 C          49.5860  -13.4964   36.8310 C.3       1 MOL     0.0925
     14 C          49.8909  -14.9458   36.6778 C.ar      1 MOL    -0.0406
     15 C          49.8421  -15.4391   35.3618 C.ar      1 MOL     0.0196
     16 C          50.0986  -16.7674   35.1198 C.ar      1 MOL     0.0723
     17 C          50.0516  -17.3174   33.7463 C.2       1 MOL     0.2495
     18 C          49.5584  -16.9600   31.3595 C.3       1 MOL     0.1268
     19 C          48.5331  -16.2375   30.5123 C.3       1 MOL     0.1265
     20 C          47.9366  -14.6909   32.3542 C.3       1 MOL     0.1265
     21 C          49.2264  -15.1047   33.0150 C.3       1 MOL     0.1268
     22 C          46.1772  -16.0990   31.2995 C.2       1 MOL     0.2187
     23 C          45.6062  -17.0965   30.3906 C.3       1 MOL     0.0752
     24 C          46.2877  -17.2438   29.0490 C.3       1 MOL     0.0134
     25 C          44.9350  -16.6880   29.1288 C.3       1 MOL     0.0134
     26 C          50.4089  -17.6684   36.1108 C.ar      1 MOL     0.1355
     27 C          50.4562  -17.1844   37.3986 C.ar      1 MOL     0.0392
     28 C          50.1941  -15.8298   37.6491 C.ar      1 MOL     0.0066
     29 O          44.3796  -12.7827   35.3163 O.2       1 MOL    -0.2658
     30 O          45.3450  -15.5479   32.1051 O.2       1 MOL    -0.2753
     31 O          50.3846  -18.4967   33.4871 O.2       1 MOL    -0.2699
     32 F          50.6549  -18.9788   35.8193 F         1 MOL    -0.2047
     33 H          45.1988  -11.4566   33.5130 H         1 MOL     0.0625
     34 H          46.9355  -10.3729   32.1996 H         1 MOL     0.0618
     35 H          49.2220  -10.6623   32.8899 H         1 MOL     0.0618
     36 H          49.8286  -11.9706   34.8051 H         1 MOL     0.0624
     37 H          49.6743  -13.2251   37.8624 H         1 MOL     0.0377
     38 H          50.2792  -12.9349   36.2397 H         1 MOL     0.0377
     39 H          49.6141  -14.8056   34.5800 H         1 MOL     0.0629
     40 H          49.3084  -18.0002   31.3876 H         1 MOL     0.0480
     41 H          50.5186  -16.7958   30.9155 H         1 MOL     0.0480
     42 H          48.0922  -16.9230   29.8195 H         1 MOL     0.0480
     43 H          49.0053  -15.4462   29.9679 H         1 MOL     0.0480
     44 H          47.1776  -14.5851   33.1008 H         1 MOL     0.0480
     45 H          48.0910  -13.7598   31.8501 H         1 MOL     0.0480
     46 H          49.1087  -15.0226   34.0755 H         1 MOL     0.0480
     47 H          49.9962  -14.4598   32.6481 H         1 MOL     0.0480
     48 H          45.3211  -17.7260   31.2072 H         1 MOL     0.0394
     49 H          46.4429  -18.2169   28.6315 H         1 MOL     0.0273
     50 H          47.2178  -16.9177   28.6324 H         1 MOL     0.0273
     51 H          44.1058  -17.2553   28.7605 H         1 MOL     0.0273
     52 H          44.4778  -15.7848   28.7844 H         1 MOL     0.0273
     53 H          50.6851  -17.8194   38.1801 H         1 MOL     0.0646
     54 H          50.2359  -15.4929   38.6240 H         1 MOL     0.0621
     55 H          45.2733  -14.0685   37.2923 H         1 MOL     0.1921
@<TRIPOS>BOND
     1    1   18 1 
     2    1   21 1 
     3    1   17 am
     4    2   20 1 
     5    2   22 am
     6    2   19 1 
     7    3    4 ar
     8    3   12 ar
     9    4   55 1 
    10    4    5 ar
    11    5    6 ar
    12    5   29 2 
    13    6    7 ar
    14    6   11 ar
    15    7    8 ar
    16    7   33 1 
    17    8    9 ar
    18    8   34 1 
    19    9   10 ar
    20    9   35 1 
    21   10   11 ar
    22   10   36 1 
    23   11   12 ar
    24   12   13 1 
    25   13   14 1 
    26   13   37 1 
    27   13   38 1 
    28   14   15 ar
    29   14   28 ar
    30   15   16 ar
    31   15   39 1 
    32   16   17 1 
    33   16   26 ar
    34   17   31 2 
    35   18   19 1 
    36   18   40 1 
    37   18   41 1 
    38   19   42 1 
    39   19   43 1 
    40   20   21 1 
    41   20   44 1 
    42   20   45 1 
    43   21   46 1 
    44   21   47 1 
    45   22   23 1 
    46   22   30 2 
    47   23   24 1 
    48   23   25 1 
    49   23   48 1 
    50   24   25 1 
    51   24   49 1 
    52   24   50 1 
    53   25   51 1 
    54   25   52 1 
    55   26   27 ar
    56   26   32 1 
    57   27   28 ar
    58   27   53 1 
    59   28   54 1 
@<TRIPOS>SUBSTRUCTURE
1 MOL         1
@<TRIPOS>MOLECULE
query molecule
   55    59     1     0     0
SMALL
NO_CHARGE

@<TRIPOS>ATOM
      1 N          43.1677    1.2330   30.5361 N.am      1 MOL    -0.2945
      2 N          40.9526   -0.0431   30.9980 N.am      1 MOL    -0.2983
      3 N          48.4312   -1.6593   28.7118 N.ar      1 MOL    -0.1750
      4 N          49.5002   -1.7735   29.4621 N.ar      1 MOL    -0.2425
      5 C          49.5228   -2.4678   30.6085 C.ar      1 MOL     0.2725
      6 C          48.3677   -3.0959   31.0268 C.ar      1 MOL     0.0496
      7 C          48.3307   -3.8148   32.2222 C.ar      1 MOL     0.0138
      8 C          47.1598   -4.4162   32.6308 C.ar      1 MOL     0.0008
      9 C          46.0610   -4.2668   31.8114 C.ar      1 MOL     0.0007
     10 C          46.0833   -3.5561   30.6229 C.ar      1 MOL     0.0103
     11 C          47.2476   -2.9670   30.2264 C.ar      1 MOL     0.0106
     12 C          47.2479   -2.2535   29.0579 C.ar      1 MOL     0.0736
     13 C          46.1556   -2.1044   28.1051 C.3       1 MOL     0.0925
     14 C          45.8858   -0.6644   27.8389 C.ar      1 MOL    -0.0406
     15 C          45.0513   -0.0222   28.7710 C.ar      1 MOL     0.0196
     16 C          44.7356    1.3050   28.6051 C.ar      1 MOL     0.0723
     17 C          43.8570    2.0080   29.5671 C.2       1 MOL     0.2495
     18 C          42.3153    1.8755   31.4835 C.3       1 MOL     0.1268
     19 C          41.2154    0.9671   31.9897 C.3       1 MOL     0.1265
     20 C          42.0506   -0.9611   30.6763 C.3       1 MOL     0.1265
     21 C          43.3483   -0.2069   30.5404 C.3       1 MOL     0.1268
     22 C          39.7159   -0.1621   30.3571 C.2       1 MOL     0.2187
     23 C          38.5345    0.6811   30.5578 C.3       1 MOL     0.0752
     24 C          37.4944    0.1536   31.5200 C.3       1 MOL     0.0134
     25 C          37.1930    0.2443   30.0896 C.3       1 MOL     0.0134
     26 C          45.1979    2.0650   27.5569 C.ar      1 MOL     0.1355
     27 C          46.0146    1.4353   26.6451 C.ar      1 MOL     0.0392
     28 C          46.3379    0.0809   26.8108 C.ar      1 MOL     0.0066
     29 O          50.5380   -2.5898   31.3408 O.2       1 MOL    -0.2658
     30 O          39.5806   -1.1038   29.4967 O.2       1 MOL    -0.2753
     31 O          43.7075    3.2514   29.5498 O.2       1 MOL    -0.2699
     32 F          44.8549    3.3804   27.4358 F         1 MOL    -0.2047
     33 H          49.1811   -3.8969   32.8009 H         1 MOL     0.0625
     34 H          47.1080   -4.9529   33.5098 H         1 MOL     0.0618
     35 H          45.1742   -4.7080   32.0994 H         1 MOL     0.0618
     36 H          45.2320   -3.4734   30.0452 H         1 MOL     0.0624
     37 H          45.2740   -2.5596   28.5057 H         1 MOL     0.0377
     38 H          46.4321   -2.5779   27.1860 H         1 MOL     0.0377
     39 H          44.6767   -0.5462   29.5771 H         1 MOL     0.0629
     40 H          41.8679    2.7291   31.0180 H         1 MOL     0.0480
     41 H          42.9176    2.1536   32.3238 H         1 MOL     0.0480
     42 H          40.3287    1.5394   32.1643 H         1 MOL     0.0480
     43 H          41.5194    0.5058   32.9064 H         1 MOL     0.0480
     44 H          41.8354   -1.4589   29.7541 H         1 MOL     0.0480
     45 H          42.1483   -1.6750   31.4673 H         1 MOL     0.0480
     46 H          43.8157   -0.4938   29.6215 H         1 MOL     0.0480
     47 H          43.9519   -0.4515   31.3883 H         1 MOL     0.0480
     48 H          39.1080    1.5741   30.4230 H         1 MOL     0.0394
     49 H          37.0182    0.8181   32.2106 H         1 MOL     0.0273
     50 H          37.4668   -0.6260   32.2524 H         1 MOL     0.0273
     51 H          36.4895    0.9713   29.7407 H         1 MOL     0.0273
     52 H          36.8484   -0.4509   29.3540 H         1 MOL     0.0273
     53 H          46.3893    1.9610   25.8392 H         1 MOL     0.0646
     54 H          46.9520   -0.3671   26.1124 H         1 MOL     0.0621
     55 H          50.3276   -1.3276   29.1684 H         1 MOL     0.1921
@<TRIPOS>BOND
     1    1   18 1 
     2    1   21 1 
     3    1   17 am
     4    2   20 1 
     5    2   22 am
     6    2   19 1 
     7    3    4 ar
     8    3   12 ar
     9    4   55 1 
    10    4    5 ar
    11    5    6 ar
    12    5   29 2 
    13    6    7 ar
    14    6   11 ar
    15    7    8 ar
    16    7   33 1 
    17    8    9 ar
    18    8   34 1 
    19    9   10 ar
    20    9   35 1 
    21   10   11 ar
    22   10   36 1 
    23   11   12 ar
    24   12   13 1 
    25   13   14 1 
    26   13   37 1 
    27   13   38 1 
    28   14   15 ar
    29   14   28 ar
    30   15   16 ar
    31   15   39 1 
    32   16   17 1 
    33   16   26 ar
    34   17   31 2 
    35   18   19 1 
    36   18   40 1 
    37   18   41 1 
    38   19   42 1 
    39   19   43 1 
    40   20   21 1 
    41   20   44 1 
    42   20   45 1 
    43   21   46 1 
    44   21   47 1 
    45   22   23 1 
    46   22   30 2 
    47   23   24 1 
    48   23   25 1 
    49   23   48 1 
    50   24   25 1 
    51   24   49 1 
    52   24   50 1 
    53   25   51 1 
    54   25   52 1 
    55   26   27 ar
    56   26   32 1 
    57   27   28 ar
    58   27   53 1 
    59   28   54 1 
@<TRIPOS>SUBSTRUCTURE
1 MOL         1
@<TRIPOS>MOLECULE
query molecule
   55    59     1     0     0
SMALL
NO_CHARGE

@<TRIPOS>ATOM
      1 N          30.0917   -7.0240   37.4855 N.am      1 MOL    -0.2945
      2 N          28.3683   -8.2747   35.9977 N.am      1 MOL    -0.2983
      3 N          36.8131   -5.9516   34.1808 N.ar      1 MOL    -0.1750
      4 N          37.9970   -5.4385   33.9487 N.ar      1 MOL    -0.2425
      5 C          38.6658   -4.6984   34.8441 C.ar      1 MOL     0.2725
      6 C          38.0862   -4.4598   36.0733 C.ar      1 MOL     0.0496
      7 C          38.7300   -3.6795   37.0344 C.ar      1 MOL     0.0138
      8 C          38.1225   -3.4367   38.2474 C.ar      1 MOL     0.0008
      9 C          36.8770   -3.9941   38.4457 C.ar      1 MOL     0.0007
     10 C          36.2264   -4.7700   37.5009 C.ar      1 MOL     0.0103
     11 C          36.8373   -5.0063   36.3048 C.ar      1 MOL     0.0106
     12 C          36.1728   -5.7607   35.3754 C.ar      1 MOL     0.0736
     13 C          34.8926   -6.4391   35.5293 C.3       1 MOL     0.0925
     14 C          33.8306   -5.4712   35.9199 C.ar      1 MOL    -0.0406
     15 C          32.7603   -6.0106   36.6555 C.ar      1 MOL     0.0196
     16 C          31.7259   -5.1978   37.0531 C.ar      1 MOL     0.0723
     17 C          30.5836   -5.7365   37.8253 C.2       1 MOL     0.2495
     18 C          28.9948   -7.5790   38.2106 C.3       1 MOL     0.1268
     19 C          28.2013   -8.5774   37.3954 C.3       1 MOL     0.1265
     20 C          29.7270   -8.3727   35.4535 C.3       1 MOL     0.1265
     21 C          30.7221   -7.7515   36.3996 C.3       1 MOL     0.1268
     22 C          27.2996   -7.9013   35.1775 C.2       1 MOL     0.2187
     23 C          25.8973   -7.7461   35.5733 C.3       1 MOL     0.0752
     24 C          25.3864   -6.3267   35.6750 C.3       1 MOL     0.0134
     25 C          25.5330   -7.1430   36.8822 C.3       1 MOL     0.0134
     26 C          31.6710   -3.8537   36.7696 C.ar      1 MOL     0.1355
     27 C          32.7192   -3.3268   36.0495 C.ar      1 MOL     0.0392
     28 C          33.7757   -4.1535   35.6413 C.ar      1 MOL     0.0066
     29 O          39.8021   -4.1992   34.6406 O.2       1 MOL    -0.2658
     30 O          27.5527   -7.6639   33.9426 O.2       1 MOL    -0.2753
     31 O          30.0465   -5.0961   38.7582 O.2       1 MOL    -0.2699
     32 F          30.6207   -3.0885   37.1866 F         1 MOL    -0.2047
     33 H          39.6626   -3.2841   36.8371 H         1 MOL     0.0625
     34 H          38.5785   -2.8637   38.9734 H         1 MOL     0.0618
     35 H          36.4041   -3.8235   39.3465 H         1 MOL     0.0618
     36 H          35.2931   -5.1642   37.6985 H         1 MOL     0.0624
     37 H          34.9805   -7.1899   36.2866 H         1 MOL     0.0377
     38 H          34.6238   -6.8856   34.5945 H         1 MOL     0.0377
     39 H          32.7514   -7.0140   36.8957 H         1 MOL     0.0629
     40 H          28.3430   -6.7836   38.5075 H         1 MOL     0.0480
     41 H          29.3961   -8.0981   39.0565 H         1 MOL     0.0480
     42 H          27.1660   -8.5125   37.6565 H         1 MOL     0.0480
     43 H          28.5507   -9.5688   37.5966 H         1 MOL     0.0480
     44 H          29.7687   -7.8616   34.5146 H         1 MOL     0.0480
     45 H          29.9742   -9.4056   35.3230 H         1 MOL     0.0480
     46 H          31.3396   -7.0729   35.8489 H         1 MOL     0.0480
     47 H          31.2911   -8.5457   36.8339 H         1 MOL     0.0480
     48 H          25.6222   -8.6529   35.0770 H         1 MOL     0.0394
     49 H          24.4108   -6.0815   35.3097 H         1 MOL     0.0273
     50 H          25.7442   -5.3688   35.3597 H         1 MOL     0.0273
     51 H          24.6614   -7.4850   37.4004 H         1 MOL     0.0273
     52 H          26.0431   -7.0139   37.8130 H         1 MOL     0.0273
     53 H          32.7271   -2.3223   35.8102 H         1 MOL     0.0646
     54 H          34.5491   -3.7331   35.1022 H         1 MOL     0.0621
     55 H          38.4158   -5.6058   33.0733 H         1 MOL     0.1921
@<TRIPOS>BOND
     1    1   18 1 
     2    1   21 1 
     3    1   17 am
     4    2   20 1 
     5    2   22 am
     6    2   19 1 
     7    3    4 ar
     8    3   12 ar
     9    4   55 1 
    10    4    5 ar
    11    5    6 ar
    12    5   29 2 
    13    6    7 ar
    14    6   11 ar
    15    7    8 ar
    16    7   33 1 
    17    8    9 ar
    18    8   34 1 
    19    9   10 ar
    20    9   35 1 
    21   10   11 ar
    22   10   36 1 
    23   11   12 ar
    24   12   13 1 
    25   13   14 1 
    26   13   37 1 
    27   13   38 1 
    28   14   15 ar
    29   14   28 ar
    30   15   16 ar
    31   15   39 1 
    32   16   17 1 
    33   16   26 ar
    34   17   31 2 
    35   18   19 1 
    36   18   40 1 
    37   18   41 1 
    38   19   42 1 
    39   19   43 1 
    40   20   21 1 
    41   20   44 1 
    42   20   45 1 
    43   21   46 1 
    44   21   47 1 
    45   22   23 1 
    46   22   30 2 
    47   23   24 1 
    48   23   25 1 
    49   23   48 1 
    50   24   25 1 
    51   24   49 1 
    52   24   50 1 
    53   25   51 1 
    54   25   52 1 
    55   26   27 ar
    56   26   32 1 
    57   27   28 ar
    58   27   53 1 
    59   28   54 1 
@<TRIPOS>SUBSTRUCTURE
1 MOL         1
@<TRIPOS>MOLECULE
query molecule
   55    59     1     0     0
SMALL
NO_CHARGE

@<TRIPOS>ATOM
      1 N           0.4287  -21.5270   31.6053 N.am      1 MOL    -0.2945
      2 N          -0.7832  -23.7597   31.0628 N.am      1 MOL    -0.2983
      3 N          -0.4916  -18.8146   24.7966 N.ar      1 MOL    -0.1750
      4 N          -0.5693  -19.6785   23.8135 N.ar      1 MOL    -0.2425
      5 C          -0.7349  -20.9951   24.0033 C.ar      1 MOL     0.2725
      6 C          -0.8288  -21.4728   25.2943 C.ar      1 MOL     0.0496
      7 C          -0.9816  -22.8362   25.5488 C.ar      1 MOL     0.0138
      8 C          -1.0517  -23.2932   26.8472 C.ar      1 MOL     0.0008
      9 C          -0.9626  -22.3489   27.8480 C.ar      1 MOL     0.0007
     10 C          -0.8106  -20.9931   27.6100 C.ar      1 MOL     0.0103
     11 C          -0.7449  -20.5511   26.3216 C.ar      1 MOL     0.0106
     12 C          -0.5768  -19.2099   26.1041 C.ar      1 MOL     0.0736
     13 C          -0.5424  -18.1441   27.0971 C.3       1 MOL     0.0925
     14 C           0.4582  -18.4480   28.1571 C.ar      1 MOL    -0.0406
     15 C          -0.0440  -19.1085   29.2925 C.ar      1 MOL     0.0196
     16 C           0.8008  -19.4228   30.3299 C.ar      1 MOL     0.0723
     17 C           0.3016  -20.1147   31.5397 C.2       1 MOL     0.2495
     18 C          -0.0365  -22.2289   32.7577 C.3       1 MOL     0.1268
     19 C          -0.4224  -23.6604   32.4531 C.3       1 MOL     0.1265
     20 C           0.2638  -23.4581   30.0806 C.3       1 MOL     0.1265
     21 C           1.0345  -22.2292   30.4892 C.3       1 MOL     0.1268
     22 C          -2.0664  -24.1238   30.6443 C.2       1 MOL     0.2187
     23 C          -3.2152  -24.4392   31.4975 C.3       1 MOL     0.0752
     24 C          -4.4538  -23.5981   31.2861 C.3       1 MOL     0.0134
     25 C          -3.6891  -23.4802   32.5297 C.3       1 MOL     0.0134
     26 C           2.1428  -19.1244   30.3266 C.ar      1 MOL     0.1355
     27 C           2.6333  -18.4778   29.2148 C.ar      1 MOL     0.0392
     28 C           1.7739  -18.1547   28.1549 C.ar      1 MOL     0.0066
     29 O          -0.8129  -21.8386   23.0737 O.2       1 MOL    -0.2658
     30 O          -2.2824  -24.1944   29.3819 O.2       1 MOL    -0.2753
     31 O          -0.2225  -19.4963   32.4945 O.2       1 MOL    -0.2699
     32 F           2.9407  -19.4573   31.3826 F         1 MOL    -0.2047
     33 H          -1.0429  -23.5035   24.7640 H         1 MOL     0.0625
     34 H          -1.1650  -24.2957   27.0603 H         1 MOL     0.0618
     35 H          -1.0116  -22.6700   28.8272 H         1 MOL     0.0618
     36 H          -0.7482  -20.3265   28.3955 H         1 MOL     0.0624
     37 H          -1.5100  -18.0471   27.5435 H         1 MOL     0.0377
     38 H          -0.2643  -17.2306   26.6136 H         1 MOL     0.0377
     39 H          -1.0442  -19.3562   29.3467 H         1 MOL     0.0629
     40 H          -0.8928  -21.7183   33.1470 H         1 MOL     0.0480
     41 H           0.7654  -22.2537   33.4665 H         1 MOL     0.0480
     42 H          -1.2543  -23.9456   33.0621 H         1 MOL     0.0480
     43 H           0.4021  -24.3103   32.6616 H         1 MOL     0.0480
     44 H          -0.1870  -23.2886   29.1253 H         1 MOL     0.0480
     45 H           0.9389  -24.2867   30.0284 H         1 MOL     0.0480
     46 H           1.0827  -21.5625   29.6535 H         1 MOL     0.0480
     47 H           2.0061  -22.5487   30.8010 H         1 MOL     0.0480
     48 H          -2.9570  -25.4771   31.5184 H         1 MOL     0.0394
     49 H          -5.4203  -24.0575   31.2934 H         1 MOL     0.0273
     50 H          -4.7852  -22.9147   30.5324 H         1 MOL     0.0273
     51 H          -4.1048  -23.8473   33.4448 H         1 MOL     0.0273
     52 H          -3.2389  -22.6645   33.0543 H         1 MOL     0.0273
     53 H           3.6345  -18.2310   29.1615 H         1 MOL     0.0646
     54 H           2.1673  -17.6696   27.3331 H         1 MOL     0.0621
     55 H          -0.5033  -19.3432   22.8899 H         1 MOL     0.1921
@<TRIPOS>BOND
     1    1   18 1 
     2    1   21 1 
     3    1   17 am
     4    2   20 1 
     5    2   22 am
     6    2   19 1 
     7    3    4 ar
     8    3   12 ar
     9    4   55 1 
    10    4    5 ar
    11    5    6 ar
    12    5   29 2 
    13    6    7 ar
    14    6   11 ar
    15    7    8 ar
    16    7   33 1 
    17    8    9 ar
    18    8   34 1 
    19    9   10 ar
    20    9   35 1 
    21   10   11 ar
    22   10   36 1 
    23   11   12 ar
    24   12   13 1 
    25   13   14 1 
    26   13   37 1 
    27   13   38 1 
    28   14   15 ar
    29   14   28 ar
    30   15   16 ar
    31   15   39 1 
    32   16   17 1 
    33   16   26 ar
    34   17   31 2 
    35   18   19 1 
    36   18   40 1 
    37   18   41 1 
    38   19   42 1 
    39   19   43 1 
    40   20   21 1 
    41   20   44 1 
    42   20   45 1 
    43   21   46 1 
    44   21   47 1 
    45   22   23 1 
    46   22   30 2 
    47   23   24 1 
    48   23   25 1 
    49   23   48 1 
    50   24   25 1 
    51   24   49 1 
    52   24   50 1 
    53   25   51 1 
    54   25   52 1 
    55   26   27 ar
    56   26   32 1 
    57   27   28 ar
    58   27   53 1 
    59   28   54 1 
@<TRIPOS>SUBSTRUCTURE
1 MOL         1
@<TRIPOS>MOLECULE
query molecule
   55    59     1     0     0
SMALL
NO_CHARGE

@<TRIPOS>ATOM
      1 N          12.4373  -17.4694    3.2431 N.am      1 MOL    -0.2945
      2 N          13.9808  -16.8298    1.2539 N.am      1 MOL    -0.2983
      3 N          12.2691  -11.5630    4.3331 N.ar      1 MOL    -0.1750
      4 N          11.4774  -10.7849    3.6357 N.ar      1 MOL    -0.2425
      5 C          10.2492  -10.4328    4.0411 C.ar      1 MOL     0.2725
      6 C           9.7878  -10.9090    5.2511 C.ar      1 MOL     0.0496
      7 C           8.5097  -10.5898    5.7111 C.ar      1 MOL     0.0138
      8 C           8.0619  -11.0944    6.9130 C.ar      1 MOL     0.0008
      9 C           8.9277  -11.9102    7.6101 C.ar      1 MOL     0.0007
     10 C          10.1982  -12.2355    7.1655 C.ar      1 MOL     0.0103
     11 C          10.6327  -11.7289    5.9762 C.ar      1 MOL     0.0106
     12 C          11.8846  -12.0746    5.5429 C.ar      1 MOL     0.0736
     13 C          12.8822  -12.8704    6.2460 C.3       1 MOL     0.0925
     14 C          12.4095  -14.2723    6.4153 C.ar      1 MOL    -0.0406
     15 C          12.1230  -14.9628    5.2242 C.ar      1 MOL     0.0196
     16 C          11.6704  -16.2594    5.2778 C.ar      1 MOL     0.0723
     17 C          11.3569  -17.0115    4.0419 C.2       1 MOL     0.2495
     18 C          12.1748  -18.2022    2.0468 C.3       1 MOL     0.1268
     19 C          13.2835  -18.0685    1.0250 C.3       1 MOL     0.1265
     20 C          14.6661  -16.6804    2.5423 C.3       1 MOL     0.1265
     21 C          13.7946  -17.1792    3.6662 C.3       1 MOL     0.1268
     22 C          14.0159  -15.8019    0.3071 C.2       1 MOL     0.2187
     23 C          13.3738  -15.7948   -1.0101 C.3       1 MOL     0.0752
     24 C          13.2145  -14.4424   -1.6670 C.3       1 MOL     0.0134
     25 C          12.0352  -15.1790   -1.2066 C.3       1 MOL     0.0134
     26 C          11.4758  -16.9422    6.4550 C.ar      1 MOL     0.1355
     27 C          11.7566  -16.2653    7.6203 C.ar      1 MOL     0.0392
     28 C          12.2175  -14.9420    7.5693 C.ar      1 MOL     0.0066
     29 O           9.4760   -9.6869    3.3871 O.2       1 MOL    -0.2658
     30 O          14.6749  -14.7423    0.6041 O.2       1 MOL    -0.2753
     31 O          10.1802  -17.2519    3.6867 O.2       1 MOL    -0.2699
     32 F          11.0236  -18.2300    6.4556 F         1 MOL    -0.2047
     33 H           7.8990   -9.9745    5.1512 H         1 MOL     0.0625
     34 H           7.1218  -10.8723    7.2739 H         1 MOL     0.0618
     35 H           8.6116  -12.2995    8.5116 H         1 MOL     0.0618
     36 H          10.8081  -12.8519    7.7255 H         1 MOL     0.0624
     37 H          13.0609  -12.4403    7.2094 H         1 MOL     0.0377
     38 H          13.7848  -12.8791    5.6711 H         1 MOL     0.0377
     39 H          12.2518  -14.4972    4.3125 H         1 MOL     0.0629
     40 H          11.2652  -17.8389    1.6153 H         1 MOL     0.0480
     41 H          12.1015  -19.2370    2.3111 H         1 MOL     0.0480
     42 H          12.8664  -18.0700    0.0400 H         1 MOL     0.0480
     43 H          13.9629  -18.8903    1.1178 H         1 MOL     0.0480
     44 H          14.8912  -15.6471    2.7044 H         1 MOL     0.0480
     45 H          15.5678  -17.2563    2.5239 H         1 MOL     0.0480
     46 H          13.7602  -16.4305    4.4300 H         1 MOL     0.0480
     47 H          14.2215  -18.0926    4.0221 H         1 MOL     0.0480
     48 H          13.7893  -16.7498   -1.2546 H         1 MOL     0.0394
     49 H          13.4008  -14.3311   -2.7149 H         1 MOL     0.0273
     50 H          13.6129  -13.4646   -1.4932 H         1 MOL     0.0273
     51 H          11.3582  -15.5970   -1.9221 H         1 MOL     0.0273
     52 H          11.2170  -14.9478   -0.5584 H         1 MOL     0.0273
     53 H          11.6279  -16.7327    8.5320 H         1 MOL     0.0646
     54 H          12.4203  -14.4572    8.4578 H         1 MOL     0.0621
     55 H          11.8015  -10.4417    2.7714 H         1 MOL     0.1921
@<TRIPOS>BOND
     1    1   18 1 
     2    1   21 1 
     3    1   17 am
     4    2   20 1 
     5    2   22 am
     6    2   19 1 
     7    3    4 ar
     8    3   12 ar
     9    4   55 1 
    10    4    5 ar
    11    5    6 ar
    12    5   29 2 
    13    6    7 ar
    14    6   11 ar
    15    7    8 ar
    16    7   33 1 
    17    8    9 ar
    18    8   34 1 
    19    9   10 ar
    20    9   35 1 
    21   10   11 ar
    22   10   36 1 
    23   11   12 ar
    24   12   13 1 
    25   13   14 1 
    26   13   37 1 
    27   13   38 1 
    28   14   15 ar
    29   14   28 ar
    30   15   16 ar
    31   15   39 1 
    32   16   17 1 
    33   16   26 ar
    34   17   31 2 
    35   18   19 1 
    36   18   40 1 
    37   18   41 1 
    38   19   42 1 
    39   19   43 1 
    40   20   21 1 
    41   20   44 1 
    42   20   45 1 
    43   21   46 1 
    44   21   47 1 
    45   22   23 1 
    46   22   30 2 
    47   23   24 1 
    48   23   25 1 
    49   23   48 1 
    50   24   25 1 
    51   24   49 1 
    52   24   50 1 
    53   25   51 1 
    54   25   52 1 
    55   26   27 ar
    56   26   32 1 
    57   27   28 ar
    58   27   53 1 
    59   28   54 1 
@<TRIPOS>SUBSTRUCTURE
1 MOL         1
@<TRIPOS>MOLECULE
query molecule
   55    59     1     0     0
SMALL
NO_CHARGE

@<TRIPOS>ATOM
      1 N          49.5130  -19.1110    7.8013 N.am      1 MOL    -0.2945
      2 N          47.9957  -21.1835    8.1897 N.am      1 MOL    -0.2983
      3 N          50.1621  -20.8073    2.1527 N.ar      1 MOL    -0.1750
      4 N          49.4750  -20.5621    1.0635 N.ar      1 MOL    -0.2425
      5 C          50.0273  -20.0926   -0.0641 C.ar      1 MOL     0.2725
      6 C          51.3858  -19.8526   -0.0875 C.ar      1 MOL     0.0496
      7 C          52.0084  -19.3451   -1.2285 C.ar      1 MOL     0.0138
      8 C          53.3633  -19.0929   -1.2221 C.ar      1 MOL     0.0008
      9 C          54.0441  -19.3632   -0.0539 C.ar      1 MOL     0.0007
     10 C          53.4393  -19.8664    1.0857 C.ar      1 MOL     0.0103
     11 C          52.0985  -20.1150    1.0680 C.ar      1 MOL     0.0106
     12 C          51.5132  -20.5958    2.2085 C.ar      1 MOL     0.0736
     13 C          52.1673  -20.9706    3.4554 C.3       1 MOL     0.0925
     14 C          52.2655  -19.7983    4.3682 C.ar      1 MOL    -0.0406
     15 C          51.1200  -19.5340    5.1400 C.ar      1 MOL     0.0196
     16 C          51.1102  -18.4663    6.0052 C.ar      1 MOL     0.0723
     17 C          49.9185  -18.1602    6.8284 C.2       1 MOL     0.2495
     18 C          48.3718  -18.8491    8.6174 C.3       1 MOL     0.1268
     19 C          47.7025  -20.1147    9.1088 C.3       1 MOL     0.1265
     20 C          49.4046  -21.5632    8.0385 C.3       1 MOL     0.1265
     21 C          50.2759  -20.3371    7.9442 C.3       1 MOL     0.1268
     22 C          47.0002  -21.8430    7.4629 C.2       1 MOL     0.2187
     23 C          45.5606  -21.5715    7.4935 C.3       1 MOL     0.0752
     24 C          44.6534  -22.7545    7.2414 C.3       1 MOL     0.0134
     25 C          44.7360  -21.6700    6.2606 C.3       1 MOL     0.0134
     26 C          52.1795  -17.6178    6.1683 C.ar      1 MOL     0.1355
     27 C          53.3003  -17.8774    5.4124 C.ar      1 MOL     0.0392
     28 C          53.3133  -18.9654    4.5278 C.ar      1 MOL     0.0066
     29 O          49.3854  -19.8527   -1.1186 O.2       1 MOL    -0.2658
     30 O          47.3653  -22.7900    6.6787 O.2       1 MOL    -0.2753
     31 O          49.2670  -17.0992    6.6920 O.2       1 MOL    -0.2699
     32 F          52.1202  -16.5699    7.0407 F         1 MOL    -0.2047
     33 H          51.4539  -19.1589   -2.0788 H         1 MOL     0.0625
     34 H          53.8457  -18.7184   -2.0530 H         1 MOL     0.0618
     35 H          55.0590  -19.1802   -0.0274 H         1 MOL     0.0618
     36 H          53.9943  -20.0513    1.9360 H         1 MOL     0.0624
     37 H          53.1509  -21.3340    3.2418 H         1 MOL     0.0377
     38 H          51.5872  -21.7317    3.9345 H         1 MOL     0.0377
     39 H          50.2890  -20.1399    5.0566 H         1 MOL     0.0629
     40 H          47.6635  -18.2866    8.0452 H         1 MOL     0.0480
     41 H          48.7068  -18.3057    9.4768 H         1 MOL     0.0480
     42 H          46.6447  -19.9648    9.1607 H         1 MOL     0.0480
     43 H          48.0683  -20.3632   10.0834 H         1 MOL     0.0480
     44 H          49.5195  -22.1452    7.1482 H         1 MOL     0.0480
     45 H          49.7034  -22.1332    8.8934 H         1 MOL     0.0480
     46 H          50.9183  -20.4390    7.0945 H         1 MOL     0.0480
     47 H          50.8292  -20.2657    8.8563 H         1 MOL     0.0480
     48 H          45.6855  -20.8141    8.2385 H         1 MOL     0.0394
     49 H          43.7655  -22.8820    7.8250 H         1 MOL     0.0273
     50 H          44.7844  -23.8161    7.2105 H         1 MOL     0.0273
     51 H          43.9026  -21.0126    6.1251 H         1 MOL     0.0273
     52 H          44.9493  -21.6251    5.2138 H         1 MOL     0.0273
     53 H          54.1314  -17.2707    5.4972 H         1 MOL     0.0646
     54 H          54.1663  -19.1376    3.9725 H         1 MOL     0.0621
     55 H          48.5050  -20.7318    1.0742 H         1 MOL     0.1921
@<TRIPOS>BOND
     1    1   18 1 
     2    1   21 1 
     3    1   17 am
     4    2   20 1 
     5    2   22 am
     6    2   19 1 
     7    3    4 ar
     8    3   12 ar
     9    4   55 1 
    10    4    5 ar
    11    5    6 ar
    12    5   29 2 
    13    6    7 ar
    14    6   11 ar
    15    7    8 ar
    16    7   33 1 
    17    8    9 ar
    18    8   34 1 
    19    9   10 ar
    20    9   35 1 
    21   10   11 ar
    22   10   36 1 
    23   11   12 ar
    24   12   13 1 
    25   13   14 1 
    26   13   37 1 
    27   13   38 1 
    28   14   15 ar
    29   14   28 ar
    30   15   16 ar
    31   15   39 1 
    32   16   17 1 
    33   16   26 ar
    34   17   31 2 
    35   18   19 1 
    36   18   40 1 
    37   18   41 1 
    38   19   42 1 
    39   19   43 1 
    40   20   21 1 
    41   20   44 1 
    42   20   45 1 
    43   21   46 1 
    44   21   47 1 
    45   22   23 1 
    46   22   30 2 
    47   23   24 1 
    48   23   25 1 
    49   23   48 1 
    50   24   25 1 
    51   24   49 1 
    52   24   50 1 
    53   25   51 1 
    54   25   52 1 
    55   26   27 ar
    56   26   32 1 
    57   27   28 ar
    58   27   53 1 
    59   28   54 1 
@<TRIPOS>SUBSTRUCTURE
1 MOL         1
@<TRIPOS>MOLECULE
query molecule
   55    59     1     0     0
SMALL
NO_CHARGE

@<TRIPOS>ATOM
      1 N          22.2317   13.9003    1.7983 N.am      1 MOL    -0.2945
      2 N          23.7246   15.5090    0.4083 N.am      1 MOL    -0.2983
      3 N          15.2015   12.5094    0.4927 N.ar      1 MOL    -0.1750
      4 N          14.1170   12.3263   -0.2206 N.ar      1 MOL    -0.2425
      5 C          13.4197   11.1815   -0.2174 C.ar      1 MOL     0.2725
      6 C          13.8589   10.1391    0.5727 C.ar      1 MOL     0.0496
      7 C          13.1821    8.9191    0.5979 C.ar      1 MOL     0.0138
      8 C          13.6513    7.8846    1.3785 C.ar      1 MOL     0.0008
      9 C          14.7964    8.1221    2.1089 C.ar      1 MOL     0.0007
     10 C          15.4783    9.3274    2.0931 C.ar      1 MOL     0.0103
     11 C          15.0042   10.3454    1.3194 C.ar      1 MOL     0.0106
     12 C          15.7000   11.5244    1.3017 C.ar      1 MOL     0.0736
     13 C          16.8725   11.8785    2.0909 C.3       1 MOL     0.0925
     14 C          18.0931   11.8926    1.2382 C.ar      1 MOL    -0.0406
     15 C          19.2937   12.1975    1.9041 C.ar      1 MOL     0.0196
     16 C          20.4729   12.2448    1.1998 C.ar      1 MOL     0.0723
     17 C          21.7522   12.5663    1.8715 C.2       1 MOL     0.2495
     18 C          23.4590   14.2497    2.4375 C.3       1 MOL     0.1268
     19 C          24.1416   15.4323    1.7843 C.3       1 MOL     0.1265
     20 C          22.2978   15.7402    0.1575 C.3       1 MOL     0.1265
     21 C          21.4551   14.8856    1.0690 C.3       1 MOL     0.1268
     22 C          24.6200   15.3713   -0.6563 C.2       1 MOL     0.2187
     23 C          26.0617   15.1244   -0.5689 C.3       1 MOL     0.0752
     24 C          26.6345   15.0044    0.8252 C.3       1 MOL     0.0134
     25 C          26.9829   16.1517   -0.0160 C.3       1 MOL     0.0134
     26 C          20.5544   12.0056   -0.1515 C.ar      1 MOL     0.1355
     27 C          19.3786   11.7073   -0.8023 C.ar      1 MOL     0.0392
     28 C          18.1736   11.6591   -0.0870 C.ar      1 MOL     0.0066
     29 O          12.3769   10.9874   -0.8934 O.2       1 MOL    -0.2658
     30 O          24.1489   15.4674   -1.8455 O.2       1 MOL    -0.2753
     31 O          22.4144   11.7049    2.4947 O.2       1 MOL    -0.2699
     32 F          21.7504   12.0655   -0.8063 F         1 MOL    -0.2047
     33 H          12.3286    8.7912    0.0320 H         1 MOL     0.0625
     34 H          13.1682    6.9743    1.4139 H         1 MOL     0.0618
     35 H          15.1652    7.3605    2.6988 H         1 MOL     0.0618
     36 H          16.3325    9.4542    2.6585 H         1 MOL     0.0624
     37 H          16.9991   11.1615    2.8751 H         1 MOL     0.0377
     38 H          16.7294   12.8561    2.5024 H         1 MOL     0.0377
     39 H          19.2892   12.3854    2.9186 H         1 MOL     0.0629
     40 H          24.1183   13.4076    2.3964 H         1 MOL     0.0480
     41 H          23.2310   14.5247    3.4467 H         1 MOL     0.0480
     42 H          25.2027   15.3061    1.8323 H         1 MOL     0.0480
     43 H          23.8736   16.3334    2.2958 H         1 MOL     0.0480
     44 H          22.0743   15.4952   -0.8596 H         1 MOL     0.0480
     45 H          22.0752   16.7695    0.3470 H         1 MOL     0.0480
     46 H          20.7244   14.3735    0.4783 H         1 MOL     0.0480
     47 H          21.0027   15.5338    1.7890 H         1 MOL     0.0480
     48 H          26.0522   14.5524   -1.4729 H         1 MOL     0.0394
     49 H          27.3682   14.2555    1.0398 H         1 MOL     0.0273
     50 H          26.2224   14.8802    1.8049 H         1 MOL     0.0273
     51 H          27.9750   16.2410   -0.4068 H         1 MOL     0.0273
     52 H          26.9302   17.2122    0.1094 H         1 MOL     0.0273
     53 H          19.3846   11.5188   -1.8175 H         1 MOL     0.0646
     54 H          17.3062   11.4335   -0.5992 H         1 MOL     0.0621
     55 H          13.7985   13.0669   -0.7862 H         1 MOL     0.1921
@<TRIPOS>BOND
     1    1   18 1 
     2    1   21 1 
     3    1   17 am
     4    2   20 1 
     5    2   22 am
     6    2   19 1 
     7    3    4 ar
     8    3   12 ar
     9    4   55 1 
    10    4    5 ar
    11    5    6 ar
    12    5   29 2 
    13    6    7 ar
    14    6   11 ar
    15    7    8 ar
    16    7   33 1 
    17    8    9 ar
    18    8   34 1 
    19    9   10 ar
    20    9   35 1 
    21   10   11 ar
    22   10   36 1 
    23   11   12 ar
    24   12   13 1 
    25   13   14 1 
    26   13   37 1 
    27   13   38 1 
    28   14   15 ar
    29   14   28 ar
    30   15   16 ar
    31   15   39 1 
    32   16   17 1 
    33   16   26 ar
    34   17   31 2 
    35   18   19 1 
    36   18   40 1 
    37   18   41 1 
    38   19   42 1 
    39   19   43 1 
    40   20   21 1 
    41   20   44 1 
    42   20   45 1 
    43   21   46 1 
    44   21   47 1 
    45   22   23 1 
    46   22   30 2 
    47   23   24 1 
    48   23   25 1 
    49   23   48 1 
    50   24   25 1 
    51   24   49 1 
    52   24   50 1 
    53   25   51 1 
    54   25   52 1 
    55   26   27 ar
    56   26   32 1 
    57   27   28 ar
    58   27   53 1 
    59   28   54 1 
@<TRIPOS>SUBSTRUCTURE
1 MOL         1
@<TRIPOS>MOLECULE
query molecule
   55    59     1     0     0
SMALL
NO_CHARGE

@<TRIPOS>ATOM
      1 N          46.8635    3.8190   23.1222 N.am      1 MOL    -0.2945
      2 N          47.9187    1.9491   24.5844 N.am      1 MOL    -0.2983
      3 N          51.2766    4.0280   16.7748 N.ar      1 MOL    -0.1750
      4 N          52.5514    4.2276   16.5434 N.ar      1 MOL    -0.2425
      5 C          53.5142    3.9311   17.4277 C.ar      1 MOL     0.2725
      6 C          53.1538    3.3890   18.6443 C.ar      1 MOL     0.0496
      7 C          54.1140    3.0804   19.6086 C.ar      1 MOL     0.0138
      8 C          53.7290    2.5595   20.8251 C.ar      1 MOL     0.0008
      9 C          52.3779    2.3696   21.0246 C.ar      1 MOL     0.0007
     10 C          51.4143    2.6715   20.0769 C.ar      1 MOL     0.0103
     11 C          51.8060    3.1841   18.8754 C.ar      1 MOL     0.0106
     12 C          50.8394    3.4935   17.9565 C.ar      1 MOL     0.0736
     13 C          49.4047    3.2619   18.0607 C.3       1 MOL     0.0925
     14 C          48.7748    4.2719   18.9554 C.ar      1 MOL    -0.0406
     15 C          47.9030    3.7567   19.9312 C.ar      1 MOL     0.0196
     16 C          47.2652    4.6116   20.7978 C.ar      1 MOL     0.0723
     17 C          46.3392    4.1003   21.8334 C.2       1 MOL     0.2495
     18 C          46.0007    3.3292   24.1482 C.3       1 MOL     0.1268
     19 C          46.7349    2.5066   25.1851 C.3       1 MOL     0.1265
     20 C          48.9297    2.8966   24.1027 C.3       1 MOL     0.1265
     21 C          48.2767    4.0388   23.3677 C.3       1 MOL     0.1268
     22 C          48.1169    0.5714   24.4543 C.2       1 MOL     0.2187
     23 C          47.2008   -0.4939   24.8702 C.3       1 MOL     0.0752
     24 C          45.7730   -0.3715   24.3882 C.3       1 MOL     0.0134
     25 C          46.0835   -0.2194   25.8114 C.3       1 MOL     0.0134
     26 C          47.4313    5.9760   20.7700 C.ar      1 MOL     0.1355
     27 C          48.2848    6.4793   19.8144 C.ar      1 MOL     0.0392
     28 C          48.9364    5.6098   18.9279 C.ar      1 MOL     0.0066
     29 O          54.7417    4.1139   17.2237 O.2       1 MOL    -0.2658
     30 O          49.2116    0.1767   23.9147 O.2       1 MOL    -0.2753
     31 O          45.1219    3.9117   21.6067 O.2       1 MOL    -0.2699
     32 F          46.7742    6.7835   21.6526 F         1 MOL    -0.2047
     33 H          55.1139    3.2418   19.4106 H         1 MOL     0.0625
     34 H          54.4200    2.3233   21.5531 H         1 MOL     0.0618
     35 H          52.0683    1.9819   21.9290 H         1 MOL     0.0618
     36 H          50.4143    2.5109   20.2761 H         1 MOL     0.0624
     37 H          49.2338    2.2835   18.4588 H         1 MOL     0.0377
     38 H          48.9696    3.3466   17.0866 H         1 MOL     0.0377
     39 H          47.7424    2.7395   19.9962 H         1 MOL     0.0629
     40 H          45.2456    2.7186   23.6980 H         1 MOL     0.0480
     41 H          45.5783    4.1768   24.6473 H         1 MOL     0.0480
     42 H          46.1016    1.7175   25.5320 H         1 MOL     0.0480
     43 H          47.0060    3.1268   26.0142 H         1 MOL     0.0480
     44 H          49.6004    2.3905   23.4406 H         1 MOL     0.0480
     45 H          49.4651    3.2884   24.9423 H         1 MOL     0.0480
     46 H          48.7698    4.1659   22.4265 H         1 MOL     0.0480
     47 H          48.3634    4.9083   23.9839 H         1 MOL     0.0480
     48 H          47.9843   -1.2219   24.8480 H         1 MOL     0.0394
     49 H          45.2479   -1.2383   24.0444 H         1 MOL     0.0273
     50 H          45.2700    0.2231   23.6544 H         1 MOL     0.0273
     51 H          45.7758   -0.9739   26.5051 H         1 MOL     0.0273
     52 H          45.8902    0.5384   26.5406 H         1 MOL     0.0273
     53 H          48.4451    7.4973   19.7508 H         1 MOL     0.0646
     54 H          49.5709    6.0132   18.2206 H         1 MOL     0.0621
     55 H          52.8147    4.6139   15.6767 H         1 MOL     0.1921
@<TRIPOS>BOND
     1    1   18 1 
     2    1   21 1 
     3    1   17 am
     4    2   20 1 
     5    2   22 am
     6    2   19 1 
     7    3    4 ar
     8    3   12 ar
     9    4   55 1 
    10    4    5 ar
    11    5    6 ar
    12    5   29 2 
    13    6    7 ar
    14    6   11 ar
    15    7    8 ar
    16    7   33 1 
    17    8    9 ar
    18    8   34 1 
    19    9   10 ar
    20    9   35 1 
    21   10   11 ar
    22   10   36 1 
    23   11   12 ar
    24   12   13 1 
    25   13   14 1 
    26   13   37 1 
    27   13   38 1 
    28   14   15 ar
    29   14   28 ar
    30   15   16 ar
    31   15   39 1 
    32   16   17 1 
    33   16   26 ar
    34   17   31 2 
    35   18   19 1 
    36   18   40 1 
    37   18   41 1 
    38   19   42 1 
    39   19   43 1 
    40   20   21 1 
    41   20   44 1 
    42   20   45 1 
    43   21   46 1 
    44   21   47 1 
    45   22   23 1 
    46   22   30 2 
    47   23   24 1 
    48   23   25 1 
    49   23   48 1 
    50   24   25 1 
    51   24   49 1 
    52   24   50 1 
    53   25   51 1 
    54   25   52 1 
    55   26   27 ar
    56   26   32 1 
    57   27   28 ar
    58   27   53 1 
    59   28   54 1 
@<TRIPOS>SUBSTRUCTURE
1 MOL         1
@<TRIPOS>MOLECULE
query molecule
   55    59     1     0     0
SMALL
NO_CHARGE

@<TRIPOS>ATOM
      1 N          22.1216  -13.7873   36.2364 N.am      1 MOL    -0.2945
      2 N          21.6867  -11.4170   35.2663 N.am      1 MOL    -0.2983
      3 N          25.1514  -19.9429   34.7392 N.ar      1 MOL    -0.1750
      4 N          26.1710  -20.7183   34.4603 N.ar      1 MOL    -0.2425
      5 C          26.0405  -21.9394   33.9230 C.ar      1 MOL     0.2725
      6 C          24.7736  -22.4111   33.6472 C.ar      1 MOL     0.0496
      7 C          24.5800  -23.6828   33.1064 C.ar      1 MOL     0.0138
      8 C          23.3041  -24.1415   32.8589 C.ar      1 MOL     0.0008
      9 C          22.2631  -23.2928   33.1707 C.ar      1 MOL     0.0007
     10 C          22.4405  -22.0288   33.7079 C.ar      1 MOL     0.0103
     11 C          23.7072  -21.5835   33.9466 C.ar      1 MOL     0.0106
     12 C          23.8642  -20.3385   34.4943 C.ar      1 MOL     0.0736
     13 C          22.8277  -19.3576   34.7882 C.3       1 MOL     0.0925
     14 C          23.3360  -17.9758   34.5656 C.ar      1 MOL    -0.0406
     15 C          23.0298  -17.0476   35.5767 C.ar      1 MOL     0.0196
     16 C          23.4470  -15.7437   35.4566 C.ar      1 MOL     0.0723
     17 C          23.1375  -14.7425   36.5021 C.2       1 MOL     0.2495
     18 C          21.7916  -12.8091   37.2220 C.3       1 MOL     0.1268
     19 C          21.2147  -11.5457   36.6204 C.3       1 MOL     0.1265
     20 C          21.2954  -12.4697   34.3226 C.3       1 MOL     0.1265
     21 C          21.4368  -13.8291   34.9577 C.3       1 MOL     0.1268
     22 C          22.4834  -10.3475   34.8473 C.2       1 MOL     0.2187
     23 C          22.9661   -9.2337   35.6681 C.3       1 MOL     0.0752
     24 C          21.9192   -8.4922   36.4681 C.3       1 MOL     0.0134
     25 C          22.5945   -7.8301   35.3498 C.3       1 MOL     0.0134
     26 C          24.1652  -15.2776   34.3809 C.ar      1 MOL     0.1355
     27 C          24.4643  -16.1870   33.3918 C.ar      1 MOL     0.0392
     28 C          24.0392  -17.5180   33.5106 C.ar      1 MOL     0.0066
     29 O          27.0060  -22.6969   33.6474 O.2       1 MOL    -0.2658
     30 O          22.8419  -10.3198   33.6160 O.2       1 MOL    -0.2753
     31 O          23.7391  -14.7156   37.6003 O.2       1 MOL    -0.2699
     32 F          24.5562  -13.9720   34.3077 F         1 MOL    -0.2047
     33 H          25.3931  -24.2806   32.8908 H         1 MOL     0.0625
     34 H          23.1359  -25.0771   32.4594 H         1 MOL     0.0618
     35 H          21.2999  -23.6173   32.9945 H         1 MOL     0.0618
     36 H          21.6267  -21.4319   33.9244 H         1 MOL     0.0624
     37 H          22.5242  -19.4609   35.8091 H         1 MOL     0.0377
     38 H          21.9966  -19.5274   34.1357 H         1 MOL     0.0377
     39 H          22.4931  -17.3446   36.4063 H         1 MOL     0.0629
     40 H          22.6790  -12.5565   37.7643 H         1 MOL     0.0480
     41 H          21.0448  -13.2334   37.8610 H         1 MOL     0.0480
     42 H          21.5294  -10.6988   37.1932 H         1 MOL     0.0480
     43 H          20.1456  -11.5953   36.6292 H         1 MOL     0.0480
     44 H          21.9230  -12.4192   33.4576 H         1 MOL     0.0480
     45 H          20.2722  -12.3237   34.0454 H         1 MOL     0.0480
     46 H          21.9918  -14.4599   34.2950 H         1 MOL     0.0480
     47 H          20.4515  -14.2049   35.1342 H         1 MOL     0.0480
     48 H          23.8981   -9.7270   35.8485 H         1 MOL     0.0394
     49 H          22.1279   -8.1910   37.4736 H         1 MOL     0.0273
     50 H          20.8998   -8.6767   36.7359 H         1 MOL     0.0273
     51 H          23.2897   -7.0398   35.5427 H         1 MOL     0.0273
     52 H          22.2592   -7.3279   34.4673 H         1 MOL     0.0273
     53 H          25.0020  -15.8886   32.5623 H         1 MOL     0.0646
     54 H          24.2766  -18.1795   32.7545 H         1 MOL     0.0621
     55 H          27.0777  -20.3868   34.6547 H         1 MOL     0.1921
@<TRIPOS>BOND
     1    1   18 1 
     2    1   21 1 
     3    1   17 am
     4    2   20 1 
     5    2   22 am
     6    2   19 1 
     7    3    4 ar
     8    3   12 ar
     9    4   55 1 
    10    4    5 ar
    11    5    6 ar
    12    5   29 2 
    13    6    7 ar
    14    6   11 ar
    15    7    8 ar
    16    7   33 1 
    17    8    9 ar
    18    8   34 1 
    19    9   10 ar
    20    9   35 1 
    21   10   11 ar
    22   10   36 1 
    23   11   12 ar
    24   12   13 1 
    25   13   14 1 
    26   13   37 1 
    27   13   38 1 
    28   14   15 ar
    29   14   28 ar
    30   15   16 ar
    31   15   39 1 
    32   16   17 1 
    33   16   26 ar
    34   17   31 2 
    35   18   19 1 
    36   18   40 1 
    37   18   41 1 
    38   19   42 1 
    39   19   43 1 
    40   20   21 1 
    41   20   44 1 
    42   20   45 1 
    43   21   46 1 
    44   21   47 1 
    45   22   23 1 
    46   22   30 2 
    47   23   24 1 
    48   23   25 1 
    49   23   48 1 
    50   24   25 1 
    51   24   49 1 
    52   24   50 1 
    53   25   51 1 
    54   25   52 1 
    55   26   27 ar
    56   26   32 1 
    57   27   28 ar
    58   27   53 1 
    59   28   54 1 
@<TRIPOS>SUBSTRUCTURE
1 MOL         1
@<TRIPOS>MOLECULE
query molecule
   55    59     1     0     0
SMALL
NO_CHARGE

@<TRIPOS>ATOM
      1 N          48.9507  -16.7593   35.3370 N.am      1 MOL    -0.2945
      2 N          50.8270  -17.7036   36.8654 N.am      1 MOL    -0.2983
      3 N          51.7221  -15.8773   28.2167 N.ar      1 MOL    -0.1750
      4 N          51.5213  -15.8802   26.9212 N.ar      1 MOL    -0.2425
      5 C          50.9289  -16.8921   26.2714 C.ar      1 MOL     0.2725
      6 C          50.5071  -17.9887   26.9948 C.ar      1 MOL     0.0496
      7 C          49.9030  -19.0779   26.3657 C.ar      1 MOL     0.0138
      8 C          49.5089  -20.1719   27.1057 C.ar      1 MOL     0.0008
      9 C          49.7429  -20.1254   28.4637 C.ar      1 MOL     0.0007
     10 C          50.3416  -19.0515   29.1010 C.ar      1 MOL     0.0103
     11 C          50.7255  -17.9729   28.3600 C.ar      1 MOL     0.0106
     12 C          51.3318  -16.9272   29.0031 C.ar      1 MOL     0.0736
     13 C          51.5534  -16.7699   30.4346 C.3       1 MOL     0.0925
     14 C          50.3680  -16.1434   31.0824 C.ar      1 MOL    -0.0406
     15 C          49.8920  -16.7953   32.2339 C.ar      1 MOL     0.0196
     16 C          48.7952  -16.2985   32.8965 C.ar      1 MOL     0.0723
     17 C          48.2683  -16.9640   34.1092 C.2       1 MOL     0.2495
     18 C          48.4699  -17.3804   36.5286 C.3       1 MOL     0.1268
     19 C          49.5635  -17.6100   37.5495 C.3       1 MOL     0.1265
     20 C          51.2738  -16.5167   36.1281 C.3       1 MOL     0.1265
     21 C          50.1311  -15.9154   35.3509 C.3       1 MOL     0.1268
     22 C          51.6087  -18.8623   36.8877 C.2       1 MOL     0.2187
     23 C          51.2945  -20.1246   37.5623 C.3       1 MOL     0.0752
     24 C          50.1321  -20.0929   38.5286 C.3       1 MOL     0.0134
     25 C          51.4965  -20.2816   39.0266 C.3       1 MOL     0.0134
     26 C          48.1165  -15.1730   32.4933 C.ar      1 MOL     0.1355
     27 C          48.5833  -14.5357   31.3660 C.ar      1 MOL     0.0392
     28 C          49.7014  -15.0405   30.6870 C.ar      1 MOL     0.0066
     29 O          50.7264  -16.9127   25.0303 O.2       1 MOL    -0.2658
     30 O          52.7243  -18.8390   36.2551 O.2       1 MOL    -0.2753
     31 O          47.2501  -17.6929   34.0822 O.2       1 MOL    -0.2699
     32 F          47.0312  -14.7194   33.1856 F         1 MOL    -0.2047
     33 H          49.7503  -19.0643   25.3452 H         1 MOL     0.0625
     34 H          49.0601  -20.9882   26.6635 H         1 MOL     0.0618
     35 H          49.4568  -20.9346   29.0359 H         1 MOL     0.0618
     36 H          50.4951  -19.0663   30.1216 H         1 MOL     0.0624
     37 H          52.4102  -16.1486   30.5922 H         1 MOL     0.0377
     38 H          51.7115  -17.7357   30.8677 H         1 MOL     0.0377
     39 H          50.3646  -17.6446   32.5802 H         1 MOL     0.0629
     40 H          48.0368  -18.3248   36.2717 H         1 MOL     0.0480
     41 H          47.7498  -16.7216   36.9685 H         1 MOL     0.0480
     42 H          49.3738  -18.5188   38.0809 H         1 MOL     0.0480
     43 H          49.5865  -16.7970   38.2452 H         1 MOL     0.0480
     44 H          52.0521  -16.7956   35.4492 H         1 MOL     0.0480
     45 H          51.6353  -15.7909   36.8263 H         1 MOL     0.0480
     46 H          50.4495  -15.7590   34.3413 H         1 MOL     0.0480
     47 H          49.8637  -14.9984   35.8314 H         1 MOL     0.0480
     48 H          51.6006  -20.6945   36.7103 H         1 MOL     0.0394
     49 H          49.4355  -20.9049   38.5547 H         1 MOL     0.0273
     50 H          49.3380  -19.4061   38.7354 H         1 MOL     0.0273
     51 H          51.7897  -21.2311   39.4235 H         1 MOL     0.0273
     52 H          52.1006  -19.7838   39.7549 H         1 MOL     0.0273
     53 H          48.1097  -13.6855   31.0208 H         1 MOL     0.0646
     54 H          50.0307  -14.5437   29.8441 H         1 MOL     0.0621
     55 H          51.8199  -15.1000   26.3997 H         1 MOL     0.1921
@<TRIPOS>BOND
     1    1   18 1 
     2    1   21 1 
     3    1   17 am
     4    2   20 1 
     5    2   22 am
     6    2   19 1 
     7    3    4 ar
     8    3   12 ar
     9    4   55 1 
    10    4    5 ar
    11    5    6 ar
    12    5   29 2 
    13    6    7 ar
    14    6   11 ar
    15    7    8 ar
    16    7   33 1 
    17    8    9 ar
    18    8   34 1 
    19    9   10 ar
    20    9   35 1 
    21   10   11 ar
    22   10   36 1 
    23   11   12 ar
    24   12   13 1 
    25   13   14 1 
    26   13   37 1 
    27   13   38 1 
    28   14   15 ar
    29   14   28 ar
    30   15   16 ar
    31   15   39 1 
    32   16   17 1 
    33   16   26 ar
    34   17   31 2 
    35   18   19 1 
    36   18   40 1 
    37   18   41 1 
    38   19   42 1 
    39   19   43 1 
    40   20   21 1 
    41   20   44 1 
    42   20   45 1 
    43   21   46 1 
    44   21   47 1 
    45   22   23 1 
    46   22   30 2 
    47   23   24 1 
    48   23   25 1 
    49   23   48 1 
    50   24   25 1 
    51   24   49 1 
    52   24   50 1 
    53   25   51 1 
    54   25   52 1 
    55   26   27 ar
    56   26   32 1 
    57   27   28 ar
    58   27   53 1 
    59   28   54 1 
@<TRIPOS>SUBSTRUCTURE
1 MOL         1
@<TRIPOS>MOLECULE
query molecule
   55    59     1     0     0
SMALL
NO_CHARGE

@<TRIPOS>ATOM
      1 N          41.9300  -19.2287   10.1452 N.am      1 MOL    -0.2945
      2 N          40.9070  -17.0029   11.0098 N.am      1 MOL    -0.2983
      3 N          39.8616  -21.2048    5.9056 N.ar      1 MOL    -0.1750
      4 N          38.6300  -21.0343    6.3213 N.ar      1 MOL    -0.2425
      5 C          38.0336  -19.8353    6.3809 C.ar      1 MOL     0.2725
      6 C          38.7445  -18.7203    5.9873 C.ar      1 MOL     0.0496
      7 C          38.1785  -17.4463    6.0481 C.ar      1 MOL     0.0138
      8 C          38.9148  -16.3443    5.6699 C.ar      1 MOL     0.0008
      9 C          40.2059  -16.5716    5.2424 C.ar      1 MOL     0.0007
     10 C          40.7803  -17.8301    5.1773 C.ar      1 MOL     0.0103
     11 C          40.0423  -18.9141    5.5514 C.ar      1 MOL     0.0106
     12 C          40.6311  -20.1490    5.4977 C.ar      1 MOL     0.0736
     13 C          41.9583  -20.4819    4.9970 C.3       1 MOL     0.0925
     14 C          43.0040  -20.0820    5.9788 C.ar      1 MOL    -0.0406
     15 C          42.6226  -20.1490    7.3308 C.ar      1 MOL     0.0196
     16 C          43.5159  -19.7899    8.3115 C.ar      1 MOL     0.0723
     17 C          43.1432  -19.8463    9.7430 C.2       1 MOL     0.2495
     18 C          41.5346  -19.2664   11.5161 C.3       1 MOL     0.1268
     19 C          40.6436  -18.1043   11.8990 C.3       1 MOL     0.1265
     20 C          40.6220  -17.2142    9.5864 C.3       1 MOL     0.1265
     21 C          41.1136  -18.5683    9.1437 C.3       1 MOL     0.1268
     22 C          41.4122  -15.7794   11.4593 C.2       1 MOL     0.2187
     23 C          41.7582  -15.4217   12.8375 C.3       1 MOL     0.0752
     24 C          40.6210  -15.4284   13.8338 C.3       1 MOL     0.0134
     25 C          41.2558  -14.1649   13.4521 C.3       1 MOL     0.0134
     26 C          44.7939  -19.3582    8.0463 C.ar      1 MOL     0.1355
     27 C          45.1661  -19.2930    6.7226 C.ar      1 MOL     0.0392
     28 C          44.2568  -19.6577    5.7194 C.ar      1 MOL     0.0066
     29 O          36.8535  -19.6520    6.7753 O.2       1 MOL    -0.2658
     30 O          41.6010  -14.8578   10.5874 O.2       1 MOL    -0.2753
     31 O          43.8592  -20.4168   10.5978 O.2       1 MOL    -0.2699
     32 F          45.6439  -19.0120    9.0563 F         1 MOL    -0.2047
     33 H          37.2071  -17.3288    6.3760 H         1 MOL     0.0625
     34 H          38.5183  -15.3931    5.7056 H         1 MOL     0.0618
     35 H          40.7748  -15.7602    4.9560 H         1 MOL     0.0618
     36 H          41.7524  -17.9466    4.8503 H         1 MOL     0.0624
     37 H          42.1262  -19.9666    4.0743 H         1 MOL     0.0377
     38 H          42.0151  -21.5399    4.8461 H         1 MOL     0.0377
     39 H          41.6746  -20.4666    7.5857 H         1 MOL     0.0629
     40 H          42.4132  -19.2405   12.1267 H         1 MOL     0.0480
     41 H          40.9749  -20.1665   11.6664 H         1 MOL     0.0480
     42 H          40.8495  -17.8104   12.9067 H         1 MOL     0.0480
     43 H          39.6163  -18.3948   11.8229 H         1 MOL     0.0480
     44 H          41.1134  -16.4570    9.0121 H         1 MOL     0.0480
     45 H          39.5640  -17.1649    9.4339 H         1 MOL     0.0480
     46 H          41.6976  -18.4461    8.2553 H         1 MOL     0.0480
     47 H          40.2546  -19.1821    8.9750 H         1 MOL     0.0480
     48 H          42.7299  -15.8588   12.7422 H         1 MOL     0.0394
     49 H          40.7714  -15.8281   14.8151 H         1 MOL     0.0273
     50 H          39.6185  -15.8027   13.8360 H         1 MOL     0.0273
     51 H          41.8625  -13.6407   14.1608 H         1 MOL     0.0273
     52 H          40.8954  -13.2359   13.0644 H         1 MOL     0.0273
     53 H          46.1153  -18.9756    6.4689 H         1 MOL     0.0646
     54 H          44.5612  -19.5992    4.7348 H         1 MOL     0.0621
     55 H          38.1176  -21.8266    6.6032 H         1 MOL     0.1921
@<TRIPOS>BOND
     1    1   18 1 
     2    1   21 1 
     3    1   17 am
     4    2   20 1 
     5    2   22 am
     6    2   19 1 
     7    3    4 ar
     8    3   12 ar
     9    4   55 1 
    10    4    5 ar
    11    5    6 ar
    12    5   29 2 
    13    6    7 ar
    14    6   11 ar
    15    7    8 ar
    16    7   33 1 
    17    8    9 ar
    18    8   34 1 
    19    9   10 ar
    20    9   35 1 
    21   10   11 ar
    22   10   36 1 
    23   11   12 ar
    24   12   13 1 
    25   13   14 1 
    26   13   37 1 
    27   13   38 1 
    28   14   15 ar
    29   14   28 ar
    30   15   16 ar
    31   15   39 1 
    32   16   17 1 
    33   16   26 ar
    34   17   31 2 
    35   18   19 1 
    36   18   40 1 
    37   18   41 1 
    38   19   42 1 
    39   19   43 1 
    40   20   21 1 
    41   20   44 1 
    42   20   45 1 
    43   21   46 1 
    44   21   47 1 
    45   22   23 1 
    46   22   30 2 
    47   23   24 1 
    48   23   25 1 
    49   23   48 1 
    50   24   25 1 
    51   24   49 1 
    52   24   50 1 
    53   25   51 1 
    54   25   52 1 
    55   26   27 ar
    56   26   32 1 
    57   27   28 ar
    58   27   53 1 
    59   28   54 1 
@<TRIPOS>SUBSTRUCTURE
1 MOL         1
@<TRIPOS>MOLECULE
query molecule
   55    59     1     0     0
SMALL
NO_CHARGE

@<TRIPOS>ATOM
      1 N          38.0715    2.1180   31.7977 N.am      1 MOL    -0.2945
      2 N          39.7442    0.1327   31.7025 N.am      1 MOL    -0.2983
      3 N          39.5213    8.4963   33.5756 N.ar      1 MOL    -0.1750
      4 N          40.4185    9.3200   34.0606 N.ar      1 MOL    -0.2425
      5 C          40.4871   10.6150   33.7213 C.ar      1 MOL     0.2725
      6 C          39.5720   11.1134   32.8169 C.ar      1 MOL     0.0496
      7 C          39.6109   12.4488   32.4140 C.ar      1 MOL     0.0138
      8 C          38.6999   12.9195   31.4931 C.ar      1 MOL     0.0008
      9 C          37.7773   12.0167   31.0085 C.ar      1 MOL     0.0007
     10 C          37.7273   10.6890   31.3991 C.ar      1 MOL     0.0103
     11 C          38.6317   10.2339   32.3128 C.ar      1 MOL     0.0106
     12 C          38.5795    8.9145   32.6749 C.ar      1 MOL     0.0736
     13 C          37.6004    7.9164   32.2648 C.3       1 MOL     0.0925
     14 C          38.2644    6.7987   31.5389 C.ar      1 MOL    -0.0406
     15 C          37.6035    5.5589   31.6010 C.ar      1 MOL     0.0196
     16 C          38.1441    4.4639   30.9706 C.ar      1 MOL     0.0723
     17 C          37.4742    3.1448   31.0206 C.2       1 MOL     0.2495
     18 C          37.4525    0.8343   31.8742 C.3       1 MOL     0.1268
     19 C          38.4417   -0.2748   32.1612 C.3       1 MOL     0.1265
     20 C          40.3368    1.3112   32.3443 C.3       1 MOL     0.1265
     21 C          39.3081    2.4011   32.5023 C.3       1 MOL     0.1268
     22 C          40.4312   -0.5472   30.6925 C.2       1 MOL     0.2187
     23 C          39.9696   -1.7234   29.9506 C.3       1 MOL     0.0752
     24 C          39.7155   -1.5229   28.4737 C.3       1 MOL     0.0134
     25 C          38.5969   -1.7811   29.3831 C.3       1 MOL     0.0134
     26 C          39.3223    4.5061   30.2634 C.ar      1 MOL     0.1355
     27 C          39.9684    5.7201   30.2034 C.ar      1 MOL     0.0392
     28 C          39.4201    6.8392   30.8462 C.ar      1 MOL     0.0066
     29 O          41.3390   11.4205   34.1765 O.2       1 MOL    -0.2658
     30 O          41.5916   -0.1099   30.3647 O.2       1 MOL    -0.2753
     31 O          36.4087    2.9130   30.4044 O.2       1 MOL    -0.2699
     32 F          39.8187    3.3898   29.6550 F         1 MOL    -0.2047
     33 H          40.3223   13.0851   32.8064 H         1 MOL     0.0625
     34 H          38.7085   13.9021   31.1804 H         1 MOL     0.0618
     35 H          37.0871   12.3482   30.3172 H         1 MOL     0.0618
     36 H          37.0163   10.0528   31.0053 H         1 MOL     0.0624
     37 H          36.8786    8.3746   31.6213 H         1 MOL     0.0377
     38 H          37.1218    7.5232   33.1375 H         1 MOL     0.0377
     39 H          36.7153    5.4716   32.1186 H         1 MOL     0.0629
     40 H          36.9702    0.6305   30.9407 H         1 MOL     0.0480
     41 H          36.7523    0.8608   32.6836 H         1 MOL     0.0480
     42 H          38.1421   -1.1649   31.6491 H         1 MOL     0.0480
     43 H          38.4718   -0.4705   33.2130 H         1 MOL     0.0480
     44 H          41.1427    1.6735   31.7411 H         1 MOL     0.0480
     45 H          40.6966    1.0339   33.3131 H         1 MOL     0.0480
     46 H          39.7159    3.3139   32.1205 H         1 MOL     0.0480
     47 H          39.0744    2.4734   33.5432 H         1 MOL     0.0480
     48 H          40.5380   -2.3811   30.5741 H         1 MOL     0.0394
     49 H          40.0188   -2.2717   27.7719 H         1 MOL     0.0273
     50 H          39.9528   -0.7604   27.7613 H         1 MOL     0.0273
     51 H          38.0804   -2.7171   29.3363 H         1 MOL     0.0273
     52 H          37.6781   -1.2780   29.5977 H         1 MOL     0.0273
     53 H          40.8569    5.8063   29.6845 H         1 MOL     0.0646
     54 H          39.9250    7.7375   30.7859 H         1 MOL     0.0621
     55 H          41.0740    8.9700   34.7068 H         1 MOL     0.1921
@<TRIPOS>BOND
     1    1   18 1 
     2    1   21 1 
     3    1   17 am
     4    2   20 1 
     5    2   22 am
     6    2   19 1 
     7    3    4 ar
     8    3   12 ar
     9    4   55 1 
    10    4    5 ar
    11    5    6 ar
    12    5   29 2 
    13    6    7 ar
    14    6   11 ar
    15    7    8 ar
    16    7   33 1 
    17    8    9 ar
    18    8   34 1 
    19    9   10 ar
    20    9   35 1 
    21   10   11 ar
    22   10   36 1 
    23   11   12 ar
    24   12   13 1 
    25   13   14 1 
    26   13   37 1 
    27   13   38 1 
    28   14   15 ar
    29   14   28 ar
    30   15   16 ar
    31   15   39 1 
    32   16   17 1 
    33   16   26 ar
    34   17   31 2 
    35   18   19 1 
    36   18   40 1 
    37   18   41 1 
    38   19   42 1 
    39   19   43 1 
    40   20   21 1 
    41   20   44 1 
    42   20   45 1 
    43   21   46 1 
    44   21   47 1 
    45   22   23 1 
    46   22   30 2 
    47   23   24 1 
    48   23   25 1 
    49   23   48 1 
    50   24   25 1 
    51   24   49 1 
    52   24   50 1 
    53   25   51 1 
    54   25   52 1 
    55   26   27 ar
    56   26   32 1 
    57   27   28 ar
    58   27   53 1 
    59   28   54 1 
@<TRIPOS>SUBSTRUCTURE
1 MOL         1
@<TRIPOS>MOLECULE
query molecule
   55    59     1     0     0
SMALL
NO_CHARGE

@<TRIPOS>ATOM
      1 N          20.4784  -16.2743    1.5544 N.am      1 MOL    -0.2945
      2 N          20.3609  -18.7879    2.1997 N.am      1 MOL    -0.2983
      3 N          23.9634  -18.6946   -1.5008 N.ar      1 MOL    -0.1750
      4 N          23.4832  -19.8589   -1.1373 N.ar      1 MOL    -0.2425
      5 C          23.3892  -20.2484    0.1420 C.ar      1 MOL     0.2725
      6 C          23.8174  -19.3869    1.1310 C.ar      1 MOL     0.0496
      7 C          23.7606  -19.7500    2.4771 C.ar      1 MOL     0.0138
      8 C          24.2139  -18.8816    3.4467 C.ar      1 MOL     0.0008
      9 C          24.7129  -17.6701    3.0173 C.ar      1 MOL     0.0007
     10 C          24.7756  -17.2969    1.6851 C.ar      1 MOL     0.0103
     11 C          24.3221  -18.1624    0.7338 C.ar      1 MOL     0.0106
     12 C          24.4075  -17.7850   -0.5796 C.ar      1 MOL     0.0736
     13 C          24.8552  -16.5043   -1.1109 C.3       1 MOL     0.0925
     14 C          23.7302  -15.5293   -1.1448 C.ar      1 MOL    -0.0406
     15 C          22.6119  -15.8675   -0.3620 C.ar      1 MOL     0.0196
     16 C          21.5186  -15.0351   -0.3363 C.ar      1 MOL     0.0723
     17 C          20.3253  -15.3652    0.4750 C.2       1 MOL     0.2495
     18 C          19.3517  -16.6133    2.3623 C.3       1 MOL     0.1268
     19 C          19.4824  -17.9782    3.0033 C.3       1 MOL     0.1265
     20 C          21.7468  -18.3279    2.0595 C.3       1 MOL     0.1265
     21 C          21.7887  -16.8418    1.8129 C.3       1 MOL     0.1268
     22 C          19.9348  -19.9617    1.5714 C.2       1 MOL     0.2187
     23 C          18.5890  -20.5403    1.6043 C.3       1 MOL     0.0752
     24 C          17.7560  -20.3627    0.3550 C.3       1 MOL     0.0134
     25 C          17.3817  -19.6730    1.5917 C.3       1 MOL     0.0134
     26 C          21.4483  -13.8603   -1.0468 C.ar      1 MOL     0.1355
     27 C          22.5435  -13.5303   -1.8128 C.ar      1 MOL     0.0392
     28 C          23.6602  -14.3778   -1.8420 C.ar      1 MOL     0.0066
     29 O          22.9305  -21.3600    0.5103 O.2       1 MOL    -0.2658
     30 O          20.7993  -20.6171    0.8869 O.2       1 MOL    -0.2753
     31 O          19.1991  -14.8707    0.2385 O.2       1 MOL    -0.2699
     32 F          20.3389  -13.0676   -0.9887 F         1 MOL    -0.2047
     33 H          23.3782  -20.6696    2.7474 H         1 MOL     0.0625
     34 H          24.1818  -19.1272    4.4477 H         1 MOL     0.0618
     35 H          25.0587  -17.0060    3.7268 H         1 MOL     0.0618
     36 H          25.1593  -16.3774    1.4155 H         1 MOL     0.0624
     37 H          25.2284  -16.6459   -2.1037 H         1 MOL     0.0377
     38 H          25.6260  -16.1179   -0.4770 H         1 MOL     0.0377
     39 H          22.6121  -16.7384    0.1913 H         1 MOL     0.0629
     40 H          18.4752  -16.6053    1.7482 H         1 MOL     0.0480
     41 H          19.2896  -15.8907    3.1498 H         1 MOL     0.0480
     42 H          18.5199  -18.4411    3.0622 H         1 MOL     0.0480
     43 H          19.8827  -17.8781    3.9908 H         1 MOL     0.0480
     44 H          22.2047  -18.8338    1.2354 H         1 MOL     0.0480
     45 H          22.2761  -18.5420    2.9644 H         1 MOL     0.0480
     46 H          22.4142  -16.6535    0.9652 H         1 MOL     0.0480
     47 H          22.1686  -16.3800    2.6992 H         1 MOL     0.0480
     48 H          18.9135  -21.3434    2.2320 H         1 MOL     0.0394
     49 H          17.1577  -21.1719   -0.0089 H         1 MOL     0.0273
     50 H          17.9560  -20.0591   -0.6514 H         1 MOL     0.0273
     51 H          16.5042  -19.9765    2.1235 H         1 MOL     0.0273
     52 H          17.1922  -18.6527    1.8491 H         1 MOL     0.0273
     53 H          22.5423  -12.6582   -2.3656 H         1 MOL     0.0646
     54 H          24.4680  -14.1070   -2.4249 H         1 MOL     0.0621
     55 H          23.1757  -20.4779   -1.8388 H         1 MOL     0.1921
@<TRIPOS>BOND
     1    1   18 1 
     2    1   21 1 
     3    1   17 am
     4    2   20 1 
     5    2   22 am
     6    2   19 1 
     7    3    4 ar
     8    3   12 ar
     9    4   55 1 
    10    4    5 ar
    11    5    6 ar
    12    5   29 2 
    13    6    7 ar
    14    6   11 ar
    15    7    8 ar
    16    7   33 1 
    17    8    9 ar
    18    8   34 1 
    19    9   10 ar
    20    9   35 1 
    21   10   11 ar
    22   10   36 1 
    23   11   12 ar
    24   12   13 1 
    25   13   14 1 
    26   13   37 1 
    27   13   38 1 
    28   14   15 ar
    29   14   28 ar
    30   15   16 ar
    31   15   39 1 
    32   16   17 1 
    33   16   26 ar
    34   17   31 2 
    35   18   19 1 
    36   18   40 1 
    37   18   41 1 
    38   19   42 1 
    39   19   43 1 
    40   20   21 1 
    41   20   44 1 
    42   20   45 1 
    43   21   46 1 
    44   21   47 1 
    45   22   23 1 
    46   22   30 2 
    47   23   24 1 
    48   23   25 1 
    49   23   48 1 
    50   24   25 1 
    51   24   49 1 
    52   24   50 1 
    53   25   51 1 
    54   25   52 1 
    55   26   27 ar
    56   26   32 1 
    57   27   28 ar
    58   27   53 1 
    59   28   54 1 
@<TRIPOS>SUBSTRUCTURE
1 MOL         1
@<TRIPOS>MOLECULE
query molecule
   55    59     1     0     0
SMALL
NO_CHARGE

@<TRIPOS>ATOM
      1 N          32.0175   12.3417    3.0352 N.am      1 MOL    -0.2945
      2 N          30.8437   12.1955    5.3481 N.am      1 MOL    -0.2983
      3 N          26.1892   10.5100   -0.9571 N.ar      1 MOL    -0.1750
      4 N          24.9811   10.9891   -1.1288 N.ar      1 MOL    -0.2425
      5 C          24.4732   11.9849   -0.3890 C.ar      1 MOL     0.2725
      6 C          25.2543   12.5383    0.6047 C.ar      1 MOL     0.0496
      7 C          24.7678   13.5633    1.4169 C.ar      1 MOL     0.0138
      8 C          25.5583   14.0864    2.4174 C.ar      1 MOL     0.0008
      9 C          26.8200   13.5495    2.5625 C.ar      1 MOL     0.0007
     10 C          27.3155   12.5322    1.7642 C.ar      1 MOL     0.0103
     11 C          26.5261   12.0234    0.7753 C.ar      1 MOL     0.0106
     12 C          27.0249   11.0061    0.0066 C.ar      1 MOL     0.0736
     13 C          28.3631   10.4313    0.0492 C.3       1 MOL     0.0925
     14 C          29.3903   11.4757   -0.2180 C.ar      1 MOL    -0.0406
     15 C          30.2290   11.7914    0.8658 C.ar      1 MOL     0.0196
     16 C          31.2020   12.7510    0.7201 C.ar      1 MOL     0.0723
     17 C          32.0980   13.1081    1.8431 C.2       1 MOL     0.2495
     18 C          32.8687   12.6527    4.1379 C.3       1 MOL     0.1268
     19 C          32.2781   12.2347    5.4674 C.3       1 MOL     0.1265
     20 C          30.2817   11.2346    4.3927 C.3       1 MOL     0.1265
     21 C          31.0635   11.2504    3.1044 C.3       1 MOL     0.1268
     22 C          30.0050   13.0262    6.0970 C.2       1 MOL     0.2187
     23 C          30.4122   14.0395    7.0740 C.3       1 MOL     0.0752
     24 C          31.7573   14.6891    6.8398 C.3       1 MOL     0.0134
     25 C          31.5593   13.8037    7.9895 C.3       1 MOL     0.0134
     26 C          31.4128   13.4397   -0.4509 C.ar      1 MOL     0.1355
     27 C          30.5913   13.1298   -1.5111 C.ar      1 MOL     0.0392
     28 C          29.5968   12.1519   -1.3656 C.ar      1 MOL     0.0066
     29 O          23.3179   12.4585   -0.5394 O.2       1 MOL    -0.2658
     30 O          28.7398   12.9046    5.9246 O.2       1 MOL    -0.2753
     31 O          32.9145   14.0551    1.7711 O.2       1 MOL    -0.2699
     32 F          32.3927   14.3850   -0.5452 F         1 MOL    -0.2047
     33 H          23.8150   13.9309    1.2680 H         1 MOL     0.0625
     34 H          25.2211   14.8443    3.0299 H         1 MOL     0.0618
     35 H          27.4275   13.9259    3.3064 H         1 MOL     0.0618
     36 H          28.2681   12.1642    1.9144 H         1 MOL     0.0624
     37 H          28.4405    9.6635   -0.6921 H         1 MOL     0.0377
     38 H          28.5329   10.0235    1.0239 H         1 MOL     0.0377
     39 H          30.1140   11.3043    1.7680 H         1 MOL     0.0629
     40 H          33.0357   13.7097    4.1541 H         1 MOL     0.0480
     41 H          33.7817   12.1099    4.0045 H         1 MOL     0.0480
     42 H          32.5572   12.9396    6.2220 H         1 MOL     0.0480
     43 H          32.6464   11.2674    5.7396 H         1 MOL     0.0480
     44 H          29.2639   11.4938    4.1891 H         1 MOL     0.0480
     45 H          30.3353   10.2534    4.8162 H         1 MOL     0.0480
     46 H          30.3770   11.3466    2.2892 H         1 MOL     0.0480
     47 H          31.6173   10.3372    3.0538 H         1 MOL     0.0480
     48 H          29.3993   14.3484    7.2253 H         1 MOL     0.0394
     49 H          31.8763   15.7421    6.9892 H         1 MOL     0.0273
     50 H          32.4473   14.7279    6.0229 H         1 MOL     0.0273
     51 H          31.5429   14.2133    8.9779 H         1 MOL     0.0273
     52 H          32.0574   12.9303    8.3532 H         1 MOL     0.0273
     53 H          30.7079   13.6176   -2.4136 H         1 MOL     0.0646
     54 H          28.9942   11.9389   -2.1761 H         1 MOL     0.0621
     55 H          24.4191   10.5982   -1.8368 H         1 MOL     0.1921
@<TRIPOS>BOND
     1    1   18 1 
     2    1   21 1 
     3    1   17 am
     4    2   20 1 
     5    2   22 am
     6    2   19 1 
     7    3    4 ar
     8    3   12 ar
     9    4   55 1 
    10    4    5 ar
    11    5    6 ar
    12    5   29 2 
    13    6    7 ar
    14    6   11 ar
    15    7    8 ar
    16    7   33 1 
    17    8    9 ar
    18    8   34 1 
    19    9   10 ar
    20    9   35 1 
    21   10   11 ar
    22   10   36 1 
    23   11   12 ar
    24   12   13 1 
    25   13   14 1 
    26   13   37 1 
    27   13   38 1 
    28   14   15 ar
    29   14   28 ar
    30   15   16 ar
    31   15   39 1 
    32   16   17 1 
    33   16   26 ar
    34   17   31 2 
    35   18   19 1 
    36   18   40 1 
    37   18   41 1 
    38   19   42 1 
    39   19   43 1 
    40   20   21 1 
    41   20   44 1 
    42   20   45 1 
    43   21   46 1 
    44   21   47 1 
    45   22   23 1 
    46   22   30 2 
    47   23   24 1 
    48   23   25 1 
    49   23   48 1 
    50   24   25 1 
    51   24   49 1 
    52   24   50 1 
    53   25   51 1 
    54   25   52 1 
    55   26   27 ar
    56   26   32 1 
    57   27   28 ar
    58   27   53 1 
    59   28   54 1 
@<TRIPOS>SUBSTRUCTURE
1 MOL         1
@<TRIPOS>MOLECULE
query molecule
   55    59     1     0     0
SMALL
NO_CHARGE

@<TRIPOS>ATOM
      1 N          47.6650  -19.0718   19.5808 N.am      1 MOL    -0.2945
      2 N          47.8685  -18.0425   17.2044 N.am      1 MOL    -0.2983
      3 N          52.0189  -20.1507   26.2381 N.ar      1 MOL    -0.1750
      4 N          53.1800  -20.0035   26.8286 N.ar      1 MOL    -0.2425
      5 C          54.3429  -20.3536   26.2612 C.ar      1 MOL     0.2725
      6 C          54.3255  -20.8970   24.9931 C.ar      1 MOL     0.0496
      7 C          55.5052  -21.2970   24.3643 C.ar      1 MOL     0.0138
      8 C          55.4616  -21.8572   23.1057 C.ar      1 MOL     0.0008
      9 C          54.2185  -21.9949   22.5253 C.ar      1 MOL     0.0007
     10 C          53.0400  -21.6027   23.1377 C.ar      1 MOL     0.0103
     11 C          53.0943  -21.0472   24.3820 C.ar      1 MOL     0.0106
     12 C          51.9186  -20.6811   24.9804 C.ar      1 MOL     0.0736
     13 C          50.5775  -20.7290   24.4126 C.3       1 MOL     0.0925
     14 C          50.4153  -19.6845   23.3637 C.ar      1 MOL    -0.0406
     15 C          49.1818  -19.6908   22.6884 C.ar      1 MOL     0.0196
     16 C          48.9413  -18.7712   21.6958 C.ar      1 MOL     0.0723
     17 C          47.6544  -18.7546   20.9644 C.2       1 MOL     0.2495
     18 C          46.4433  -19.0709   18.8430 C.3       1 MOL     0.1268
     19 C          46.6513  -18.7936   17.3696 C.3       1 MOL     0.1265
     20 C          49.1145  -18.6948   17.6217 C.3       1 MOL     0.1265
     21 C          48.9291  -19.3926   18.9445 C.3       1 MOL     0.1268
     22 C          47.8866  -16.7492   16.6741 C.2       1 MOL     0.2187
     23 C          46.7330  -15.9634   16.2282 C.3       1 MOL     0.0752
     24 C          46.7424  -15.5275   14.7805 C.3       1 MOL     0.0134
     25 C          46.8806  -14.5340   15.8477 C.3       1 MOL     0.0134
     26 C          49.8559  -17.8193   21.3119 C.ar      1 MOL     0.1355
     27 C          51.0630  -17.8141   21.9736 C.ar      1 MOL     0.0392
     28 C          51.3120  -18.7516   22.9862 C.ar      1 MOL     0.0066
     29 O          55.4661  -20.2190   26.8109 O.2       1 MOL    -0.2658
     30 O          49.0253  -16.1703   16.5577 O.2       1 MOL    -0.2753
     31 O          46.5708  -18.4723   21.5255 O.2       1 MOL    -0.2699
     32 F          49.5696  -16.9277   20.3190 F         1 MOL    -0.2047
     33 H          56.4116  -21.1729   24.8417 H         1 MOL     0.0625
     34 H          56.3197  -22.1600   22.6207 H         1 MOL     0.0618
     35 H          54.1635  -22.4131   21.5839 H         1 MOL     0.0618
     36 H          52.1336  -21.7283   22.6601 H         1 MOL     0.0624
     37 H          49.8601  -20.5628   25.1889 H         1 MOL     0.0377
     38 H          50.4253  -21.6901   23.9671 H         1 MOL     0.0377
     39 H          48.4594  -20.3842   22.9372 H         1 MOL     0.0629
     40 H          45.8001  -18.3166   19.2464 H         1 MOL     0.0480
     41 H          46.0121  -20.0468   18.9307 H         1 MOL     0.0480
     42 H          45.8258  -18.2290   16.9902 H         1 MOL     0.0480
     43 H          46.7187  -19.7171   16.8328 H         1 MOL     0.0480
     44 H          49.8835  -17.9573   17.7183 H         1 MOL     0.0480
     45 H          49.3893  -19.4204   16.8849 H         1 MOL     0.0480
     46 H          49.7234  -19.1003   19.5993 H         1 MOL     0.0480
     47 H          48.9348  -20.4450   18.7557 H         1 MOL     0.0480
     48 H          46.0781  -16.4855   16.8937 H         1 MOL     0.0394
     49 H          45.8427  -15.5709   14.2026 H         1 MOL     0.0273
     50 H          47.3109  -15.7928   13.9136 H         1 MOL     0.0273
     51 H          46.0823  -13.8479   16.0404 H         1 MOL     0.0273
     52 H          47.5971  -13.7721   16.0697 H         1 MOL     0.0273
     53 H          51.7849  -17.1193   21.7240 H         1 MOL     0.0646
     54 H          52.2255  -18.7261   23.4662 H         1 MOL     0.0621
     55 H          53.1987  -19.6159   27.7337 H         1 MOL     0.1921
@<TRIPOS>BOND
     1    1   18 1 
     2    1   21 1 
     3    1   17 am
     4    2   20 1 
     5    2   22 am
     6    2   19 1 
     7    3    4 ar
     8    3   12 ar
     9    4   55 1 
    10    4    5 ar
    11    5    6 ar
    12    5   29 2 
    13    6    7 ar
    14    6   11 ar
    15    7    8 ar
    16    7   33 1 
    17    8    9 ar
    18    8   34 1 
    19    9   10 ar
    20    9   35 1 
    21   10   11 ar
    22   10   36 1 
    23   11   12 ar
    24   12   13 1 
    25   13   14 1 
    26   13   37 1 
    27   13   38 1 
    28   14   15 ar
    29   14   28 ar
    30   15   16 ar
    31   15   39 1 
    32   16   17 1 
    33   16   26 ar
    34   17   31 2 
    35   18   19 1 
    36   18   40 1 
    37   18   41 1 
    38   19   42 1 
    39   19   43 1 
    40   20   21 1 
    41   20   44 1 
    42   20   45 1 
    43   21   46 1 
    44   21   47 1 
    45   22   23 1 
    46   22   30 2 
    47   23   24 1 
    48   23   25 1 
    49   23   48 1 
    50   24   25 1 
    51   24   49 1 
    52   24   50 1 
    53   25   51 1 
    54   25   52 1 
    55   26   27 ar
    56   26   32 1 
    57   27   28 ar
    58   27   53 1 
    59   28   54 1 
@<TRIPOS>SUBSTRUCTURE
1 MOL         1
@<TRIPOS>MOLECULE
query molecule
   55    59     1     0     0
SMALL
NO_CHARGE

@<TRIPOS>ATOM
      1 N          44.1255  -23.0358   32.3340 N.am      1 MOL    -0.2945
      2 N          41.5608  -23.3513   32.6004 N.am      1 MOL    -0.2983
      3 N          49.3230  -19.8135   30.3867 N.ar      1 MOL    -0.1750
      4 N          50.3354  -19.1070   30.8278 N.ar      1 MOL    -0.2425
      5 C          51.3572  -18.7219   30.0503 C.ar      1 MOL     0.2725
      6 C          51.3508  -19.0833   28.7188 C.ar      1 MOL     0.0496
      7 C          52.3992  -18.7259   27.8700 C.ar      1 MOL     0.0138
      8 C          52.3819  -19.1162   26.5483 C.ar      1 MOL     0.0008
      9 C          51.2988  -19.8601   26.1301 C.ar      1 MOL     0.0007
     10 C          50.2520  -20.2221   26.9613 C.ar      1 MOL     0.0103
     11 C          50.2775  -19.8286   28.2668 C.ar      1 MOL     0.0106
     12 C          49.2434  -20.2099   29.0791 C.ar      1 MOL     0.0736
     13 C          48.0355  -20.9329   28.7033 C.3       1 MOL     0.0925
     14 C          46.8976  -20.5437   29.5814 C.ar      1 MOL    -0.0406
     15 C          46.5869  -21.4526   30.6086 C.ar      1 MOL     0.0196
     16 C          45.5456  -21.1863   31.4650 C.ar      1 MOL     0.0723
     17 C          45.1918  -22.1248   32.5537 C.2       1 MOL     0.2495
     18 C          43.7584  -23.9593   33.3584 C.3       1 MOL     0.1268
     19 C          42.3084  -24.3842   33.2692 C.3       1 MOL     0.1265
     20 C          41.9298  -23.0561   31.2116 C.3       1 MOL     0.1265
     21 C          43.4286  -23.0060   31.0616 C.3       1 MOL     0.1268
     22 C          40.5274  -22.6477   33.2258 C.2       1 MOL     0.2187
     23 C          40.0540  -22.8157   34.6024 C.3       1 MOL     0.0752
     24 C          39.5668  -21.5644   35.2974 C.3       1 MOL     0.0134
     25 C          40.7962  -22.2224   35.7455 C.3       1 MOL     0.0134
     26 C          44.7680  -20.0559   31.3783 C.ar      1 MOL     0.1355
     27 C          45.0730  -19.1669   30.3724 C.ar      1 MOL     0.0392
     28 C          46.1342  -19.4360   29.4963 C.ar      1 MOL     0.0066
     29 O          52.3360  -18.0433   30.4546 O.2       1 MOL    -0.2658
     30 O          39.9156  -21.7541   32.5384 O.2       1 MOL    -0.2753
     31 O          45.7997  -22.1373   33.6487 O.2       1 MOL    -0.2699
     32 F          43.7436  -19.8370   32.2532 F         1 MOL    -0.2047
     33 H          53.1883  -18.1680   28.2320 H         1 MOL     0.0625
     34 H          53.1446  -18.8639   25.9019 H         1 MOL     0.0618
     35 H          51.2669  -20.1636   25.1447 H         1 MOL     0.0618
     36 H          49.4636  -20.7811   26.5988 H         1 MOL     0.0624
     37 H          48.2102  -21.9843   28.7985 H         1 MOL     0.0377
     38 H          47.7878  -20.6888   27.6912 H         1 MOL     0.0377
     39 H          47.1391  -22.3172   30.7188 H         1 MOL     0.0629
     40 H          43.9227  -23.4981   34.3101 H         1 MOL     0.0480
     41 H          44.3605  -24.8357   33.2343 H         1 MOL     0.0480
     42 H          41.9162  -24.5324   34.2533 H         1 MOL     0.0480
     43 H          42.2321  -25.3004   32.7213 H         1 MOL     0.0480
     44 H          41.5168  -22.1102   30.9303 H         1 MOL     0.0480
     45 H          41.5460  -23.8294   30.5794 H         1 MOL     0.0480
     46 H          43.6909  -22.1027   30.5511 H         1 MOL     0.0480
     47 H          43.7254  -23.8745   30.5133 H         1 MOL     0.0480
     48 H          39.6872  -23.7982   34.3916 H         1 MOL     0.0394
     49 H          38.6883  -21.5987   35.9076 H         1 MOL     0.0273
     50 H          39.3082  -20.5752   34.9821 H         1 MOL     0.0273
     51 H          40.8136  -22.7290   36.6879 H         1 MOL     0.0273
     52 H          41.8043  -21.8985   35.8942 H         1 MOL     0.0273
     53 H          44.5200  -18.3017   30.2636 H         1 MOL     0.0646
     54 H          46.3416  -18.7531   28.7505 H         1 MOL     0.0621
     55 H          50.3452  -18.8458   31.7772 H         1 MOL     0.1921
@<TRIPOS>BOND
     1    1   18 1 
     2    1   21 1 
     3    1   17 am
     4    2   20 1 
     5    2   22 am
     6    2   19 1 
     7    3    4 ar
     8    3   12 ar
     9    4   55 1 
    10    4    5 ar
    11    5    6 ar
    12    5   29 2 
    13    6    7 ar
    14    6   11 ar
    15    7    8 ar
    16    7   33 1 
    17    8    9 ar
    18    8   34 1 
    19    9   10 ar
    20    9   35 1 
    21   10   11 ar
    22   10   36 1 
    23   11   12 ar
    24   12   13 1 
    25   13   14 1 
    26   13   37 1 
    27   13   38 1 
    28   14   15 ar
    29   14   28 ar
    30   15   16 ar
    31   15   39 1 
    32   16   17 1 
    33   16   26 ar
    34   17   31 2 
    35   18   19 1 
    36   18   40 1 
    37   18   41 1 
    38   19   42 1 
    39   19   43 1 
    40   20   21 1 
    41   20   44 1 
    42   20   45 1 
    43   21   46 1 
    44   21   47 1 
    45   22   23 1 
    46   22   30 2 
    47   23   24 1 
    48   23   25 1 
    49   23   48 1 
    50   24   25 1 
    51   24   49 1 
    52   24   50 1 
    53   25   51 1 
    54   25   52 1 
    55   26   27 ar
    56   26   32 1 
    57   27   28 ar
    58   27   53 1 
    59   28   54 1 
@<TRIPOS>SUBSTRUCTURE
1 MOL         1
@<TRIPOS>MOLECULE
query molecule
   55    59     1     0     0
SMALL
NO_CHARGE

@<TRIPOS>ATOM
      1 N           2.9330   -6.4395   17.3777 N.am      1 MOL    -0.2945
      2 N           1.3479   -4.4054   17.0645 N.am      1 MOL    -0.2983
      3 N           6.8865   -9.4580   11.6384 N.ar      1 MOL    -0.1750
      4 N           8.1751   -9.6970   11.6056 N.ar      1 MOL    -0.2425
      5 C           9.0951   -8.8302   12.0518 C.ar      1 MOL     0.2725
      6 C           8.6731   -7.6242   12.5726 C.ar      1 MOL     0.0496
      7 C           9.5894   -6.6777   13.0325 C.ar      1 MOL     0.0138
      8 C           9.1459   -5.4709   13.5291 C.ar      1 MOL     0.0008
      9 C           7.7829   -5.2628   13.5413 C.ar      1 MOL     0.0007
     10 C           6.8623   -6.1928   13.0879 C.ar      1 MOL     0.0103
     11 C           7.3115   -7.3848   12.6009 C.ar      1 MOL     0.0106
     12 C           6.3893   -8.2859   12.1405 C.ar      1 MOL     0.0736
     13 C           4.9371   -8.1732   12.1802 C.3       1 MOL     0.0925
     14 C           4.4130   -8.6209   13.5001 C.ar      1 MOL    -0.0406
     15 C           4.5019   -7.6770   14.5387 C.ar      1 MOL     0.0196
     16 C           4.0535   -8.0009   15.7968 C.ar      1 MOL     0.0723
     17 C           4.1366   -7.0304   16.9115 C.2       1 MOL     0.2495
     18 C           2.9723   -5.5030   18.4539 C.3       1 MOL     0.1268
     19 C           1.8163   -4.5264   18.4206 C.3       1 MOL     0.1265
     20 C           0.8074   -5.6161   16.4369 C.3       1 MOL     0.1265
     21 C           1.6804   -6.8058   16.7432 C.3       1 MOL     0.1268
     22 C           1.3970   -3.2002   16.3579 C.2       1 MOL     0.2187
     23 C           1.9175   -1.9175   16.8385 C.3       1 MOL     0.0752
     24 C           2.0669   -1.7776   18.3365 C.3       1 MOL     0.0134
     25 C           1.0614   -0.9883   17.6216 C.3       1 MOL     0.0134
     26 C           3.5081   -9.2229   16.1118 C.ar      1 MOL     0.1355
     27 C           3.4217  -10.1461   15.0943 C.ar      1 MOL     0.0392
     28 C           3.8792   -9.8192   13.8097 C.ar      1 MOL     0.0066
     29 O          10.3347   -9.0418   12.0299 O.2       1 MOL    -0.2658
     30 O           0.9434   -3.1955   15.1581 O.2       1 MOL    -0.2753
     31 O           5.2253   -6.7206   17.4478 O.2       1 MOL    -0.2699
     32 F           3.0776   -9.4967   17.3776 F         1 MOL    -0.2047
     33 H          10.6006   -6.8815   13.0016 H         1 MOL     0.0625
     34 H           9.8036   -4.7561   13.8750 H         1 MOL     0.0618
     35 H           7.4298   -4.3654   13.9077 H         1 MOL     0.0618
     36 H           5.8512   -5.9877   13.1181 H         1 MOL     0.0624
     37 H           4.5152   -8.7829   11.4086 H         1 MOL     0.0377
     38 H           4.6661   -7.1485   12.0323 H         1 MOL     0.0377
     39 H           4.9029   -6.7439   14.3569 H         1 MOL     0.0629
     40 H           3.8882   -4.9523   18.3953 H         1 MOL     0.0480
     41 H           2.9016   -6.0570   19.3672 H         1 MOL     0.0480
     42 H           2.1425   -3.5713   18.7752 H         1 MOL     0.0480
     43 H           1.0247   -4.8801   19.0481 H         1 MOL     0.0480
     44 H           0.7648   -5.4752   15.3772 H         1 MOL     0.0480
     45 H          -0.1730   -5.7992   16.8247 H         1 MOL     0.0480
     46 H           1.8988   -7.3142   15.8273 H         1 MOL     0.0480
     47 H           1.1449   -7.4290   17.4274 H         1 MOL     0.0480
     48 H           2.5277   -1.8010   15.9676 H         1 MOL     0.0394
     49 H           2.9319   -1.2984   18.7457 H         1 MOL     0.0273
     50 H           2.0506   -2.4540   19.1655 H         1 MOL     0.0273
     51 H           1.1919    0.0688   17.5183 H         1 MOL     0.0273
     52 H           0.0058   -0.8538   17.7260 H         1 MOL     0.0273
     53 H           3.0196  -11.0794   15.2775 H         1 MOL     0.0646
     54 H           3.8031  -10.5299   13.0649 H         1 MOL     0.0621
     55 H           8.4822  -10.5563   11.2352 H         1 MOL     0.1921
@<TRIPOS>BOND
     1    1   18 1 
     2    1   21 1 
     3    1   17 am
     4    2   20 1 
     5    2   22 am
     6    2   19 1 
     7    3    4 ar
     8    3   12 ar
     9    4   55 1 
    10    4    5 ar
    11    5    6 ar
    12    5   29 2 
    13    6    7 ar
    14    6   11 ar
    15    7    8 ar
    16    7   33 1 
    17    8    9 ar
    18    8   34 1 
    19    9   10 ar
    20    9   35 1 
    21   10   11 ar
    22   10   36 1 
    23   11   12 ar
    24   12   13 1 
    25   13   14 1 
    26   13   37 1 
    27   13   38 1 
    28   14   15 ar
    29   14   28 ar
    30   15   16 ar
    31   15   39 1 
    32   16   17 1 
    33   16   26 ar
    34   17   31 2 
    35   18   19 1 
    36   18   40 1 
    37   18   41 1 
    38   19   42 1 
    39   19   43 1 
    40   20   21 1 
    41   20   44 1 
    42   20   45 1 
    43   21   46 1 
    44   21   47 1 
    45   22   23 1 
    46   22   30 2 
    47   23   24 1 
    48   23   25 1 
    49   23   48 1 
    50   24   25 1 
    51   24   49 1 
    52   24   50 1 
    53   25   51 1 
    54   25   52 1 
    55   26   27 ar
    56   26   32 1 
    57   27   28 ar
    58   27   53 1 
    59   28   54 1 
@<TRIPOS>SUBSTRUCTURE
1 MOL         1
@<TRIPOS>MOLECULE
query molecule
   55    59     1     0     0
SMALL
NO_CHARGE

@<TRIPOS>ATOM
      1 N          19.4362   10.2634    1.0970 N.am      1 MOL    -0.2945
      2 N          17.1994   11.5819    1.0151 N.am      1 MOL    -0.2983
      3 N          26.3355   11.0756   -1.6563 N.ar      1 MOL    -0.1750
      4 N          27.5486   11.5453   -1.4934 N.ar      1 MOL    -0.2425
      5 C          28.5252   10.8621   -0.8799 C.ar      1 MOL     0.2725
      6 C          28.2479    9.6015   -0.3925 C.ar      1 MOL     0.0496
      7 C          29.2221    8.8554    0.2719 C.ar      1 MOL     0.0138
      8 C          28.9164    7.6069    0.7692 C.ar      1 MOL     0.0008
      9 C          27.6278    7.1555    0.5769 C.ar      1 MOL     0.0007
     10 C          26.6511    7.8851   -0.0800 C.ar      1 MOL     0.0103
     11 C          26.9647    9.1184   -0.5706 C.ar      1 MOL     0.0106
     12 C          25.9827    9.8337   -1.2019 C.ar      1 MOL     0.0736
     13 C          24.6236    9.4050   -1.5052 C.3       1 MOL     0.0925
     14 C          23.6373   10.4123   -1.0255 C.ar      1 MOL    -0.0406
     15 C          22.7301    9.9560   -0.0527 C.ar      1 MOL     0.0196
     16 C          21.7747   10.8096    0.4446 C.ar      1 MOL     0.0723
     17 C          20.8035   10.3582    1.4666 C.2       1 MOL     0.2495
     18 C          18.4709    9.8273    2.0536 C.3       1 MOL     0.1268
     19 C          17.0832   10.3596    1.7671 C.3       1 MOL     0.1265
     20 C          17.8248   11.4916   -0.3088 C.3       1 MOL     0.1265
     21 C          19.0496   10.6150   -0.2567 C.3       1 MOL     0.1268
     22 C          16.7454   12.8103    1.5041 C.2       1 MOL     0.2187
     23 C          16.1168   13.0636    2.8033 C.3       1 MOL     0.0752
     24 C          16.1190   11.9105    3.7813 C.3       1 MOL     0.0134
     25 C          14.8597   12.3731    3.1938 C.3       1 MOL     0.0134
     26 C          21.6475   12.1173    0.0400 C.ar      1 MOL     0.1355
     27 C          22.5361   12.5628   -0.9123 C.ar      1 MOL     0.0392
     28 C          23.5115   11.6943   -1.4226 C.ar      1 MOL     0.0066
     29 O          29.6945   11.2950   -0.7153 O.2       1 MOL    -0.2658
     30 O          16.8856   13.8387    0.7505 O.2       1 MOL    -0.2753
     31 O          21.1505   10.0611    2.6328 O.2       1 MOL    -0.2699
     32 F          20.6807   12.9257    0.5641 F         1 MOL    -0.2047
     33 H          30.1730    9.2384    0.3906 H         1 MOL     0.0625
     34 H          29.6194    7.0367    1.2632 H         1 MOL     0.0618
     35 H          27.3778    6.2239    0.9426 H         1 MOL     0.0618
     36 H          25.7000    7.5018   -0.1973 H         1 MOL     0.0624
     37 H          24.4336    8.4688   -1.0231 H         1 MOL     0.0377
     38 H          24.5223    9.3028   -2.5657 H         1 MOL     0.0377
     39 H          22.7814    8.9829    0.2865 H         1 MOL     0.0629
     40 H          18.7737   10.1636    3.0234 H         1 MOL     0.0480
     41 H          18.4246    8.7590    2.0020 H         1 MOL     0.0480
     42 H          16.5745   10.5508    2.6884 H         1 MOL     0.0480
     43 H          16.5274    9.6385    1.2044 H         1 MOL     0.0480
     44 H          18.1074   12.4712   -0.6330 H         1 MOL     0.0480
     45 H          17.1237   11.0636   -0.9946 H         1 MOL     0.0480
     46 H          19.8625   11.1359   -0.7182 H         1 MOL     0.0480
     47 H          18.8159    9.7063   -0.7694 H         1 MOL     0.0480
     48 H          16.4207   14.0892    2.7877 H         1 MOL     0.0394
     49 H          16.3235   12.0874    4.8168 H         1 MOL     0.0273
     50 H          16.6268   10.9706    3.8425 H         1 MOL     0.0273
     51 H          14.1433   12.8801    3.8060 H         1 MOL     0.0273
     52 H          14.0696   11.8976    2.6526 H         1 MOL     0.0273
     53 H          22.4841   13.5371   -1.2504 H         1 MOL     0.0646
     54 H          24.1652   12.0536   -2.1361 H         1 MOL     0.0621
     55 H          27.7524   12.4445   -1.8395 H         1 MOL     0.1921
@<TRIPOS>BOND
     1    1   18 1 
     2    1   21 1 
     3    1   17 am
     4    2   20 1 
     5    2   22 am
     6    2   19 1 
     7    3    4 ar
     8    3   12 ar
     9    4   55 1 
    10    4    5 ar
    11    5    6 ar
    12    5   29 2 
    13    6    7 ar
    14    6   11 ar
    15    7    8 ar
    16    7   33 1 
    17    8    9 ar
    18    8   34 1 
    19    9   10 ar
    20    9   35 1 
    21   10   11 ar
    22   10   36 1 
    23   11   12 ar
    24   12   13 1 
    25   13   14 1 
    26   13   37 1 
    27   13   38 1 
    28   14   15 ar
    29   14   28 ar
    30   15   16 ar
    31   15   39 1 
    32   16   17 1 
    33   16   26 ar
    34   17   31 2 
    35   18   19 1 
    36   18   40 1 
    37   18   41 1 
    38   19   42 1 
    39   19   43 1 
    40   20   21 1 
    41   20   44 1 
    42   20   45 1 
    43   21   46 1 
    44   21   47 1 
    45   22   23 1 
    46   22   30 2 
    47   23   24 1 
    48   23   25 1 
    49   23   48 1 
    50   24   25 1 
    51   24   49 1 
    52   24   50 1 
    53   25   51 1 
    54   25   52 1 
    55   26   27 ar
    56   26   32 1 
    57   27   28 ar
    58   27   53 1 
    59   28   54 1 
@<TRIPOS>SUBSTRUCTURE
1 MOL         1
@<TRIPOS>MOLECULE
query molecule
   55    59     1     0     0
SMALL
NO_CHARGE

@<TRIPOS>ATOM
      1 N           0.8029   -6.1837   17.6447 N.am      1 MOL    -0.2945
      2 N           1.8454   -4.3841   19.2014 N.am      1 MOL    -0.2983
      3 N           4.5172   -7.6866   11.1156 N.ar      1 MOL    -0.1750
      4 N           4.6815   -8.0665    9.8716 N.ar      1 MOL    -0.2425
      5 C           4.3776   -7.2923    8.8204 C.ar      1 MOL     0.2725
      6 C           3.8658   -6.0318    9.0505 C.ar      1 MOL     0.0496
      7 C           3.5140   -5.1927    7.9926 C.ar      1 MOL     0.0138
      8 C           2.9845   -3.9457    8.2463 C.ar      1 MOL     0.0008
      9 C           2.8273   -3.5906    9.5693 C.ar      1 MOL     0.0007
     10 C           3.1717   -4.4131   10.6289 C.ar      1 MOL     0.0103
     11 C           3.6973   -5.6440   10.3670 C.ar      1 MOL     0.0106
     12 C           4.0159   -6.4515   11.4257 C.ar      1 MOL     0.0736
     13 C           3.9455   -6.1287   12.8448 C.3       1 MOL     0.0925
     14 C           2.5665   -6.3450   13.3634 C.ar      1 MOL    -0.0406
     15 C           2.4763   -6.6611   14.7307 C.ar      1 MOL     0.0196
     16 C           1.2462   -6.8889   15.2998 C.ar      1 MOL     0.0723
     17 C           1.1188   -7.2269   16.7354 C.2       1 MOL     0.2495
     18 C           0.6669   -6.4716   19.0360 C.3       1 MOL     0.1268
     19 C           0.9638   -5.2735   19.9119 C.3       1 MOL     0.1265
     20 C           1.3362   -3.7964   17.9574 C.3       1 MOL     0.1265
     21 C           0.6238   -4.8376   17.1331 C.3       1 MOL     0.1268
     22 C           3.1320   -4.0807   19.6561 C.2       1 MOL     0.2187
     23 C           3.7841   -4.5949   20.8633 C.3       1 MOL     0.0752
     24 C           4.9982   -5.4691   20.6446 C.3       1 MOL     0.0134
     25 C           3.7654   -6.0461   21.1852 C.3       1 MOL     0.0134
     26 C           0.0665   -6.8245   14.5970 C.ar      1 MOL     0.1355
     27 C           0.1560   -6.5151   13.2586 C.ar      1 MOL     0.0392
     28 C           1.4095   -6.2831   12.6745 C.ar      1 MOL     0.0066
     29 O           4.5292   -7.6383    7.6208 O.2       1 MOL    -0.2658
     30 O           3.8338   -3.2674   18.9552 O.2       1 MOL    -0.2753
     31 O           1.2795   -8.3928   17.1639 O.2       1 MOL    -0.2699
     32 F          -1.1309   -7.0599   15.2081 F         1 MOL    -0.2047
     33 H           3.6510   -5.5056    7.0188 H         1 MOL     0.0625
     34 H           2.7175   -3.3079    7.4814 H         1 MOL     0.0618
     35 H           2.4314   -2.6618    9.7812 H         1 MOL     0.0618
     36 H           3.0333   -4.0999   11.6026 H         1 MOL     0.0624
     37 H           4.2184   -5.1038   12.9870 H         1 MOL     0.0377
     38 H           4.6176   -6.7684   13.3782 H         1 MOL     0.0377
     39 H           3.3313   -6.7222   15.3050 H         1 MOL     0.0629
     40 H           1.3456   -7.2591   19.2906 H         1 MOL     0.0480
     41 H          -0.3508   -6.7550   19.2094 H         1 MOL     0.0480
     42 H           1.4326   -5.5976   20.8171 H         1 MOL     0.0480
     43 H           0.0528   -4.7660   20.1529 H         1 MOL     0.0480
     44 H           2.1548   -3.4013   17.3931 H         1 MOL     0.0480
     45 H           0.6447   -3.0168   18.2003 H         1 MOL     0.0480
     46 H           1.0035   -4.8004   16.1332 H         1 MOL     0.0480
     47 H          -0.4216   -4.6169   17.1711 H         1 MOL     0.0480
     48 H           3.5318   -3.7139   21.4151 H         1 MOL     0.0394
     49 H           5.8577   -5.3582   21.2725 H         1 MOL     0.0273
     50 H           5.6352   -5.6856   19.8125 H         1 MOL     0.0273
     51 H           3.7315   -6.3631   22.2067 H         1 MOL     0.0273
     52 H           3.1390   -6.8656   20.9037 H         1 MOL     0.0273
     53 H          -0.7005   -6.4537   12.6851 H         1 MOL     0.0646
     54 H           1.4486   -6.0533   11.6689 H         1 MOL     0.0621
     55 H           5.0467   -8.9650    9.7012 H         1 MOL     0.1921
@<TRIPOS>BOND
     1    1   18 1 
     2    1   21 1 
     3    1   17 am
     4    2   20 1 
     5    2   22 am
     6    2   19 1 
     7    3    4 ar
     8    3   12 ar
     9    4   55 1 
    10    4    5 ar
    11    5    6 ar
    12    5   29 2 
    13    6    7 ar
    14    6   11 ar
    15    7    8 ar
    16    7   33 1 
    17    8    9 ar
    18    8   34 1 
    19    9   10 ar
    20    9   35 1 
    21   10   11 ar
    22   10   36 1 
    23   11   12 ar
    24   12   13 1 
    25   13   14 1 
    26   13   37 1 
    27   13   38 1 
    28   14   15 ar
    29   14   28 ar
    30   15   16 ar
    31   15   39 1 
    32   16   17 1 
    33   16   26 ar
    34   17   31 2 
    35   18   19 1 
    36   18   40 1 
    37   18   41 1 
    38   19   42 1 
    39   19   43 1 
    40   20   21 1 
    41   20   44 1 
    42   20   45 1 
    43   21   46 1 
    44   21   47 1 
    45   22   23 1 
    46   22   30 2 
    47   23   24 1 
    48   23   25 1 
    49   23   48 1 
    50   24   25 1 
    51   24   49 1 
    52   24   50 1 
    53   25   51 1 
    54   25   52 1 
    55   26   27 ar
    56   26   32 1 
    57   27   28 ar
    58   27   53 1 
    59   28   54 1 
@<TRIPOS>SUBSTRUCTURE
1 MOL         1
@<TRIPOS>MOLECULE
query molecule
   55    59     1     0     0
SMALL
NO_CHARGE

@<TRIPOS>ATOM
      1 N          35.9306  -20.4457   25.5493 N.am      1 MOL    -0.2945
      2 N          34.5862  -22.0935   27.0411 N.am      1 MOL    -0.2983
      3 N          42.2880  -23.4293   23.9260 N.ar      1 MOL    -0.1750
      4 N          43.4901  -23.6691   23.4614 N.ar      1 MOL    -0.2425
      5 C          44.5715  -23.7851   24.2450 C.ar      1 MOL     0.2725
      6 C          44.4202  -23.6460   25.6094 C.ar      1 MOL     0.0496
      7 C          45.5157  -23.7375   26.4689 C.ar      1 MOL     0.0138
      8 C          45.3442  -23.5739   27.8266 C.ar      1 MOL     0.0008
      9 C          44.0630  -23.3207   28.2690 C.ar      1 MOL     0.0007
     10 C          42.9671  -23.2269   27.4276 C.ar      1 MOL     0.0103
     11 C          43.1472  -23.3929   26.0860 C.ar      1 MOL     0.0106
     12 C          42.0562  -23.2797   25.2666 C.ar      1 MOL     0.0736
     13 C          40.6661  -23.0828   25.6564 C.3       1 MOL     0.0925
     14 C          40.1659  -21.7687   25.1663 C.ar      1 MOL    -0.0406
     15 C          38.7710  -21.6684   25.0188 C.ar      1 MOL     0.0196
     16 C          38.2144  -20.4978   24.5622 C.ar      1 MOL     0.0723
     17 C          36.7500  -20.3624   24.3931 C.2       1 MOL     0.2495
     18 C          34.5147  -20.3151   25.4268 C.3       1 MOL     0.1268
     19 C          33.7649  -21.0255   26.5333 C.3       1 MOL     0.1265
     20 C          35.8602  -21.7153   27.6622 C.3       1 MOL     0.1265
     21 C          36.5582  -20.6632   26.8394 C.3       1 MOL     0.1268
     22 C          34.2081  -23.4367   26.9563 C.2       1 MOL     0.2187
     23 C          32.9826  -23.9711   26.3566 C.3       1 MOL     0.0752
     24 C          33.0764  -24.3872   24.9061 C.3       1 MOL     0.0134
     25 C          32.2661  -23.2281   25.2869 C.3       1 MOL     0.0134
     26 C          38.9562  -19.3883   24.2325 C.ar      1 MOL     0.1355
     27 C          40.3215  -19.4875   24.3772 C.ar      1 MOL     0.0392
     28 C          40.8928  -20.6809   24.8418 C.ar      1 MOL     0.0066
     29 O          45.7318  -24.0161   23.8183 O.2       1 MOL    -0.2658
     30 O          35.0062  -24.3112   27.4497 O.2       1 MOL    -0.2753
     31 O          36.2211  -20.1785   23.2727 O.2       1 MOL    -0.2699
     32 F          38.3558  -18.2482   23.7823 F         1 MOL    -0.2047
     33 H          46.4555  -23.9285   26.0878 H         1 MOL     0.0625
     34 H          46.1381  -23.6375   28.4816 H         1 MOL     0.0618
     35 H          43.9130  -23.1937   29.2817 H         1 MOL     0.0618
     36 H          42.0276  -23.0348   27.8094 H         1 MOL     0.0624
     37 H          40.5919  -23.1121   26.7235 H         1 MOL     0.0377
     38 H          40.0724  -23.8602   25.2223 H         1 MOL     0.0377
     39 H          38.1671  -22.4717   25.2524 H         1 MOL     0.0629
     40 H          34.2126  -20.7292   24.4872 H         1 MOL     0.0480
     41 H          34.2792  -19.2729   25.4938 H         1 MOL     0.0480
     42 H          32.8510  -21.4263   26.1481 H         1 MOL     0.0480
     43 H          33.5396  -20.3353   27.3196 H         1 MOL     0.0480
     44 H          36.4878  -22.5788   27.7338 H         1 MOL     0.0480
     45 H          35.6661  -21.3181   28.6366 H         1 MOL     0.0480
     46 H          37.5702  -20.9714   26.6778 H         1 MOL     0.0480
     47 H          36.5033  -19.7432   27.3815 H         1 MOL     0.0480
     48 H          32.6766  -24.4032   27.2861 H         1 MOL     0.0394
     49 H          32.6013  -25.2874   24.5757 H         1 MOL     0.0273
     50 H          33.8778  -24.5587   24.2180 H         1 MOL     0.0273
     51 H          31.1992  -23.2834   25.2250 H         1 MOL     0.0273
     52 H          32.2369  -22.2045   24.9793 H         1 MOL     0.0273
     53 H          40.9247  -18.6827   24.1436 H         1 MOL     0.0646
     54 H          41.9192  -20.7289   24.9409 H         1 MOL     0.0621
     55 H          43.6041  -23.7697   22.4884 H         1 MOL     0.1921
@<TRIPOS>BOND
     1    1   18 1 
     2    1   21 1 
     3    1   17 am
     4    2   20 1 
     5    2   22 am
     6    2   19 1 
     7    3    4 ar
     8    3   12 ar
     9    4   55 1 
    10    4    5 ar
    11    5    6 ar
    12    5   29 2 
    13    6    7 ar
    14    6   11 ar
    15    7    8 ar
    16    7   33 1 
    17    8    9 ar
    18    8   34 1 
    19    9   10 ar
    20    9   35 1 
    21   10   11 ar
    22   10   36 1 
    23   11   12 ar
    24   12   13 1 
    25   13   14 1 
    26   13   37 1 
    27   13   38 1 
    28   14   15 ar
    29   14   28 ar
    30   15   16 ar
    31   15   39 1 
    32   16   17 1 
    33   16   26 ar
    34   17   31 2 
    35   18   19 1 
    36   18   40 1 
    37   18   41 1 
    38   19   42 1 
    39   19   43 1 
    40   20   21 1 
    41   20   44 1 
    42   20   45 1 
    43   21   46 1 
    44   21   47 1 
    45   22   23 1 
    46   22   30 2 
    47   23   24 1 
    48   23   25 1 
    49   23   48 1 
    50   24   25 1 
    51   24   49 1 
    52   24   50 1 
    53   25   51 1 
    54   25   52 1 
    55   26   27 ar
    56   26   32 1 
    57   27   28 ar
    58   27   53 1 
    59   28   54 1 
@<TRIPOS>SUBSTRUCTURE
1 MOL         1
@<TRIPOS>MOLECULE
query molecule
   55    59     1     0     0
SMALL
NO_CHARGE

@<TRIPOS>ATOM
      1 N           0.5783  -18.8110   16.7045 N.am      1 MOL    -0.2945
      2 N          -0.9248  -20.7843   17.4758 N.am      1 MOL    -0.2983
      3 N           7.5304  -20.5215   18.1435 N.ar      1 MOL    -0.1750
      4 N           8.8385  -20.4794   18.0677 N.ar      1 MOL    -0.2425
      5 C           9.5487  -21.2165   17.2022 C.ar      1 MOL     0.2725
      6 C           8.8773  -22.0644   16.3455 C.ar      1 MOL     0.0496
      7 C           9.5688  -22.8686   15.4388 C.ar      1 MOL     0.0138
      8 C           8.8784  -23.7238   14.6074 C.ar      1 MOL     0.0008
      9 C           7.5046  -23.7363   14.7245 C.ar      1 MOL     0.0007
     10 C           6.8054  -22.9441   15.6198 C.ar      1 MOL     0.0103
     11 C           7.4980  -22.0994   16.4363 C.ar      1 MOL     0.0106
     12 C           6.7928  -21.3362   17.3277 C.ar      1 MOL     0.0736
     13 C           5.3457  -21.2394   17.4680 C.3       1 MOL     0.0925
     14 C           4.8747  -19.8738   17.1069 C.ar      1 MOL    -0.0406
     15 C           3.5441  -19.7907   16.6594 C.ar      1 MOL     0.0196
     16 C           3.0210  -18.5738   16.2929 C.ar      1 MOL     0.0723
     17 C           1.6252  -18.4543   15.8146 C.2       1 MOL     0.2495
     18 C          -0.7805  -18.7046   16.2810 C.3       1 MOL     0.1268
     19 C          -1.6971  -19.6603   17.0141 C.3       1 MOL     0.1265
     20 C           0.1431  -20.5057   18.4422 C.3       1 MOL     0.1265
     21 C           0.9181  -19.2789   18.0354 C.3       1 MOL     0.1268
     22 C          -1.1626  -22.0899   17.0365 C.2       1 MOL     0.2187
     23 C          -2.1754  -22.5240   16.0705 C.3       1 MOL     0.0752
     24 C          -2.9623  -23.7610   16.4399 C.3       1 MOL     0.0134
     25 C          -2.0210  -23.7968   15.3184 C.3       1 MOL     0.0134
     26 C           3.7365  -17.4008   16.3382 C.ar      1 MOL     0.1355
     27 C           5.0389  -17.4833   16.7763 C.ar      1 MOL     0.0392
     28 C           5.5760  -18.7235   17.1501 C.ar      1 MOL     0.0066
     29 O          10.8030  -21.1889   17.1137 O.2       1 MOL    -0.2658
     30 O          -0.4255  -23.0227   17.5180 O.2       1 MOL    -0.2753
     31 O           1.3462  -18.0523   14.6616 O.2       1 MOL    -0.2699
     32 F           3.1717  -16.2165   15.9625 F         1 MOL    -0.2047
     33 H          10.5986  -22.8226   15.3901 H         1 MOL     0.0625
     34 H           9.3671  -24.3273   13.9290 H         1 MOL     0.0618
     35 H           6.9686  -24.3703   14.1123 H         1 MOL     0.0618
     36 H           5.7755  -22.9915   15.6688 H         1 MOL     0.0624
     37 H           5.0753  -21.4485   18.4820 H         1 MOL     0.0377
     38 H           4.8868  -21.9468   16.8089 H         1 MOL     0.0377
     39 H           2.9622  -20.6410   16.6062 H         1 MOL     0.0629
     40 H          -0.8303  -18.9174   15.2333 H         1 MOL     0.0480
     41 H          -1.1099  -17.7094   16.4986 H         1 MOL     0.0480
     42 H          -2.4660  -19.9995   16.3523 H         1 MOL     0.0480
     43 H          -2.1481  -19.1627   17.8475 H         1 MOL     0.0480
     44 H           0.8078  -21.3430   18.4846 H         1 MOL     0.0480
     45 H          -0.2954  -20.3334   19.4030 H         1 MOL     0.0480
     46 H           1.9624  -19.5113   18.0580 H         1 MOL     0.0480
     47 H           0.6682  -18.4989   18.7227 H         1 MOL     0.0480
     48 H          -2.3774  -21.5148   15.7787 H         1 MOL     0.0394
     49 H          -4.0159  -23.7999   16.2560 H         1 MOL     0.0273
     50 H          -3.0982  -24.3330   17.3339 H         1 MOL     0.0273
     51 H          -2.3913  -23.8703   14.3171 H         1 MOL     0.0273
     52 H          -1.1884  -24.4169   15.0624 H         1 MOL     0.0273
     53 H           5.6200  -16.6314   16.8297 H         1 MOL     0.0646
     54 H           6.5554  -18.7575   17.4747 H         1 MOL     0.0621
     55 H           9.3231  -19.8758   18.6765 H         1 MOL     0.1921
@<TRIPOS>BOND
     1    1   18 1 
     2    1   21 1 
     3    1   17 am
     4    2   20 1 
     5    2   22 am
     6    2   19 1 
     7    3    4 ar
     8    3   12 ar
     9    4   55 1 
    10    4    5 ar
    11    5    6 ar
    12    5   29 2 
    13    6    7 ar
    14    6   11 ar
    15    7    8 ar
    16    7   33 1 
    17    8    9 ar
    18    8   34 1 
    19    9   10 ar
    20    9   35 1 
    21   10   11 ar
    22   10   36 1 
    23   11   12 ar
    24   12   13 1 
    25   13   14 1 
    26   13   37 1 
    27   13   38 1 
    28   14   15 ar
    29   14   28 ar
    30   15   16 ar
    31   15   39 1 
    32   16   17 1 
    33   16   26 ar
    34   17   31 2 
    35   18   19 1 
    36   18   40 1 
    37   18   41 1 
    38   19   42 1 
    39   19   43 1 
    40   20   21 1 
    41   20   44 1 
    42   20   45 1 
    43   21   46 1 
    44   21   47 1 
    45   22   23 1 
    46   22   30 2 
    47   23   24 1 
    48   23   25 1 
    49   23   48 1 
    50   24   25 1 
    51   24   49 1 
    52   24   50 1 
    53   25   51 1 
    54   25   52 1 
    55   26   27 ar
    56   26   32 1 
    57   27   28 ar
    58   27   53 1 
    59   28   54 1 
@<TRIPOS>SUBSTRUCTURE
1 MOL         1
@<TRIPOS>MOLECULE
query molecule
   55    59     1     0     0
SMALL
NO_CHARGE

@<TRIPOS>ATOM
      1 N           2.4340   -7.7161   34.3151 N.am      1 MOL    -0.2945
      2 N           0.5322   -9.4714   34.0903 N.am      1 MOL    -0.2983
      3 N           9.8280   -6.3551   37.9237 N.ar      1 MOL    -0.1750
      4 N          10.9723   -6.8118   38.3716 N.ar      1 MOL    -0.2425
      5 C          11.5031   -7.9781   37.9780 C.ar      1 MOL     0.2725
      6 C          10.8170   -8.7419   37.0562 C.ar      1 MOL     0.0496
      7 C          11.3144   -9.9731   36.6274 C.ar      1 MOL     0.0138
      8 C          10.6014  -10.7289   35.7220 C.ar      1 MOL     0.0008
      9 C           9.4025  -10.2099   35.2810 C.ar      1 MOL     0.0007
     10 C           8.8967   -8.9901   35.6982 C.ar      1 MOL     0.0103
     11 C           9.6113   -8.2488   36.5924 C.ar      1 MOL     0.0106
     12 C           9.0887   -7.0534   37.0078 C.ar      1 MOL     0.0736
     13 C           7.8697   -6.4046   36.5428 C.3       1 MOL     0.0925
     14 C           6.8307   -7.4184   36.2110 C.ar      1 MOL    -0.0406
     15 C           5.8470   -7.0006   35.2970 C.ar      1 MOL     0.0196
     16 C           4.8393   -7.8625   34.9360 C.ar      1 MOL     0.0723
     17 C           3.7874   -7.4511   33.9791 C.2       1 MOL     0.2495
     18 C           1.3916   -7.3299   33.4200 C.3       1 MOL     0.1268
     19 C           0.1520   -8.1867   33.5628 C.3       1 MOL     0.1265
     20 C           1.1321   -9.4899   35.4288 C.3       1 MOL     0.1265
     21 C           2.1403   -8.3789   35.5722 C.3       1 MOL     0.1268
     22 C           0.3488  -10.6598   33.3774 C.2       1 MOL     0.2187
     23 C          -0.2192  -10.8031   32.0342 C.3       1 MOL     0.0752
     24 C          -1.0345  -12.0517   31.7846 C.3       1 MOL     0.0134
     25 C           0.2537  -11.8688   31.1121 C.3       1 MOL     0.0134
     26 C           4.7303   -9.1426   35.4254 C.ar      1 MOL     0.1355
     27 C           5.6937   -9.5505   36.3200 C.ar      1 MOL     0.0392
     28 C           6.7228   -8.6732   36.6912 C.ar      1 MOL     0.0066
     29 O          12.5993   -8.4321   38.3950 O.2       1 MOL    -0.2658
     30 O           0.7108  -11.7534   33.9415 O.2       1 MOL    -0.2753
     31 O           4.0554   -6.8828   32.8956 O.2       1 MOL    -0.2699
     32 F           3.7095   -9.9607   35.0362 F         1 MOL    -0.2047
     33 H          12.2177  -10.3180   36.9881 H         1 MOL     0.0625
     34 H          10.9486  -11.6414   35.3900 H         1 MOL     0.0618
     35 H           8.8523  -10.7604   34.6039 H         1 MOL     0.0618
     36 H           7.9927   -8.6462   35.3379 H         1 MOL     0.0624
     37 H           8.0894   -5.8267   35.6694 H         1 MOL     0.0377
     38 H           7.4966   -5.7721   37.3213 H         1 MOL     0.0377
     39 H           5.8815   -6.0494   34.8987 H         1 MOL     0.0629
     40 H           1.7532   -7.4147   32.4163 H         1 MOL     0.0480
     41 H           1.1178   -6.3227   33.6580 H         1 MOL     0.0480
     42 H          -0.3098   -8.3128   32.6062 H         1 MOL     0.0480
     43 H          -0.5418   -7.7128   34.2258 H         1 MOL     0.0480
     44 H           1.6201  -10.4293   35.5837 H         1 MOL     0.0480
     45 H           0.3600   -9.3505   36.1564 H         1 MOL     0.0480
     46 H           3.0489   -8.7900   35.9604 H         1 MOL     0.0480
     47 H           1.7206   -7.6476   36.2296 H         1 MOL     0.0480
     48 H          -0.3418   -9.7448   31.9371 H         1 MOL     0.0394
     49 H          -1.9442  -11.9938   31.2240 H         1 MOL     0.0273
     50 H          -1.4653  -12.8109   32.4035 H         1 MOL     0.0273
     51 H           0.2805  -11.6857   30.0581 H         1 MOL     0.0273
     52 H           1.1472  -12.4516   31.0398 H         1 MOL     0.0273
     53 H           5.6584  -10.5029   36.7174 H         1 MOL     0.0646
     54 H           7.4323   -9.0041   37.3641 H         1 MOL     0.0621
     55 H          11.4667   -6.2708   39.0295 H         1 MOL     0.1921
@<TRIPOS>BOND
     1    1   18 1 
     2    1   21 1 
     3    1   17 am
     4    2   20 1 
     5    2   22 am
     6    2   19 1 
     7    3    4 ar
     8    3   12 ar
     9    4   55 1 
    10    4    5 ar
    11    5    6 ar
    12    5   29 2 
    13    6    7 ar
    14    6   11 ar
    15    7    8 ar
    16    7   33 1 
    17    8    9 ar
    18    8   34 1 
    19    9   10 ar
    20    9   35 1 
    21   10   11 ar
    22   10   36 1 
    23   11   12 ar
    24   12   13 1 
    25   13   14 1 
    26   13   37 1 
    27   13   38 1 
    28   14   15 ar
    29   14   28 ar
    30   15   16 ar
    31   15   39 1 
    32   16   17 1 
    33   16   26 ar
    34   17   31 2 
    35   18   19 1 
    36   18   40 1 
    37   18   41 1 
    38   19   42 1 
    39   19   43 1 
    40   20   21 1 
    41   20   44 1 
    42   20   45 1 
    43   21   46 1 
    44   21   47 1 
    45   22   23 1 
    46   22   30 2 
    47   23   24 1 
    48   23   25 1 
    49   23   48 1 
    50   24   25 1 
    51   24   49 1 
    52   24   50 1 
    53   25   51 1 
    54   25   52 1 
    55   26   27 ar
    56   26   32 1 
    57   27   28 ar
    58   27   53 1 
    59   28   54 1 
@<TRIPOS>SUBSTRUCTURE
1 MOL         1
@<TRIPOS>MOLECULE
query molecule
   55    59     1     0     0
SMALL
NO_CHARGE

@<TRIPOS>ATOM
      1 N          50.1771  -14.1425   22.7160 N.am      1 MOL    -0.2945
      2 N          48.4111  -15.1133   21.0768 N.am      1 MOL    -0.2983
      3 N          52.5061  -19.4564   22.8749 N.ar      1 MOL    -0.1750
      4 N          51.7496  -20.0666   21.9952 N.ar      1 MOL    -0.2425
      5 C          50.5745  -20.6332   22.3032 C.ar      1 MOL     0.2725
      6 C          50.1323  -20.5760   23.6090 C.ar      1 MOL     0.0496
      7 C          48.9262  -21.1667   23.9879 C.ar      1 MOL     0.0138
      8 C          48.5147  -21.1156   25.3023 C.ar      1 MOL     0.0008
      9 C          49.3439  -20.4662   26.1923 C.ar      1 MOL     0.0007
     10 C          50.5433  -19.8761   25.8303 C.ar      1 MOL     0.0103
     11 C          50.9400  -19.9300   24.5267 C.ar      1 MOL     0.0106
     12 C          52.1367  -19.3570   24.1890 C.ar      1 MOL     0.0736
     13 C          53.0345  -18.5971   25.0491 C.3       1 MOL     0.0925
     14 C          52.4755  -17.2448   25.3250 C.ar      1 MOL    -0.0406
     15 C          52.2550  -16.4384   24.1942 C.ar      1 MOL     0.0196
     16 C          51.7507  -15.1691   24.3477 C.ar      1 MOL     0.0723
     17 C          51.5109  -14.2950   23.1773 C.2       1 MOL     0.2495
     18 C          49.9057  -13.3041   21.5933 C.3       1 MOL     0.1268
     19 C          48.6523  -13.7121   20.8494 C.3       1 MOL     0.1265
     20 C          48.1532  -15.5279   22.4601 C.3       1 MOL     0.1265
     21 C          49.1122  -14.8488   23.4036 C.3       1 MOL     0.1268
     22 C          48.4186  -16.0539   20.0427 C.2       1 MOL     0.2187
     23 C          48.6725  -15.7998   18.6221 C.3       1 MOL     0.0752
     24 C          49.3979  -16.8917   17.8686 C.3       1 MOL     0.0134
     25 C          50.0559  -15.6064   18.1137 C.3       1 MOL     0.0134
     26 C          51.4393  -14.6241   25.5708 C.ar      1 MOL     0.1355
     27 C          51.6556  -15.4144   26.6769 C.ar      1 MOL     0.0392
     28 C          52.1710  -16.7095   26.5240 C.ar      1 MOL     0.0066
     29 O          49.8345  -21.2214   21.4736 O.2       1 MOL    -0.2658
     30 O          48.1807  -17.2765   20.3494 O.2       1 MOL    -0.2753
     31 O          52.4402  -13.6939   22.5909 O.2       1 MOL    -0.2699
     32 F          50.9412  -13.3574   25.6709 F         1 MOL    -0.2047
     33 H          48.3410  -21.6418   23.2831 H         1 MOL     0.0625
     34 H          47.6275  -21.5442   25.6062 H         1 MOL     0.0618
     35 H          49.0551  -20.4177   27.1814 H         1 MOL     0.0618
     36 H          51.1286  -19.4020   26.5360 H         1 MOL     0.0624
     37 H          53.9830  -18.4939   24.5646 H         1 MOL     0.0377
     38 H          53.1472  -19.1183   25.9769 H         1 MOL     0.0377
     39 H          52.4715  -16.7985   23.2518 H         1 MOL     0.0629
     40 H          50.7360  -13.3544   20.9198 H         1 MOL     0.0480
     41 H          49.7545  -12.3102   21.9613 H         1 MOL     0.0480
     42 H          48.7820  -13.5346   19.8025 H         1 MOL     0.0480
     43 H          47.8196  -13.1386   21.2002 H         1 MOL     0.0480
     44 H          48.2742  -16.5880   22.5389 H         1 MOL     0.0480
     45 H          47.1544  -15.2497   22.7246 H         1 MOL     0.0480
     46 H          49.5504  -15.5908   24.0381 H         1 MOL     0.0480
     47 H          48.5559  -14.1256   23.9610 H         1 MOL     0.0480
     48 H          47.7666  -15.2391   18.5263 H         1 MOL     0.0394
     49 H          49.0889  -17.1547   16.8783 H         1 MOL     0.0273
     50 H          49.6381  -17.9158   18.0647 H         1 MOL     0.0273
     51 H          50.2333  -14.9371   17.2978 H         1 MOL     0.0273
     52 H          50.9824  -15.3158   18.5614 H         1 MOL     0.0273
     53 H          51.4380  -15.0530   27.6194 H         1 MOL     0.0646
     54 H          52.3241  -17.2810   27.3699 H         1 MOL     0.0621
     55 H          52.0599  -20.1102   21.0615 H         1 MOL     0.1921
@<TRIPOS>BOND
     1    1   18 1 
     2    1   21 1 
     3    1   17 am
     4    2   20 1 
     5    2   22 am
     6    2   19 1 
     7    3    4 ar
     8    3   12 ar
     9    4   55 1 
    10    4    5 ar
    11    5    6 ar
    12    5   29 2 
    13    6    7 ar
    14    6   11 ar
    15    7    8 ar
    16    7   33 1 
    17    8    9 ar
    18    8   34 1 
    19    9   10 ar
    20    9   35 1 
    21   10   11 ar
    22   10   36 1 
    23   11   12 ar
    24   12   13 1 
    25   13   14 1 
    26   13   37 1 
    27   13   38 1 
    28   14   15 ar
    29   14   28 ar
    30   15   16 ar
    31   15   39 1 
    32   16   17 1 
    33   16   26 ar
    34   17   31 2 
    35   18   19 1 
    36   18   40 1 
    37   18   41 1 
    38   19   42 1 
    39   19   43 1 
    40   20   21 1 
    41   20   44 1 
    42   20   45 1 
    43   21   46 1 
    44   21   47 1 
    45   22   23 1 
    46   22   30 2 
    47   23   24 1 
    48   23   25 1 
    49   23   48 1 
    50   24   25 1 
    51   24   49 1 
    52   24   50 1 
    53   25   51 1 
    54   25   52 1 
    55   26   27 ar
    56   26   32 1 
    57   27   28 ar
    58   27   53 1 
    59   28   54 1 
@<TRIPOS>SUBSTRUCTURE
1 MOL         1
@<TRIPOS>MOLECULE
query molecule
   55    59     1     0     0
SMALL
NO_CHARGE

@<TRIPOS>ATOM
      1 N           5.3773  -16.2208    3.5485 N.am      1 MOL    -0.2945
      2 N           6.0607  -15.6071    1.1185 N.am      1 MOL    -0.2983
      3 N           9.9620  -18.6562    3.4289 N.ar      1 MOL    -0.1750
      4 N          10.2357  -19.3143    2.3286 N.ar      1 MOL    -0.2425
      5 C          11.1881  -20.2545    2.2520 C.ar      1 MOL     0.2725
      6 C          11.9214  -20.5498    3.3828 C.ar      1 MOL     0.0496
      7 C          12.9378  -21.5054    3.3534 C.ar      1 MOL     0.0138
      8 C          13.6717  -21.7688    4.4899 C.ar      1 MOL     0.0008
      9 C          13.3503  -21.0506    5.6222 C.ar      1 MOL     0.0007
     10 C          12.3448  -20.0994    5.6656 C.ar      1 MOL     0.0103
     11 C          11.6228  -19.8481    4.5362 C.ar      1 MOL     0.0106
     12 C          10.6442  -18.8923    4.5917 C.ar      1 MOL     0.0736
     13 C          10.1979  -18.1411    5.7578 C.3       1 MOL     0.0925
     14 C           8.7222  -18.2547    5.9206 C.ar      1 MOL    -0.0406
     15 C           7.9691  -17.2040    5.3671 C.ar      1 MOL     0.0196
     16 C           6.5991  -17.2141    5.4754 C.ar      1 MOL     0.0723
     17 C           5.7790  -16.1209    4.9063 C.2       1 MOL     0.2495
     18 C           4.5819  -15.1889    2.9658 C.3       1 MOL     0.1268
     19 C           4.7635  -15.0880    1.4665 C.3       1 MOL     0.1265
     20 C           6.3113  -17.0224    1.4116 C.3       1 MOL     0.1265
     21 C           5.7884  -17.3803    2.7790 C.3       1 MOL     0.1268
     22 C           7.0519  -14.8172    0.5289 C.2       1 MOL     0.2187
     23 C           6.9595  -13.3946    0.1899 C.3       1 MOL     0.0752
     24 C           7.2120  -12.4221    1.3197 C.3       1 MOL     0.0134
     25 C           5.8719  -12.5447    0.7416 C.3       1 MOL     0.0134
     26 C           5.8999  -18.2147    6.1077 C.ar      1 MOL     0.1355
     27 C           6.6381  -19.2427    6.6492 C.ar      1 MOL     0.0392
     28 C           8.0361  -19.2351    6.5413 C.ar      1 MOL     0.0066
     29 O          11.4643  -20.8970    1.2067 O.2       1 MOL    -0.2658
     30 O           8.1702  -15.3788    0.2471 O.2       1 MOL    -0.2753
     31 O           5.4342  -15.1237    5.5811 O.2       1 MOL    -0.2699
     32 F           4.5380  -18.1788    6.1896 F         1 MOL    -0.2047
     33 H          13.1400  -22.0163    2.4798 H         1 MOL     0.0625
     34 H          14.4271  -22.4707    4.4929 H         1 MOL     0.0618
     35 H          13.8884  -21.2315    6.4835 H         1 MOL     0.0618
     36 H          12.1439  -19.5880    6.5394 H         1 MOL     0.0624
     37 H          10.4603  -17.1110    5.6348 H         1 MOL     0.0377
     38 H          10.6719  -18.5426    6.6293 H         1 MOL     0.0377
     39 H           8.4438  -16.4274    4.8812 H         1 MOL     0.0629
     40 H           4.8566  -14.2538    3.4081 H         1 MOL     0.0480
     41 H           3.5552  -15.4281    3.1520 H         1 MOL     0.0480
     42 H           4.6925  -14.0644    1.1640 H         1 MOL     0.0480
     43 H           4.0015  -15.6524    0.9703 H         1 MOL     0.0480
     44 H           7.3644  -17.2084    1.3785 H         1 MOL     0.0480
     45 H           5.8074  -17.6217    0.6823 H         1 MOL     0.0480
     46 H           6.5602  -17.8898    3.3174 H         1 MOL     0.0480
     47 H           4.9251  -17.9960    2.6414 H         1 MOL     0.0480
     48 H           7.3269  -13.5723   -0.7990 H         1 MOL     0.0394
     49 H           7.7911  -11.5390    1.1463 H         1 MOL     0.0273
     50 H           7.6220  -12.4965    2.3052 H         1 MOL     0.0273
     51 H           5.4727  -11.7448    0.1535 H         1 MOL     0.0273
     52 H           4.9009  -12.7417    1.1436 H         1 MOL     0.0273
     53 H           6.1617  -20.0196    7.1347 H         1 MOL     0.0646
     54 H           8.5658  -20.0178    6.9565 H         1 MOL     0.0621
     55 H           9.7153  -19.1079    1.5184 H         1 MOL     0.1921
@<TRIPOS>BOND
     1    1   18 1 
     2    1   21 1 
     3    1   17 am
     4    2   20 1 
     5    2   22 am
     6    2   19 1 
     7    3    4 ar
     8    3   12 ar
     9    4   55 1 
    10    4    5 ar
    11    5    6 ar
    12    5   29 2 
    13    6    7 ar
    14    6   11 ar
    15    7    8 ar
    16    7   33 1 
    17    8    9 ar
    18    8   34 1 
    19    9   10 ar
    20    9   35 1 
    21   10   11 ar
    22   10   36 1 
    23   11   12 ar
    24   12   13 1 
    25   13   14 1 
    26   13   37 1 
    27   13   38 1 
    28   14   15 ar
    29   14   28 ar
    30   15   16 ar
    31   15   39 1 
    32   16   17 1 
    33   16   26 ar
    34   17   31 2 
    35   18   19 1 
    36   18   40 1 
    37   18   41 1 
    38   19   42 1 
    39   19   43 1 
    40   20   21 1 
    41   20   44 1 
    42   20   45 1 
    43   21   46 1 
    44   21   47 1 
    45   22   23 1 
    46   22   30 2 
    47   23   24 1 
    48   23   25 1 
    49   23   48 1 
    50   24   25 1 
    51   24   49 1 
    52   24   50 1 
    53   25   51 1 
    54   25   52 1 
    55   26   27 ar
    56   26   32 1 
    57   27   28 ar
    58   27   53 1 
    59   28   54 1 
@<TRIPOS>SUBSTRUCTURE
1 MOL         1
@<TRIPOS>MOLECULE
query molecule
   55    59     1     0     0
SMALL
NO_CHARGE

@<TRIPOS>ATOM
      1 N           2.5942   -2.9652   16.6100 N.am      1 MOL    -0.2945
      2 N           1.6992   -5.3902   16.3511 N.am      1 MOL    -0.2983
      3 N           6.6747    2.0770   18.7115 N.ar      1 MOL    -0.1750
      4 N           6.6009    3.2068   18.0507 N.ar      1 MOL    -0.2425
      5 C           5.4638    3.9022   17.9081 C.ar      1 MOL     0.2725
      6 C           4.3092    3.4109   18.4819 C.ar      1 MOL     0.0496
      7 C           3.0945    4.0843   18.3471 C.ar      1 MOL     0.0138
      8 C           1.9496    3.5638   18.9109 C.ar      1 MOL     0.0008
      9 C           2.0748    2.3725   19.5937 C.ar      1 MOL     0.0007
     10 C           3.2734    1.6934   19.7350 C.ar      1 MOL     0.0103
     11 C           4.4009    2.2183   19.1756 C.ar      1 MOL     0.0106
     12 C           5.5741    1.5254   19.3096 C.ar      1 MOL     0.0736
     13 C           5.8048    0.3028   20.0680 C.3       1 MOL     0.0925
     14 C           5.8548   -0.8757   19.1592 C.ar      1 MOL    -0.0406
     15 C           4.8208   -0.9521   18.2091 C.ar      1 MOL     0.0196
     16 C           4.7752   -2.0093   17.3321 C.ar      1 MOL     0.0723
     17 C           3.6977   -2.1198   16.3231 C.2       1 MOL     0.2495
     18 C           1.5334   -3.0937   15.6637 C.3       1 MOL     0.1268
     19 C           0.8071   -4.4168   15.7769 C.3       1 MOL     0.1265
     20 C           2.1786   -5.1313   17.7131 C.3       1 MOL     0.1265
     21 C           2.5707   -3.6846   17.8700 C.3       1 MOL     0.1268
     22 C           2.1046   -6.5363   15.6609 C.2       1 MOL     0.2187
     23 C           1.7266   -6.9251   14.2997 C.3       1 MOL     0.0752
     24 C           1.2744   -8.3562   14.1162 C.3       1 MOL     0.0134
     25 C           2.5378   -7.9040   13.5293 C.3       1 MOL     0.0134
     26 C           5.7029   -3.0238   17.3250 C.ar      1 MOL     0.1355
     27 C           6.7146   -2.9480   18.2554 C.ar      1 MOL     0.0392
     28 C           6.7635   -1.8712   19.1523 C.ar      1 MOL     0.0066
     29 O           5.3735    4.9877   17.2794 O.2       1 MOL    -0.2658
     30 O           2.8928   -7.3471   16.2663 O.2       1 MOL    -0.2753
     31 O           3.7324   -1.4957   15.2377 O.2       1 MOL    -0.2699
     32 F           5.6136   -4.0534   16.4335 F         1 MOL    -0.2047
     33 H           3.0533    4.9737   17.8253 H         1 MOL     0.0625
     34 H           1.0408    4.0433   18.8252 H         1 MOL     0.0618
     35 H           1.2296    1.9649   20.0222 H         1 MOL     0.0618
     36 H           3.3137    0.8033   20.2561 H         1 MOL     0.0624
     37 H           5.0107    0.1704   20.7729 H         1 MOL     0.0377
     38 H           6.7425    0.3842   20.5774 H         1 MOL     0.0377
     39 H           4.0981   -0.2167   18.1708 H         1 MOL     0.0629
     40 H           1.9419   -3.0101   14.6780 H         1 MOL     0.0480
     41 H           0.8246   -2.3172   15.8653 H         1 MOL     0.0480
     42 H           0.4977   -4.7410   14.8056 H         1 MOL     0.0480
     43 H          -0.0565   -4.3042   16.3990 H         1 MOL     0.0480
     44 H           3.0293   -5.7493   17.9110 H         1 MOL     0.0480
     45 H           1.3928   -5.3523   18.4048 H         1 MOL     0.0480
     46 H           3.5474   -3.6405   18.3051 H         1 MOL     0.0480
     47 H           1.8360   -3.2186   18.4914 H         1 MOL     0.0480
     48 H           1.3566   -5.9443   14.0866 H         1 MOL     0.0394
     49 H           0.4392   -8.5767   13.4844 H         1 MOL     0.0273
     50 H           0.9850   -9.1490   14.7740 H         1 MOL     0.0273
     51 H           2.6237   -7.8038   12.4674 H         1 MOL     0.0273
     52 H           3.5502   -8.2433   13.5853 H         1 MOL     0.0273
     53 H           7.4375   -3.6843   18.2923 H         1 MOL     0.0646
     54 H           7.5325   -1.8387   19.8402 H         1 MOL     0.0621
     55 H           7.4219    3.5625   17.6392 H         1 MOL     0.1921
@<TRIPOS>BOND
     1    1   18 1 
     2    1   21 1 
     3    1   17 am
     4    2   20 1 
     5    2   22 am
     6    2   19 1 
     7    3    4 ar
     8    3   12 ar
     9    4   55 1 
    10    4    5 ar
    11    5    6 ar
    12    5   29 2 
    13    6    7 ar
    14    6   11 ar
    15    7    8 ar
    16    7   33 1 
    17    8    9 ar
    18    8   34 1 
    19    9   10 ar
    20    9   35 1 
    21   10   11 ar
    22   10   36 1 
    23   11   12 ar
    24   12   13 1 
    25   13   14 1 
    26   13   37 1 
    27   13   38 1 
    28   14   15 ar
    29   14   28 ar
    30   15   16 ar
    31   15   39 1 
    32   16   17 1 
    33   16   26 ar
    34   17   31 2 
    35   18   19 1 
    36   18   40 1 
    37   18   41 1 
    38   19   42 1 
    39   19   43 1 
    40   20   21 1 
    41   20   44 1 
    42   20   45 1 
    43   21   46 1 
    44   21   47 1 
    45   22   23 1 
    46   22   30 2 
    47   23   24 1 
    48   23   25 1 
    49   23   48 1 
    50   24   25 1 
    51   24   49 1 
    52   24   50 1 
    53   25   51 1 
    54   25   52 1 
    55   26   27 ar
    56   26   32 1 
    57   27   28 ar
    58   27   53 1 
    59   28   54 1 
@<TRIPOS>SUBSTRUCTURE
1 MOL         1
@<TRIPOS>MOLECULE
query molecule
   55    59     1     0     0
SMALL
NO_CHARGE

@<TRIPOS>ATOM
      1 N           5.2012    7.5167   23.5806 N.am      1 MOL    -0.2945
      2 N           6.2256    6.4040   21.4685 N.am      1 MOL    -0.2983
      3 N           7.0118    3.8955   28.2412 N.ar      1 MOL    -0.1750
      4 N           7.5920    2.7678   27.9091 N.ar      1 MOL    -0.2425
      5 C           6.9176    1.6954   27.4707 C.ar      1 MOL     0.2725
      6 C           5.5444    1.7742   27.3612 C.ar      1 MOL     0.0496
      7 C           4.7920    0.6813   26.9294 C.ar      1 MOL     0.0138
      8 C           3.4195    0.7761   26.8481 C.ar      1 MOL     0.0008
      9 C           2.8533    1.9801   27.2102 C.ar      1 MOL     0.0007
     10 C           3.5876    3.0726   27.6408 C.ar      1 MOL     0.0103
     11 C           4.9454    2.9691   27.7152 C.ar      1 MOL     0.0106
     12 C           5.6547    4.0526   28.1595 C.ar      1 MOL     0.0736
     13 C           5.1435    5.3752   28.4947 C.3       1 MOL     0.0925
     14 C           5.9327    6.4322   27.8039 C.ar      1 MOL    -0.0406
     15 C           5.3731    6.9234   26.6109 C.ar      1 MOL     0.0196
     16 C           6.0327    7.8939   25.8954 C.ar      1 MOL     0.0723
     17 C           5.4713    8.4286   24.6344 C.2       1 MOL     0.2495
     18 C           4.6551    7.9939   22.3513 C.3       1 MOL     0.1268
     19 C           5.0051    7.1090   21.1743 C.3       1 MOL     0.1265
     20 C           6.2032    5.4831   22.6102 C.3       1 MOL     0.1265
     21 C           5.4890    6.1085   23.7806 C.3       1 MOL     0.1268
     22 C           7.3911    6.5740   20.7155 C.2       1 MOL     0.2187
     23 C           7.5745    7.4610   19.5637 C.3       1 MOL     0.0752
     24 C           6.5223    7.3747   18.4813 C.3       1 MOL     0.0134
     25 C           7.8873    6.9138   18.2174 C.3       1 MOL     0.0134
     26 C           7.2377    8.4296   26.2842 C.ar      1 MOL     0.1355
     27 C           7.7845    7.9480   27.4521 C.ar      1 MOL     0.0392
     28 C           7.1146    6.9571   28.1840 C.ar      1 MOL     0.0066
     29 O           7.4561    0.6061   27.1463 O.2       1 MOL    -0.2658
     30 O           8.4221    5.8898   21.0533 O.2       1 MOL    -0.2753
     31 O           5.2310    9.6473   24.4739 O.2       1 MOL    -0.2699
     32 F           7.8540    9.3920   25.5380 F         1 MOL    -0.2047
     33 H           5.2637   -0.1991   26.6698 H         1 MOL     0.0625
     34 H           2.8423   -0.0175   26.5314 H         1 MOL     0.0618
     35 H           1.8272    2.0719   27.1579 H         1 MOL     0.0618
     36 H           3.1150    3.9524   27.9013 H         1 MOL     0.0624
     37 H           5.2101    5.5209   29.5527 H         1 MOL     0.0377
     38 H           4.1244    5.4428   28.1749 H         1 MOL     0.0377
     39 H           4.4700    6.5559   26.2734 H         1 MOL     0.0629
     40 H           5.0357    8.9770   22.1663 H         1 MOL     0.0480
     41 H           3.5891    7.9946   22.4499 H         1 MOL     0.0480
     42 H           5.1388    7.7104   20.2999 H         1 MOL     0.0480
     43 H           4.2146    6.4091   20.9992 H         1 MOL     0.0480
     44 H           7.2077    5.2502   22.8953 H         1 MOL     0.0480
     45 H           5.6839    4.5916   22.3260 H         1 MOL     0.0480
     46 H           6.1043    6.0073   24.6502 H         1 MOL     0.0480
     47 H           4.5535    5.6032   23.8930 H         1 MOL     0.0480
     48 H           8.0217    8.2166   20.1747 H         1 MOL     0.0394
     49 H           6.1592    8.2671   18.0155 H         1 MOL     0.0273
     50 H           5.5476    6.9397   18.4059 H         1 MOL     0.0273
     51 H           8.5150    7.4683   17.5514 H         1 MOL     0.0273
     52 H           8.3103    5.9979   17.8633 H         1 MOL     0.0273
     53 H           8.6881    8.3170   27.7890 H         1 MOL     0.0646
     54 H           7.5467    6.6131   29.0561 H         1 MOL     0.0621
     55 H           8.5719    2.7057   27.9849 H         1 MOL     0.1921
@<TRIPOS>BOND
     1    1   18 1 
     2    1   21 1 
     3    1   17 am
     4    2   20 1 
     5    2   22 am
     6    2   19 1 
     7    3    4 ar
     8    3   12 ar
     9    4   55 1 
    10    4    5 ar
    11    5    6 ar
    12    5   29 2 
    13    6    7 ar
    14    6   11 ar
    15    7    8 ar
    16    7   33 1 
    17    8    9 ar
    18    8   34 1 
    19    9   10 ar
    20    9   35 1 
    21   10   11 ar
    22   10   36 1 
    23   11   12 ar
    24   12   13 1 
    25   13   14 1 
    26   13   37 1 
    27   13   38 1 
    28   14   15 ar
    29   14   28 ar
    30   15   16 ar
    31   15   39 1 
    32   16   17 1 
    33   16   26 ar
    34   17   31 2 
    35   18   19 1 
    36   18   40 1 
    37   18   41 1 
    38   19   42 1 
    39   19   43 1 
    40   20   21 1 
    41   20   44 1 
    42   20   45 1 
    43   21   46 1 
    44   21   47 1 
    45   22   23 1 
    46   22   30 2 
    47   23   24 1 
    48   23   25 1 
    49   23   48 1 
    50   24   25 1 
    51   24   49 1 
    52   24   50 1 
    53   25   51 1 
    54   25   52 1 
    55   26   27 ar
    56   26   32 1 
    57   27   28 ar
    58   27   53 1 
    59   28   54 1 
@<TRIPOS>SUBSTRUCTURE
1 MOL         1
@<TRIPOS>MOLECULE
query molecule
   55    59     1     0     0
SMALL
NO_CHARGE

@<TRIPOS>ATOM
      1 N          45.9121    6.9543   20.9492 N.am      1 MOL    -0.2945
      2 N          44.9344    8.2124   18.8974 N.am      1 MOL    -0.2983
      3 N          50.9467    3.7909   19.5207 N.ar      1 MOL    -0.1750
      4 N          51.6918    3.5403   18.4715 N.ar      1 MOL    -0.2425
      5 C          52.9913    3.2213   18.5521 C.ar      1 MOL     0.2725
      6 C          53.5815    3.1516   19.7972 C.ar      1 MOL     0.0496
      7 C          54.9353    2.8436   19.9368 C.ar      1 MOL     0.0138
      8 C          55.5086    2.8005   21.1894 C.ar      1 MOL     0.0008
      9 C          54.6873    3.0737   22.2627 C.ar      1 MOL     0.0007
     10 C          53.3426    3.3811   22.1389 C.ar      1 MOL     0.0103
     11 C          52.7845    3.4186   20.8951 C.ar      1 MOL     0.0106
     12 C          51.4582    3.7413   20.7892 C.ar      1 MOL     0.0736
     13 C          50.5094    3.9754   21.8700 C.3       1 MOL     0.0925
     14 C          50.0643    5.3964   21.8774 C.ar      1 MOL    -0.0406
     15 C          48.6768    5.5958   21.9908 C.ar      1 MOL     0.0196
     16 C          48.1680    6.8724   21.9963 C.ar      1 MOL     0.0723
     17 C          46.7122    7.1147   22.1107 C.2       1 MOL     0.2495
     18 C          44.5037    7.1744   21.0213 C.3       1 MOL     0.1268
     19 C          43.9088    7.5890   19.6927 C.3       1 MOL     0.1265
     20 C          46.0855    7.3820   18.5267 C.3       1 MOL     0.1265
     21 C          46.5511    6.5665   19.7055 C.3       1 MOL     0.1268
     22 C          44.8589    9.5464   18.4865 C.2       1 MOL     0.2187
     23 C          43.7887   10.5015   18.7859 C.3       1 MOL     0.0752
     24 C          42.8347   10.1091   19.8913 C.3       1 MOL     0.0134
     25 C          42.3668   10.1717   18.5048 C.3       1 MOL     0.0134
     26 C          48.9520    7.9972   21.8959 C.ar      1 MOL     0.1355
     27 C          50.3100    7.8008   21.7850 C.ar      1 MOL     0.0392
     28 C          50.8324    6.4996   21.7780 C.ar      1 MOL     0.0066
     29 O          53.7217    2.9765   17.5579 O.2       1 MOL    -0.2658
     30 O          45.8201   10.0032   17.7705 O.2       1 MOL    -0.2753
     31 O          46.1740    7.4527   23.1901 O.2       1 MOL    -0.2699
     32 F          48.3983    9.2446   21.9054 F         1 MOL    -0.2047
     33 H          55.5082    2.6471   19.1012 H         1 MOL     0.0625
     34 H          56.5065    2.5748   21.3178 H         1 MOL     0.0618
     35 H          55.0968    3.0481   23.2091 H         1 MOL     0.0618
     36 H          52.7706    3.5786   22.9750 H         1 MOL     0.0624
     37 H          50.9775    3.7481   22.8050 H         1 MOL     0.0377
     38 H          49.6550    3.3483   21.7213 H         1 MOL     0.0377
     39 H          48.0425    4.7858   22.0692 H         1 MOL     0.0629
     40 H          44.3141    7.9466   21.7378 H         1 MOL     0.0480
     41 H          44.0462    6.2495   21.3062 H         1 MOL     0.0480
     42 H          43.1102    8.2814   19.8571 H         1 MOL     0.0480
     43 H          43.5261    6.7292   19.1829 H         1 MOL     0.0480
     44 H          46.8846    8.0131   18.1986 H         1 MOL     0.0480
     45 H          45.7940    6.7166   17.7410 H         1 MOL     0.0480
     46 H          47.6084    6.6931   19.8123 H         1 MOL     0.0480
     47 H          46.2887    5.5477   19.5146 H         1 MOL     0.0480
     48 H          44.4157   11.3323   18.5390 H         1 MOL     0.0394
     49 H          42.5072   10.8407   20.6004 H         1 MOL     0.0273
     50 H          42.8313    9.3642   20.6595 H         1 MOL     0.0273
     51 H          41.6907   10.9460   18.2075 H         1 MOL     0.0273
     52 H          41.8748    9.4830   17.8514 H         1 MOL     0.0273
     53 H          50.9437    8.6123   21.7071 H         1 MOL     0.0646
     54 H          51.8543    6.3803   21.6933 H         1 MOL     0.0621
     55 H          51.2759    3.5882   17.5802 H         1 MOL     0.1921
@<TRIPOS>BOND
     1    1   18 1 
     2    1   21 1 
     3    1   17 am
     4    2   20 1 
     5    2   22 am
     6    2   19 1 
     7    3    4 ar
     8    3   12 ar
     9    4   55 1 
    10    4    5 ar
    11    5    6 ar
    12    5   29 2 
    13    6    7 ar
    14    6   11 ar
    15    7    8 ar
    16    7   33 1 
    17    8    9 ar
    18    8   34 1 
    19    9   10 ar
    20    9   35 1 
    21   10   11 ar
    22   10   36 1 
    23   11   12 ar
    24   12   13 1 
    25   13   14 1 
    26   13   37 1 
    27   13   38 1 
    28   14   15 ar
    29   14   28 ar
    30   15   16 ar
    31   15   39 1 
    32   16   17 1 
    33   16   26 ar
    34   17   31 2 
    35   18   19 1 
    36   18   40 1 
    37   18   41 1 
    38   19   42 1 
    39   19   43 1 
    40   20   21 1 
    41   20   44 1 
    42   20   45 1 
    43   21   46 1 
    44   21   47 1 
    45   22   23 1 
    46   22   30 2 
    47   23   24 1 
    48   23   25 1 
    49   23   48 1 
    50   24   25 1 
    51   24   49 1 
    52   24   50 1 
    53   25   51 1 
    54   25   52 1 
    55   26   27 ar
    56   26   32 1 
    57   27   28 ar
    58   27   53 1 
    59   28   54 1 
@<TRIPOS>SUBSTRUCTURE
1 MOL         1
@<TRIPOS>MOLECULE
query molecule
   55    59     1     0     0
SMALL
NO_CHARGE

@<TRIPOS>ATOM
      1 N           5.7596   11.6949   37.2276 N.am      1 MOL    -0.2945
      2 N           3.6538   12.9367   36.3487 N.am      1 MOL    -0.2983
      3 N           8.2167    5.8465   34.3951 N.ar      1 MOL    -0.1750
      4 N           7.3562    4.9522   33.9728 N.ar      1 MOL    -0.2425
      5 C           6.4780    4.3391   34.7788 C.ar      1 MOL     0.2725
      6 C           6.4734    4.6593   36.1209 C.ar      1 MOL     0.0496
      7 C           5.5939    4.0365   37.0073 C.ar      1 MOL     0.0138
      8 C           5.6216    4.3567   38.3476 C.ar      1 MOL     0.0008
      9 C           6.5449    5.3002   38.7460 C.ar      1 MOL     0.0007
     10 C           7.4237    5.9258   37.8776 C.ar      1 MOL     0.0103
     11 C           7.3863    5.6036   36.5530 C.ar      1 MOL     0.0106
     12 C           8.2738    6.2184   35.7110 C.ar      1 MOL     0.0736
     13 C           9.2291    7.2692   36.0369 C.3       1 MOL     0.0925
     14 C           8.7550    8.5849   35.5257 C.ar      1 MOL    -0.0406
     15 C           8.2191    9.4532   36.4934 C.ar      1 MOL     0.0196
     16 C           7.7454   10.6873   36.1171 C.ar      1 MOL     0.0723
     17 C           7.1724   11.6221   37.1116 C.2       1 MOL     0.2495
     18 C           5.1701   12.5810   38.1786 C.3       1 MOL     0.1268
     19 C           3.7780   13.0225   37.7806 C.3       1 MOL     0.1265
     20 C           3.7887   11.6052   35.7480 C.3       1 MOL     0.1265
     21 C           4.9414   10.8588   36.3690 C.3       1 MOL     0.1268
     22 C           3.4167   14.0571   35.5471 C.2       1 MOL     0.2187
     23 C           3.2734   15.4455   35.9933 C.3       1 MOL     0.0752
     24 C           3.8865   15.7817   37.3339 C.3       1 MOL     0.0134
     25 C           2.4312   15.7893   37.1689 C.3       1 MOL     0.0134
     26 C           7.7640   11.1383   34.8186 C.ar      1 MOL     0.1355
     27 C           8.2887   10.2875   33.8721 C.ar      1 MOL     0.0392
     28 C           8.7719    9.0273   34.2525 C.ar      1 MOL     0.0066
     29 O           5.6445    3.4801   34.3925 O.2       1 MOL    -0.2658
     30 O           3.3108   13.8716   34.2824 O.2       1 MOL    -0.2753
     31 O           7.8906   12.3409   37.8440 O.2       1 MOL    -0.2699
     32 F           7.2805   12.3730   34.4951 F         1 MOL    -0.2047
     33 H           4.9212    3.3357   36.6591 H         1 MOL     0.0625
     34 H           4.9815    3.9105   39.0216 H         1 MOL     0.0618
     35 H           6.5832    5.5534   39.7453 H         1 MOL     0.0618
     36 H           8.0971    6.6258   38.2269 H         1 MOL     0.0624
     37 H          10.1735    7.0375   35.5904 H         1 MOL     0.0377
     38 H           9.3271    7.3289   37.1009 H         1 MOL     0.0377
     39 H           8.1813    9.1645   37.4833 H         1 MOL     0.0629
     40 H           5.7915   13.4476   38.2703 H         1 MOL     0.0480
     41 H           5.0890   12.0524   39.1059 H         1 MOL     0.0480
     42 H           3.6175   14.0320   38.0958 H         1 MOL     0.0480
     43 H           3.0503   12.3912   38.2468 H         1 MOL     0.0480
     44 H           3.9622   11.7082   34.6973 H         1 MOL     0.0480
     45 H           2.8880   11.0541   35.9212 H         1 MOL     0.0480
     46 H           5.5579   10.4693   35.5858 H         1 MOL     0.0480
     47 H           4.5300   10.0813   36.9768 H         1 MOL     0.0480
     48 H           3.3198   15.8083   34.9880 H         1 MOL     0.0394
     49 H           4.4152   16.7029   37.4646 H         1 MOL     0.0273
     50 H           4.5717   15.2954   37.9964 H         1 MOL     0.0273
     51 H           1.8999   16.7180   37.1883 H         1 MOL     0.0273
     52 H           1.6205   15.3080   37.6734 H         1 MOL     0.0273
     53 H           8.3265   10.5779   32.8820 H         1 MOL     0.0646
     54 H           9.1599    8.4086   33.5229 H         1 MOL     0.0621
     55 H           7.3547    4.7199   33.0158 H         1 MOL     0.1921
@<TRIPOS>BOND
     1    1   18 1 
     2    1   21 1 
     3    1   17 am
     4    2   20 1 
     5    2   22 am
     6    2   19 1 
     7    3    4 ar
     8    3   12 ar
     9    4   55 1 
    10    4    5 ar
    11    5    6 ar
    12    5   29 2 
    13    6    7 ar
    14    6   11 ar
    15    7    8 ar
    16    7   33 1 
    17    8    9 ar
    18    8   34 1 
    19    9   10 ar
    20    9   35 1 
    21   10   11 ar
    22   10   36 1 
    23   11   12 ar
    24   12   13 1 
    25   13   14 1 
    26   13   37 1 
    27   13   38 1 
    28   14   15 ar
    29   14   28 ar
    30   15   16 ar
    31   15   39 1 
    32   16   17 1 
    33   16   26 ar
    34   17   31 2 
    35   18   19 1 
    36   18   40 1 
    37   18   41 1 
    38   19   42 1 
    39   19   43 1 
    40   20   21 1 
    41   20   44 1 
    42   20   45 1 
    43   21   46 1 
    44   21   47 1 
    45   22   23 1 
    46   22   30 2 
    47   23   24 1 
    48   23   25 1 
    49   23   48 1 
    50   24   25 1 
    51   24   49 1 
    52   24   50 1 
    53   25   51 1 
    54   25   52 1 
    55   26   27 ar
    56   26   32 1 
    57   27   28 ar
    58   27   53 1 
    59   28   54 1 
@<TRIPOS>SUBSTRUCTURE
1 MOL         1
@<TRIPOS>MOLECULE
query molecule
   55    59     1     0     0
SMALL
NO_CHARGE

@<TRIPOS>ATOM
      1 N          -2.1238    6.5278    3.5873 N.am      1 MOL    -0.2945
      2 N          -0.2592    4.7191    3.5735 N.am      1 MOL    -0.2983
      3 N           1.2085   12.8796    0.5809 N.ar      1 MOL    -0.1750
      4 N           1.6875   14.0978    0.6544 N.ar      1 MOL    -0.2425
      5 C           2.2203   14.6119    1.7718 C.ar      1 MOL     0.2725
      6 C           2.2705   13.8267    2.9053 C.ar      1 MOL     0.0496
      7 C           2.7963   14.3191    4.1003 C.ar      1 MOL     0.0138
      8 C           2.8167   13.5239    5.2258 C.ar      1 MOL     0.0008
      9 C           2.2998   12.2516    5.1019 C.ar      1 MOL     0.0007
     10 C           1.7746   11.7502    3.9226 C.ar      1 MOL     0.0103
     11 C           1.7615   12.5444    2.8141 C.ar      1 MOL     0.0106
     12 C           1.2228   12.0393    1.6612 C.ar      1 MOL     0.0736
     13 C           0.7211   10.6913    1.4284 C.3       1 MOL     0.0925
     14 C          -0.5710   10.4835    2.1386 C.ar      1 MOL    -0.0406
     15 C          -1.0545    9.1630    2.1423 C.ar      1 MOL     0.0196
     16 C          -2.2454    8.8729    2.7640 C.ar      1 MOL     0.0723
     17 C          -2.7824    7.4935    2.7820 C.2       1 MOL     0.2495
     18 C          -2.6150    5.1885    3.6343 C.3       1 MOL     0.1268
     19 C          -1.5352    4.1820    3.9691 C.3       1 MOL     0.1265
     20 C           0.1817    5.9478    4.2428 C.3       1 MOL     0.1265
     21 C          -0.9568    6.9293    4.3507 C.3       1 MOL     0.1268
     22 C           0.5397    4.1154    2.5981 C.2       1 MOL     0.2187
     23 C           0.2336    2.9024    1.8352 C.3       1 MOL     0.0752
     24 C          -0.8752    3.0190    0.8139 C.3       1 MOL     0.0134
     25 C          -1.0616    2.1940    2.0096 C.3       1 MOL     0.0134
     26 C          -3.0140    9.8186    3.4003 C.ar      1 MOL     0.1355
     27 C          -2.5398   11.1109    3.3960 C.ar      1 MOL     0.0392
     28 C          -1.3256   11.4105    2.7618 C.ar      1 MOL     0.0066
     29 O           2.6857   15.7769    1.8615 O.2       1 MOL    -0.2658
     30 O           1.6653    4.6673    2.3264 O.2       1 MOL    -0.2753
     31 O          -3.7887    7.1597    2.1152 O.2       1 MOL    -0.2699
     32 F          -4.1908    9.4802    4.0030 F         1 MOL    -0.2047
     33 H           3.1711   15.2797    4.1416 H         1 MOL     0.0625
     34 H           3.2005   13.8652    6.1199 H         1 MOL     0.0618
     35 H           2.3042   11.6403    5.9328 H         1 MOL     0.0618
     36 H           1.3988   10.7897    3.8824 H         1 MOL     0.0624
     37 H           1.4378    9.9820    1.7864 H         1 MOL     0.0377
     38 H           0.5614   10.5588    0.3785 H         1 MOL     0.0377
     39 H          -0.5169    8.4139    1.6793 H         1 MOL     0.0629
     40 H          -3.0292    4.9420    2.6787 H         1 MOL     0.0480
     41 H          -3.3523    5.1417    4.4090 H         1 MOL     0.0480
     42 H          -1.7198    3.2689    3.4434 H         1 MOL     0.0480
     43 H          -1.5363    3.9856    5.0212 H         1 MOL     0.0480
     44 H           0.9755    6.3911    3.6790 H         1 MOL     0.0480
     45 H           0.5203    5.7033    5.2279 H         1 MOL     0.0480
     46 H          -0.6241    7.8798    3.9886 H         1 MOL     0.0480
     47 H          -1.2462    6.9733    5.3790 H         1 MOL     0.0480
     48 H           1.2557    2.5877    1.8618 H         1 MOL     0.0394
     49 H          -0.7705    2.5558   -0.1451 H         1 MOL     0.0273
     50 H          -1.4067    3.8308    0.3628 H         1 MOL     0.0273
     51 H          -1.1008    1.1286    1.9182 H         1 MOL     0.0273
     52 H          -1.7959    2.1604    2.7861 H         1 MOL     0.0273
     53 H          -3.0786   11.8594    3.8603 H         1 MOL     0.0646
     54 H          -0.9928   12.3876    2.7730 H         1 MOL     0.0621
     55 H           1.6546   14.6627   -0.1515 H         1 MOL     0.1921
@<TRIPOS>BOND
     1    1   18 1 
     2    1   21 1 
     3    1   17 am
     4    2   20 1 
     5    2   22 am
     6    2   19 1 
     7    3    4 ar
     8    3   12 ar
     9    4   55 1 
    10    4    5 ar
    11    5    6 ar
    12    5   29 2 
    13    6    7 ar
    14    6   11 ar
    15    7    8 ar
    16    7   33 1 
    17    8    9 ar
    18    8   34 1 
    19    9   10 ar
    20    9   35 1 
    21   10   11 ar
    22   10   36 1 
    23   11   12 ar
    24   12   13 1 
    25   13   14 1 
    26   13   37 1 
    27   13   38 1 
    28   14   15 ar
    29   14   28 ar
    30   15   16 ar
    31   15   39 1 
    32   16   17 1 
    33   16   26 ar
    34   17   31 2 
    35   18   19 1 
    36   18   40 1 
    37   18   41 1 
    38   19   42 1 
    39   19   43 1 
    40   20   21 1 
    41   20   44 1 
    42   20   45 1 
    43   21   46 1 
    44   21   47 1 
    45   22   23 1 
    46   22   30 2 
    47   23   24 1 
    48   23   25 1 
    49   23   48 1 
    50   24   25 1 
    51   24   49 1 
    52   24   50 1 
    53   25   51 1 
    54   25   52 1 
    55   26   27 ar
    56   26   32 1 
    57   27   28 ar
    58   27   53 1 
    59   28   54 1 
@<TRIPOS>SUBSTRUCTURE
1 MOL         1
@<TRIPOS>MOLECULE
query molecule
   55    59     1     0     0
SMALL
NO_CHARGE

@<TRIPOS>ATOM
      1 N          49.4766    8.4918   14.5190 N.am      1 MOL    -0.2945
      2 N          48.0571    9.8995   12.8602 N.am      1 MOL    -0.2983
      3 N          52.8933    8.7772   21.2704 N.ar      1 MOL    -0.1750
      4 N          53.1926    7.9813   22.2682 N.ar      1 MOL    -0.2425
      5 C          53.7376    6.7679   22.1025 C.ar      1 MOL     0.2725
      6 C          53.9993    6.3272   20.8215 C.ar      1 MOL     0.0496
      7 C          54.5473    5.0647   20.5916 C.ar      1 MOL     0.0138
      8 C          54.7804    4.6370   19.3023 C.ar      1 MOL     0.0008
      9 C          54.4474    5.5064   18.2852 C.ar      1 MOL     0.0007
     10 C          53.9027    6.7617   18.4988 C.ar      1 MOL     0.0103
     11 C          53.6784    7.1763   19.7785 C.ar      1 MOL     0.0106
     12 C          53.1232    8.4128   19.9713 C.ar      1 MOL     0.0736
     13 C          52.8069    9.4145   18.9615 C.3       1 MOL     0.0925
     14 C          51.3654    9.3506   18.5939 C.ar      1 MOL    -0.0406
     15 C          51.0714    8.6387   17.4173 C.ar      1 MOL     0.0196
     16 C          49.7696    8.5327   16.9898 C.ar      1 MOL     0.0723
     17 C          49.4286    7.7930   15.7537 C.2       1 MOL     0.2495
     18 C          49.1591    7.8111   13.3053 C.3       1 MOL     0.1268
     19 C          48.6413    8.7435   12.2313 C.3       1 MOL     0.1265
     20 C          48.9500   10.7433   13.6618 C.3       1 MOL     0.1265
     21 C          49.8510    9.8937   14.5207 C.3       1 MOL     0.1268
     22 C          46.7033   10.2223   12.7281 C.2       1 MOL     0.2187
     23 C          45.6886    9.4766   11.9788 C.3       1 MOL     0.0752
     24 C          44.2515    9.8806   12.2189 C.3       1 MOL     0.0134
     25 C          44.7330    8.5740   12.6730 C.3       1 MOL     0.0134
     26 C          48.7079    9.0937   17.6592 C.ar      1 MOL     0.1355
     27 C          48.9968    9.7904   18.8107 C.ar      1 MOL     0.0392
     28 C          50.3241    9.9014   19.2492 C.ar      1 MOL     0.0066
     29 O          54.0328    5.9910   23.0466 O.2       1 MOL    -0.2658
     30 O          46.2841   11.2806   13.3193 O.2       1 MOL    -0.2753
     31 O          49.1034    6.5835   15.7672 O.2       1 MOL    -0.2699
     32 F          47.4320    8.9608   17.1931 F         1 MOL    -0.2047
     33 H          54.7791    4.4505   21.3878 H         1 MOL     0.0625
     34 H          55.1849    3.7088   19.1073 H         1 MOL     0.0618
     35 H          54.6126    5.2053   17.3125 H         1 MOL     0.0618
     36 H          53.6701    7.3750   17.7019 H         1 MOL     0.0624
     37 H          53.4009    9.2355   18.0896 H         1 MOL     0.0377
     38 H          53.0173   10.3852   19.3602 H         1 MOL     0.0377
     39 H          51.8311    8.1974   16.8762 H         1 MOL     0.0629
     40 H          48.4096    7.0755   13.5113 H         1 MOL     0.0480
     41 H          50.0610    7.3653   12.9394 H         1 MOL     0.0480
     42 H          47.9015    8.2404   11.6449 H         1 MOL     0.0480
     43 H          49.4465    9.0449   11.5939 H         1 MOL     0.0480
     44 H          48.3635   11.3800   14.2904 H         1 MOL     0.0480
     45 H          49.5553   11.3306   13.0032 H         1 MOL     0.0480
     46 H          49.8061   10.2566   15.5264 H         1 MOL     0.0480
     47 H          50.8382    9.9621   14.1158 H         1 MOL     0.0480
     48 H          46.3475    9.3524   11.1453 H         1 MOL     0.0394
     49 H          43.5689    9.9435   11.3971 H         1 MOL     0.0273
     50 H          43.7668   10.7133   12.6842 H         1 MOL     0.0273
     51 H          44.3927    7.6844   12.1852 H         1 MOL     0.0273
     52 H          44.7348    8.0650   13.6133 H         1 MOL     0.0273
     53 H          48.2356   10.2310   19.3516 H         1 MOL     0.0646
     54 H          50.5133   10.4296   20.1157 H         1 MOL     0.0621
     55 H          53.0084    8.2906   23.1848 H         1 MOL     0.1921
@<TRIPOS>BOND
     1    1   18 1 
     2    1   21 1 
     3    1   17 am
     4    2   20 1 
     5    2   22 am
     6    2   19 1 
     7    3    4 ar
     8    3   12 ar
     9    4   55 1 
    10    4    5 ar
    11    5    6 ar
    12    5   29 2 
    13    6    7 ar
    14    6   11 ar
    15    7    8 ar
    16    7   33 1 
    17    8    9 ar
    18    8   34 1 
    19    9   10 ar
    20    9   35 1 
    21   10   11 ar
    22   10   36 1 
    23   11   12 ar
    24   12   13 1 
    25   13   14 1 
    26   13   37 1 
    27   13   38 1 
    28   14   15 ar
    29   14   28 ar
    30   15   16 ar
    31   15   39 1 
    32   16   17 1 
    33   16   26 ar
    34   17   31 2 
    35   18   19 1 
    36   18   40 1 
    37   18   41 1 
    38   19   42 1 
    39   19   43 1 
    40   20   21 1 
    41   20   44 1 
    42   20   45 1 
    43   21   46 1 
    44   21   47 1 
    45   22   23 1 
    46   22   30 2 
    47   23   24 1 
    48   23   25 1 
    49   23   48 1 
    50   24   25 1 
    51   24   49 1 
    52   24   50 1 
    53   25   51 1 
    54   25   52 1 
    55   26   27 ar
    56   26   32 1 
    57   27   28 ar
    58   27   53 1 
    59   28   54 1 
@<TRIPOS>SUBSTRUCTURE
1 MOL         1
@<TRIPOS>MOLECULE
query molecule
   55    59     1     0     0
SMALL
NO_CHARGE

@<TRIPOS>ATOM
      1 N          13.3111  -15.8829   14.4230 N.am      1 MOL    -0.2945
      2 N          12.0609  -13.6879   15.0291 N.am      1 MOL    -0.2983
      3 N          13.8843  -23.0750   15.2416 N.ar      1 MOL    -0.1750
      4 N          15.0731  -23.6143   15.1207 N.ar      1 MOL    -0.2425
      5 C          16.1917  -22.8966   14.9466 C.ar      1 MOL     0.2725
      6 C          16.0957  -21.5213   14.8903 C.ar      1 MOL     0.0496
      7 C          17.2258  -20.7276   14.6905 C.ar      1 MOL     0.0138
      8 C          17.1031  -19.3568   14.6163 C.ar      1 MOL     0.0008
      9 C          15.8335  -18.8347   14.7459 C.ar      1 MOL     0.0007
     10 C          14.7034  -19.6103   14.9441 C.ar      1 MOL     0.0103
     11 C          14.8361  -20.9655   15.0186 C.ar      1 MOL     0.0106
     12 C          13.7067  -21.7186   15.1972 C.ar      1 MOL     0.0736
     13 C          12.3452  -21.2455   15.4104 C.3       1 MOL     0.0925
     14 C          11.9885  -20.2062   14.4054 C.ar      1 MOL    -0.0406
     15 C          12.8367  -19.0852   14.3663 C.ar      1 MOL     0.0196
     16 C          12.5834  -18.0671   13.4786 C.ar      1 MOL     0.0723
     17 C          13.4556  -16.8727   13.4158 C.2       1 MOL     0.2495
     18 C          14.1375  -14.7195   14.3989 C.3       1 MOL     0.1268
     19 C          13.4913  -13.5301   15.0761 C.3       1 MOL     0.1265
     20 C          11.4960  -14.8455   15.7309 C.3       1 MOL     0.1265
     21 C          12.3179  -16.0799   15.4625 C.3       1 MOL     0.1268
     22 C          11.2286  -12.7924   14.3510 C.2       1 MOL     0.2187
     23 C          11.6400  -11.6056   13.5965 C.3       1 MOL     0.0752
     24 C          10.6952  -10.4260   13.6417 C.3       1 MOL     0.0134
     25 C          10.8886  -11.1649   12.3920 C.3       1 MOL     0.0134
     26 C          11.5244  -18.0768   12.6020 C.ar      1 MOL     0.1355
     27 C          10.6948  -19.1746   12.6411 C.ar      1 MOL     0.0392
     28 C          10.9497  -20.2147   13.5464 C.ar      1 MOL     0.0066
     29 O          17.3404  -23.3954   14.8300 O.2       1 MOL    -0.2658
     30 O           9.9660  -13.0164   14.3794 O.2       1 MOL    -0.2753
     31 O          14.3065  -16.7137   12.5106 O.2       1 MOL    -0.2699
     32 F          11.3148  -17.0402   11.7394 F         1 MOL    -0.2047
     33 H          18.1549  -21.1672   14.5990 H         1 MOL     0.0625
     34 H          17.9234  -18.7495   14.4698 H         1 MOL     0.0618
     35 H          15.7193  -17.8109   14.6920 H         1 MOL     0.0618
     36 H          13.7743  -19.1700   15.0344 H         1 MOL     0.0624
     37 H          12.2672  -20.8273   16.3922 H         1 MOL     0.0377
     38 H          11.6723  -22.0710   15.3049 H         1 MOL     0.0377
     39 H          13.6467  -19.0270   15.0027 H         1 MOL     0.0629
     40 H          14.3408  -14.4650   13.3794 H         1 MOL     0.0480
     41 H          15.0348  -14.9493   14.9356 H         1 MOL     0.0480
     42 H          13.7710  -12.6314   14.5677 H         1 MOL     0.0480
     43 H          13.8169  -13.4713   16.0939 H         1 MOL     0.0480
     44 H          10.4947  -15.0096   15.3916 H         1 MOL     0.0480
     45 H          11.5019  -14.6496   16.7829 H         1 MOL     0.0480
     46 H          11.6611  -16.8688   15.1603 H         1 MOL     0.0480
     47 H          12.8407  -16.3195   16.3639 H         1 MOL     0.0480
     48 H          12.6740  -11.7997   13.7906 H         1 MOL     0.0394
     49 H          11.0826   -9.4335   13.7423 H         1 MOL     0.0273
     50 H           9.8497  -10.1557   14.2393 H         1 MOL     0.0273
     51 H          11.4108  -10.7049   11.5791 H         1 MOL     0.0273
     52 H          10.2311  -11.6505   11.7028 H         1 MOL     0.0273
     53 H           9.8848  -19.2319   12.0033 H         1 MOL     0.0646
     54 H          10.3119  -21.0263   13.5554 H         1 MOL     0.0621
     55 H          15.1478  -24.5955   15.1605 H         1 MOL     0.1921
@<TRIPOS>BOND
     1    1   18 1 
     2    1   21 1 
     3    1   17 am
     4    2   20 1 
     5    2   22 am
     6    2   19 1 
     7    3    4 ar
     8    3   12 ar
     9    4   55 1 
    10    4    5 ar
    11    5    6 ar
    12    5   29 2 
    13    6    7 ar
    14    6   11 ar
    15    7    8 ar
    16    7   33 1 
    17    8    9 ar
    18    8   34 1 
    19    9   10 ar
    20    9   35 1 
    21   10   11 ar
    22   10   36 1 
    23   11   12 ar
    24   12   13 1 
    25   13   14 1 
    26   13   37 1 
    27   13   38 1 
    28   14   15 ar
    29   14   28 ar
    30   15   16 ar
    31   15   39 1 
    32   16   17 1 
    33   16   26 ar
    34   17   31 2 
    35   18   19 1 
    36   18   40 1 
    37   18   41 1 
    38   19   42 1 
    39   19   43 1 
    40   20   21 1 
    41   20   44 1 
    42   20   45 1 
    43   21   46 1 
    44   21   47 1 
    45   22   23 1 
    46   22   30 2 
    47   23   24 1 
    48   23   25 1 
    49   23   48 1 
    50   24   25 1 
    51   24   49 1 
    52   24   50 1 
    53   25   51 1 
    54   25   52 1 
    55   26   27 ar
    56   26   32 1 
    57   27   28 ar
    58   27   53 1 
    59   28   54 1 
@<TRIPOS>SUBSTRUCTURE
1 MOL         1
@<TRIPOS>MOLECULE
query molecule
   55    59     1     0     0
SMALL
NO_CHARGE

@<TRIPOS>ATOM
      1 N          22.7976  -19.3779   11.4928 N.am      1 MOL    -0.2945
      2 N          20.6201  -17.9638   11.4066 N.am      1 MOL    -0.2983
      3 N          26.9179  -21.7864   10.4249 N.ar      1 MOL    -0.1750
      4 N          26.7043  -22.8495   11.1617 N.ar      1 MOL    -0.2425
      5 C          27.6899  -23.5741   11.7099 C.ar      1 MOL     0.2725
      6 C          28.9967  -23.1887   11.4924 C.ar      1 MOL     0.0496
      7 C          30.0611  -23.9187   12.0229 C.ar      1 MOL     0.0138
      8 C          31.3591  -23.5272   11.7747 C.ar      1 MOL     0.0008
      9 C          31.5352  -22.4054   10.9927 C.ar      1 MOL     0.0007
     10 C          30.4885  -21.6718   10.4595 C.ar      1 MOL     0.0103
     11 C          29.2079  -22.0662   10.7132 C.ar      1 MOL     0.0106
     12 C          28.1852  -21.3401   10.1641 C.ar      1 MOL     0.0736
     13 C          28.2823  -20.1108    9.3879 C.3       1 MOL     0.0925
     14 C          27.2151  -19.1528    9.7887 C.ar      1 MOL    -0.0406
     15 C          26.2272  -19.6703   10.6454 C.ar      1 MOL     0.0196
     16 C          25.1943  -18.8654   11.0624 C.ar      1 MOL     0.0723
     17 C          24.1375  -19.3817   11.9613 C.2       1 MOL     0.2495
     18 C          21.7518  -19.8723   12.3289 C.3       1 MOL     0.1268
     19 C          20.4077  -19.2536   12.0103 C.3       1 MOL     0.1265
     20 C          21.3346  -17.9385   10.1256 C.3       1 MOL     0.1265
     21 C          22.5210  -18.8671   10.1630 C.3       1 MOL     0.1268
     22 C          20.1759  -16.7766   11.9960 C.2       1 MOL     0.2187
     23 C          19.4657  -16.6373   13.2701 C.3       1 MOL     0.0752
     24 C          18.0682  -16.0651   13.1955 C.3       1 MOL     0.0134
     25 C          19.1440  -15.2964   13.8253 C.3       1 MOL     0.0134
     26 C          25.0634  -17.5500   10.6848 C.ar      1 MOL     0.1355
     27 C          26.0309  -17.0445    9.8461 C.ar      1 MOL     0.0392
     28 C          27.0856  -17.8633    9.4179 C.ar      1 MOL     0.0066
     29 O          27.5050  -24.5955   12.4201 O.2       1 MOL    -0.2658
     30 O          20.4055  -15.6804   11.3709 O.2       1 MOL    -0.2753
     31 O          24.3900  -19.8165   13.1085 O.2       1 MOL    -0.2699
     32 F          24.0180  -16.7915   11.1259 F         1 MOL    -0.2047
     33 H          29.8764  -24.7524   12.6024 H         1 MOL     0.0625
     34 H          32.1619  -24.0501   12.1561 H         1 MOL     0.0618
     35 H          32.4990  -22.0960   10.7937 H         1 MOL     0.0618
     36 H          30.6740  -20.8388    9.8791 H         1 MOL     0.0624
     37 H          28.1764  -20.3413    8.3484 H         1 MOL     0.0377
     38 H          29.2355  -19.6604    9.5723 H         1 MOL     0.0377
     39 H          26.2776  -20.6517   10.9597 H         1 MOL     0.0629
     40 H          21.9965  -19.6550   13.3479 H         1 MOL     0.0480
     41 H          21.6718  -20.9260   12.1574 H         1 MOL     0.0480
     42 H          19.8417  -19.1405   12.9109 H         1 MOL     0.0480
     43 H          19.8683  -19.8859   11.3360 H         1 MOL     0.0480
     44 H          21.6739  -16.9428    9.9306 H         1 MOL     0.0480
     45 H          20.6695  -18.2602    9.3516 H         1 MOL     0.0480
     46 H          23.3825  -18.3350    9.8170 H         1 MOL     0.0480
     47 H          22.2925  -19.7049    9.5392 H         1 MOL     0.0480
     48 H          19.9455  -17.5055   13.6706 H         1 MOL     0.0394
     49 H          17.2863  -16.4823   13.7953 H         1 MOL     0.0273
     50 H          17.3660  -15.8822   12.4090 H         1 MOL     0.0273
     51 H          19.1394  -15.1474   14.8849 H         1 MOL     0.0273
     52 H          19.5414  -14.3140   13.6828 H         1 MOL     0.0273
     53 H          25.9797  -16.0620    9.5328 H         1 MOL     0.0646
     54 H          27.7976  -17.4595    8.7889 H         1 MOL     0.0621
     55 H          25.7735  -23.1292   11.3206 H         1 MOL     0.1921
@<TRIPOS>BOND
     1    1   18 1 
     2    1   21 1 
     3    1   17 am
     4    2   20 1 
     5    2   22 am
     6    2   19 1 
     7    3    4 ar
     8    3   12 ar
     9    4   55 1 
    10    4    5 ar
    11    5    6 ar
    12    5   29 2 
    13    6    7 ar
    14    6   11 ar
    15    7    8 ar
    16    7   33 1 
    17    8    9 ar
    18    8   34 1 
    19    9   10 ar
    20    9   35 1 
    21   10   11 ar
    22   10   36 1 
    23   11   12 ar
    24   12   13 1 
    25   13   14 1 
    26   13   37 1 
    27   13   38 1 
    28   14   15 ar
    29   14   28 ar
    30   15   16 ar
    31   15   39 1 
    32   16   17 1 
    33   16   26 ar
    34   17   31 2 
    35   18   19 1 
    36   18   40 1 
    37   18   41 1 
    38   19   42 1 
    39   19   43 1 
    40   20   21 1 
    41   20   44 1 
    42   20   45 1 
    43   21   46 1 
    44   21   47 1 
    45   22   23 1 
    46   22   30 2 
    47   23   24 1 
    48   23   25 1 
    49   23   48 1 
    50   24   25 1 
    51   24   49 1 
    52   24   50 1 
    53   25   51 1 
    54   25   52 1 
    55   26   27 ar
    56   26   32 1 
    57   27   28 ar
    58   27   53 1 
    59   28   54 1 
@<TRIPOS>SUBSTRUCTURE
1 MOL         1
@<TRIPOS>MOLECULE
query molecule
   55    59     1     0     0
SMALL
NO_CHARGE

@<TRIPOS>ATOM
      1 N          43.4103    0.3215   30.7197 N.am      1 MOL    -0.2945
      2 N          41.6842   -1.2543   29.5857 N.am      1 MOL    -0.2983
      3 N          45.9054    5.8901   31.1562 N.ar      1 MOL    -0.1750
      4 N          47.0988    6.1791   31.6154 N.ar      1 MOL    -0.2425
      5 C          48.1749    6.3202   30.8287 C.ar      1 MOL     0.2725
      6 C          48.0277    6.1542   29.4669 C.ar      1 MOL     0.0496
      7 C          49.1186    6.2700   28.6046 C.ar      1 MOL     0.0138
      8 C          48.9520    6.0789   27.2499 C.ar      1 MOL     0.0008
      9 C          47.6802    5.7740   26.8132 C.ar      1 MOL     0.0007
     10 C          46.5888    5.6556   27.6574 C.ar      1 MOL     0.0103
     11 C          46.7639    5.8492   28.9960 C.ar      1 MOL     0.0106
     12 C          45.6781    5.7110   29.8185 C.ar      1 MOL     0.0736
     13 C          44.2955    5.4595   29.4336 C.3       1 MOL     0.0925
     14 C          43.5724    4.7404   30.5186 C.ar      1 MOL    -0.0406
     15 C          43.9031    3.3819   30.6697 C.ar      1 MOL     0.0196
     16 C          43.2810    2.6307   31.6379 C.ar      1 MOL     0.0723
     17 C          43.6048    1.1977   31.8194 C.2       1 MOL     0.2495
     18 C          43.7159   -1.0661   30.8548 C.3       1 MOL     0.1268
     19 C          42.9090   -1.9359   29.9149 C.3       1 MOL     0.1265
     20 C          41.8042    0.0219   28.8725 C.3       1 MOL     0.1265
     21 C          42.9012    0.8627   29.4733 C.3       1 MOL     0.1268
     22 C          40.4270   -1.7655   29.9210 C.2       1 MOL     0.2187
     23 C          40.1452   -3.0108   30.6400 C.3       1 MOL     0.0752
     24 C          41.3480   -3.7825   31.1339 C.3       1 MOL     0.0134
     25 C          40.5137   -4.3296   30.0615 C.3       1 MOL     0.0134
     26 C          42.3304    3.1383   32.4916 C.ar      1 MOL     0.1355
     27 C          42.0075    4.4681   32.3428 C.ar      1 MOL     0.0392
     28 C          42.6396    5.2373   31.3552 C.ar      1 MOL     0.0066
     29 O          49.3268    6.5984   31.2501 O.2       1 MOL    -0.2658
     30 O          39.3967   -1.0861   29.5717 O.2       1 MOL    -0.2753
     31 O          44.0403    0.7431   32.9023 O.2       1 MOL    -0.2699
     32 F          41.7406    2.3504   33.4372 F         1 MOL    -0.2047
     33 H          50.0515    6.4998   28.9815 H         1 MOL     0.0625
     34 H          49.7427    6.1597   26.5931 H         1 MOL     0.0618
     35 H          47.5339    5.6257   25.8029 H         1 MOL     0.0618
     36 H          45.6563    5.4246   27.2799 H         1 MOL     0.0624
     37 H          44.2800    4.8636   28.5450 H         1 MOL     0.0377
     38 H          43.8096    6.3970   29.2594 H         1 MOL     0.0377
     39 H          44.6105    2.9502   30.0551 H         1 MOL     0.0629
     40 H          43.5096   -1.3657   31.8614 H         1 MOL     0.0480
     41 H          44.7495   -1.1950   30.6077 H         1 MOL     0.0480
     42 H          42.6857   -2.8677   30.3904 H         1 MOL     0.0480
     43 H          43.4706   -2.1246   29.0236 H         1 MOL     0.0480
     44 H          40.8777    0.5525   28.9406 H         1 MOL     0.0480
     45 H          42.0427   -0.1748   27.8481 H         1 MOL     0.0480
     46 H          42.5164    1.8436   29.6603 H         1 MOL     0.0480
     47 H          43.7117    0.8786   28.7761 H         1 MOL     0.0480
     48 H          39.2400   -2.6106   31.0458 H         1 MOL     0.0394
     49 H          41.3338   -4.2316   32.1052 H         1 MOL     0.0273
     50 H          42.3899   -3.5681   31.2491 H         1 MOL     0.0273
     51 H          39.8980   -5.1838   30.2518 H         1 MOL     0.0273
     52 H          40.7082   -4.6828   29.0712 H         1 MOL     0.0273
     53 H          41.2998    4.8990   32.9589 H         1 MOL     0.0646
     54 H          42.3787    6.2319   31.2646 H         1 MOL     0.0621
     55 H          47.2099    6.2991   32.5865 H         1 MOL     0.1921
@<TRIPOS>BOND
     1    1   18 1 
     2    1   21 1 
     3    1   17 am
     4    2   20 1 
     5    2   22 am
     6    2   19 1 
     7    3    4 ar
     8    3   12 ar
     9    4   55 1 
    10    4    5 ar
    11    5    6 ar
    12    5   29 2 
    13    6    7 ar
    14    6   11 ar
    15    7    8 ar
    16    7   33 1 
    17    8    9 ar
    18    8   34 1 
    19    9   10 ar
    20    9   35 1 
    21   10   11 ar
    22   10   36 1 
    23   11   12 ar
    24   12   13 1 
    25   13   14 1 
    26   13   37 1 
    27   13   38 1 
    28   14   15 ar
    29   14   28 ar
    30   15   16 ar
    31   15   39 1 
    32   16   17 1 
    33   16   26 ar
    34   17   31 2 
    35   18   19 1 
    36   18   40 1 
    37   18   41 1 
    38   19   42 1 
    39   19   43 1 
    40   20   21 1 
    41   20   44 1 
    42   20   45 1 
    43   21   46 1 
    44   21   47 1 
    45   22   23 1 
    46   22   30 2 
    47   23   24 1 
    48   23   25 1 
    49   23   48 1 
    50   24   25 1 
    51   24   49 1 
    52   24   50 1 
    53   25   51 1 
    54   25   52 1 
    55   26   27 ar
    56   26   32 1 
    57   27   28 ar
    58   27   53 1 
    59   28   54 1 
@<TRIPOS>SUBSTRUCTURE
1 MOL         1
@<TRIPOS>MOLECULE
query molecule
   55    59     1     0     0
SMALL
NO_CHARGE

@<TRIPOS>ATOM
      1 N          41.3947  -24.0660    3.6130 N.am      1 MOL    -0.2945
      2 N          39.5824  -22.6188    2.4427 N.am      1 MOL    -0.2983
      3 N          47.6217  -19.8103    5.5741 N.ar      1 MOL    -0.1750
      4 N          48.6812  -19.1896    5.1148 N.ar      1 MOL    -0.2425
      5 C          49.8359  -19.8121    4.8389 C.ar      1 MOL     0.2725
      6 C          49.9219  -21.1735    5.0463 C.ar      1 MOL     0.0496
      7 C          51.1060  -21.8674    4.7945 C.ar      1 MOL     0.0138
      8 C          51.1753  -23.2237    5.0292 C.ar      1 MOL     0.0008
      9 C          50.0378  -23.8332    5.5148 C.ar      1 MOL     0.0007
     10 C          48.8563  -23.1571    5.7695 C.ar      1 MOL     0.0103
     11 C          48.7975  -21.8156    5.5313 C.ar      1 MOL     0.0106
     12 C          47.6275  -21.1594    5.8051 C.ar      1 MOL     0.0736
     13 C          46.3663  -21.7361    6.2522 C.3       1 MOL     0.0925
     14 C          45.6974  -22.4612    5.1368 C.ar      1 MOL    -0.0406
     15 C          44.3911  -22.9089    5.4028 C.ar      1 MOL     0.0196
     16 C          43.6950  -23.5976    4.4385 C.ar      1 MOL     0.0723
     17 C          42.3198  -24.0848    4.6894 C.2       1 MOL     0.2495
     18 C          40.0609  -24.5322    3.8150 C.3       1 MOL     0.1268
     19 C          39.0698  -23.8966    2.8639 C.3       1 MOL     0.1265
     20 C          40.8425  -22.6223    1.6915 C.3       1 MOL     0.1265
     21 C          41.8314  -23.5691    2.3215 C.3       1 MOL     0.1268
     22 C          38.9274  -21.4167    2.7259 C.2       1 MOL     0.2187
     23 C          37.6779  -21.2487    3.4727 C.3       1 MOL     0.0752
     24 C          36.5960  -22.2692    3.2005 C.3       1 MOL     0.0134
     25 C          36.4157  -20.8777    2.7806 C.3       1 MOL     0.0134
     26 C          44.2097  -23.8833    3.1961 C.ar      1 MOL     0.1355
     27 C          45.4884  -23.4446    2.9369 C.ar      1 MOL     0.0392
     28 C          46.2019  -22.7425    3.9189 C.ar      1 MOL     0.0066
     29 O          50.8619  -19.2345    4.3968 O.2       1 MOL    -0.2658
     30 O          39.4616  -20.3329    2.2956 O.2       1 MOL    -0.2753
     31 O          41.9552  -24.5078    5.8105 O.2       1 MOL    -0.2699
     32 F          43.4781  -24.5715    2.2722 F         1 MOL    -0.2047
     33 H          51.9309  -21.3647    4.4314 H         1 MOL     0.0625
     34 H          52.0389  -23.7581    4.8505 H         1 MOL     0.0618
     35 H          50.0688  -24.8478    5.6986 H         1 MOL     0.0618
     36 H          48.0321  -23.6604    6.1337 H         1 MOL     0.0624
     37 H          45.7242  -20.9534    6.5986 H         1 MOL     0.0377
     38 H          46.5648  -22.4296    7.0428 H         1 MOL     0.0377
     39 H          43.9565  -22.7211    6.3196 H         1 MOL     0.0629
     40 H          39.7671  -24.3050    4.8187 H         1 MOL     0.0480
     41 H          40.0558  -25.5868    3.6305 H         1 MOL     0.0480
     42 H          38.1315  -23.7623    3.3596 H         1 MOL     0.0480
     43 H          38.9275  -24.5294    2.0125 H         1 MOL     0.0480
     44 H          41.2542  -21.6348    1.6888 H         1 MOL     0.0480
     45 H          40.6476  -22.9439    0.6897 H         1 MOL     0.0480
     46 H          42.7612  -23.0555    2.4513 H         1 MOL     0.0480
     47 H          41.9287  -24.4115    1.6703 H         1 MOL     0.0480
     48 H          38.1983  -20.8532    4.3195 H         1 MOL     0.0394
     49 H          36.0167  -22.6637    4.0092 H         1 MOL     0.0273
     50 H          36.5578  -23.2198    2.7106 H         1 MOL     0.0273
     51 H          35.6974  -20.2617    3.2801 H         1 MOL     0.0273
     52 H          36.1855  -20.4027    1.8508 H         1 MOL     0.0273
     53 H          45.9219  -23.6326    2.0188 H         1 MOL     0.0646
     54 H          47.1592  -22.4251    3.6988 H         1 MOL     0.0621
     55 H          48.6256  -18.2180    4.9645 H         1 MOL     0.1921
@<TRIPOS>BOND
     1    1   18 1 
     2    1   21 1 
     3    1   17 am
     4    2   20 1 
     5    2   22 am
     6    2   19 1 
     7    3    4 ar
     8    3   12 ar
     9    4   55 1 
    10    4    5 ar
    11    5    6 ar
    12    5   29 2 
    13    6    7 ar
    14    6   11 ar
    15    7    8 ar
    16    7   33 1 
    17    8    9 ar
    18    8   34 1 
    19    9   10 ar
    20    9   35 1 
    21   10   11 ar
    22   10   36 1 
    23   11   12 ar
    24   12   13 1 
    25   13   14 1 
    26   13   37 1 
    27   13   38 1 
    28   14   15 ar
    29   14   28 ar
    30   15   16 ar
    31   15   39 1 
    32   16   17 1 
    33   16   26 ar
    34   17   31 2 
    35   18   19 1 
    36   18   40 1 
    37   18   41 1 
    38   19   42 1 
    39   19   43 1 
    40   20   21 1 
    41   20   44 1 
    42   20   45 1 
    43   21   46 1 
    44   21   47 1 
    45   22   23 1 
    46   22   30 2 
    47   23   24 1 
    48   23   25 1 
    49   23   48 1 
    50   24   25 1 
    51   24   49 1 
    52   24   50 1 
    53   25   51 1 
    54   25   52 1 
    55   26   27 ar
    56   26   32 1 
    57   27   28 ar
    58   27   53 1 
    59   28   54 1 
@<TRIPOS>SUBSTRUCTURE
1 MOL         1
@<TRIPOS>MOLECULE
query molecule
   55    59     1     0     0
SMALL
NO_CHARGE

@<TRIPOS>ATOM
      1 N          51.4842    0.2251   15.9471 N.am      1 MOL    -0.2945
      2 N          51.1615   -0.7688   13.5688 N.am      1 MOL    -0.2983
      3 N          48.9867   -2.4653   20.7003 N.ar      1 MOL    -0.1750
      4 N          47.7371   -2.5948   20.3260 N.ar      1 MOL    -0.2425
      5 C          46.8667   -1.5756   20.3048 C.ar      1 MOL     0.2725
      6 C          47.2996   -0.3251   20.6952 C.ar      1 MOL     0.0496
      7 C          46.4300    0.7661   20.7112 C.ar      1 MOL     0.0138
      8 C          46.8790    2.0016   21.1254 C.ar      1 MOL     0.0008
      9 C          48.1995    2.0893   21.5126 C.ar      1 MOL     0.0007
     10 C          49.0733    1.0150   21.5022 C.ar      1 MOL     0.0103
     11 C          48.6196   -0.2025   21.0881 C.ar      1 MOL     0.0106
     12 C          49.4918   -1.2579   21.1005 C.ar      1 MOL     0.0736
     13 C          50.9115   -1.2362   21.4277 C.3       1 MOL     0.0925
     14 C          51.7325   -1.5091   20.2158 C.ar      1 MOL    -0.0406
     15 C          51.7068   -0.5076   19.2288 C.ar      1 MOL     0.0196
     16 C          52.4249   -0.6727   18.0687 C.ar      1 MOL     0.0723
     17 C          52.4153    0.3617   17.0098 C.2       1 MOL     0.2495
     18 C          51.4417    1.2050   14.9102 C.3       1 MOL     0.1268
     19 C          50.9175    0.6498   13.6033 C.3       1 MOL     0.1265
     20 C          50.4969   -1.5832   14.5920 C.3       1 MOL     0.1265
     21 C          50.5897   -0.9175   15.9408 C.3       1 MOL     0.1268
     22 C          51.9908   -1.3650   12.6143 C.2       1 MOL     0.2187
     23 C          52.7308   -0.6898   11.5448 C.3       1 MOL     0.0752
     24 C          54.2387   -0.7352   11.6458 C.3       1 MOL     0.0134
     25 C          53.5287    0.5340   11.8197 C.3       1 MOL     0.0134
     26 C          53.1880   -1.7856   17.8060 C.ar      1 MOL     0.1355
     27 C          53.2124   -2.7653   18.7728 C.ar      1 MOL     0.0392
     28 C          52.4800   -2.6005   19.9572 C.ar      1 MOL     0.0066
     29 O          45.6652   -1.6797   19.9478 O.2       1 MOL    -0.2658
     30 O          52.1334   -2.6388   12.6630 O.2       1 MOL    -0.2753
     31 O          53.1956    1.3412   17.0258 O.2       1 MOL    -0.2699
     32 F          53.8831   -1.9029   16.6374 F         1 MOL    -0.2047
     33 H          45.4494    0.6483   20.4118 H         1 MOL     0.0625
     34 H          46.2556    2.8226   21.1454 H         1 MOL     0.0618
     35 H          48.5556    3.0049   21.8274 H         1 MOL     0.0618
     36 H          50.0536    1.1333   21.8028 H         1 MOL     0.0624
     37 H          51.1143   -1.9837   22.1660 H         1 MOL     0.0377
     38 H          51.1646   -0.2665   21.8032 H         1 MOL     0.0377
     39 H          51.1500    0.3487   19.3751 H         1 MOL     0.0629
     40 H          52.4319    1.5787   14.7514 H         1 MOL     0.0480
     41 H          50.7724    1.9792   15.2244 H         1 MOL     0.0480
     42 H          51.4201    1.1214   12.7853 H         1 MOL     0.0480
     43 H          49.8672    0.8396   13.5240 H         1 MOL     0.0480
     44 H          50.9683   -2.5424   14.6404 H         1 MOL     0.0480
     45 H          49.4647   -1.6918   14.3316 H         1 MOL     0.0480
     46 H          50.9473   -1.6334   16.6513 H         1 MOL     0.0480
     47 H          49.6131   -0.5612   16.1907 H         1 MOL     0.0480
     48 H          51.9777   -0.9328   10.8250 H         1 MOL     0.0394
     49 H          54.8290   -0.9026   10.7689 H         1 MOL     0.0273
     50 H          54.9421   -1.2958   12.2253 H         1 MOL     0.0273
     51 H          53.6100    1.2943   11.0712 H         1 MOL     0.0273
     52 H          53.5115    1.2806   12.5849 H         1 MOL     0.0273
     53 H          53.7704   -3.6215   18.6254 H         1 MOL     0.0646
     54 H          52.5153   -3.3505   20.6656 H         1 MOL     0.0621
     55 H          47.4225   -3.4850   20.0459 H         1 MOL     0.1921
@<TRIPOS>BOND
     1    1   18 1 
     2    1   21 1 
     3    1   17 am
     4    2   20 1 
     5    2   22 am
     6    2   19 1 
     7    3    4 ar
     8    3   12 ar
     9    4   55 1 
    10    4    5 ar
    11    5    6 ar
    12    5   29 2 
    13    6    7 ar
    14    6   11 ar
    15    7    8 ar
    16    7   33 1 
    17    8    9 ar
    18    8   34 1 
    19    9   10 ar
    20    9   35 1 
    21   10   11 ar
    22   10   36 1 
    23   11   12 ar
    24   12   13 1 
    25   13   14 1 
    26   13   37 1 
    27   13   38 1 
    28   14   15 ar
    29   14   28 ar
    30   15   16 ar
    31   15   39 1 
    32   16   17 1 
    33   16   26 ar
    34   17   31 2 
    35   18   19 1 
    36   18   40 1 
    37   18   41 1 
    38   19   42 1 
    39   19   43 1 
    40   20   21 1 
    41   20   44 1 
    42   20   45 1 
    43   21   46 1 
    44   21   47 1 
    45   22   23 1 
    46   22   30 2 
    47   23   24 1 
    48   23   25 1 
    49   23   48 1 
    50   24   25 1 
    51   24   49 1 
    52   24   50 1 
    53   25   51 1 
    54   25   52 1 
    55   26   27 ar
    56   26   32 1 
    57   27   28 ar
    58   27   53 1 
    59   28   54 1 
@<TRIPOS>SUBSTRUCTURE
1 MOL         1
@<TRIPOS>MOLECULE
query molecule
   55    59     1     0     0
SMALL
NO_CHARGE

@<TRIPOS>ATOM
      1 N          48.4290    7.3120   25.2457 N.am      1 MOL    -0.2945
      2 N          48.3353    5.0961   23.8931 N.am      1 MOL    -0.2983
      3 N          52.2606   10.6427   21.7911 N.ar      1 MOL    -0.1750
      4 N          52.0636   11.6254   20.9461 N.ar      1 MOL    -0.2425
      5 C          52.7283   12.7880   21.0028 C.ar      1 MOL     0.2725
      6 C          53.6679   12.9674   21.9971 C.ar      1 MOL     0.0496
      7 C          54.3739   14.1653   22.1139 C.ar      1 MOL     0.0138
      8 C          55.2925   14.3300   23.1281 C.ar      1 MOL     0.0008
      9 C          55.4641   13.2710   23.9943 C.ar      1 MOL     0.0007
     10 C          54.7703   12.0769   23.8906 C.ar      1 MOL     0.0103
     11 C          53.8655   11.9233   22.8818 C.ar      1 MOL     0.0106
     12 C          53.1755   10.7433   22.8041 C.ar      1 MOL     0.0736
     13 C          53.3447    9.5564   23.6321 C.3       1 MOL     0.0925
     14 C          52.3823    9.5690   24.7684 C.ar      1 MOL    -0.0406
     15 C          51.0769    9.1459   24.4611 C.ar      1 MOL     0.0196
     16 C          50.1142    9.1325   25.4418 C.ar      1 MOL     0.0723
     17 C          48.7304    8.6958   25.1489 C.2       1 MOL     0.2495
     18 C          47.1047    6.8534   24.9755 C.3       1 MOL     0.1268
     19 C          47.0700    5.4165   24.5007 C.3       1 MOL     0.1265
     20 C          49.5212    5.1563   24.7546 C.3       1 MOL     0.1265
     21 C          49.4840    6.3890   25.6207 C.3       1 MOL     0.1268
     22 C          48.4531    4.7424   22.5458 C.2       1 MOL     0.2187
     23 C          47.3721    4.6522   21.5607 C.3       1 MOL     0.0752
     24 C          46.7446    3.2882   21.3823 C.3       1 MOL     0.0134
     25 C          47.5432    3.8761   20.3044 C.3       1 MOL     0.0134
     26 C          50.3544    9.5165   26.7398 C.ar      1 MOL     0.1355
     27 C          51.6326    9.9305   27.0394 C.ar      1 MOL     0.0392
     28 C          52.6170    9.9465   26.0409 C.ar      1 MOL     0.0066
     29 O          52.5543   13.7413   20.2011 O.2       1 MOL    -0.2658
     30 O          49.6248    4.4640   22.1045 O.2       1 MOL    -0.2753
     31 O          47.8301    9.5031   24.8227 O.2       1 MOL    -0.2699
     32 F          49.3636    9.4859   27.6780 F         1 MOL    -0.2047
     33 H          54.2087   14.9290   21.4397 H         1 MOL     0.0625
     34 H          55.8265   15.2056   23.2346 H         1 MOL     0.0618
     35 H          56.1460   13.3740   24.7615 H         1 MOL     0.0618
     36 H          54.9353   11.3140   24.5659 H         1 MOL     0.0624
     37 H          54.3431    9.5343   24.0165 H         1 MOL     0.0377
     38 H          53.1588    8.6886   23.0339 H         1 MOL     0.0377
     39 H          50.8423    8.8467   23.5019 H         1 MOL     0.0629
     40 H          46.6748    7.4753   24.2179 H         1 MOL     0.0480
     41 H          46.5517    6.9052   25.8907 H         1 MOL     0.0480
     42 H          46.2853    5.2938   23.7841 H         1 MOL     0.0480
     43 H          46.8901    4.7648   25.3304 H         1 MOL     0.0480
     44 H          50.3995    5.1820   24.1444 H         1 MOL     0.0480
     45 H          49.5351    4.2922   25.3856 H         1 MOL     0.0480
     46 H          50.4237    6.8941   25.5367 H         1 MOL     0.0480
     47 H          49.2903    6.0712   26.6231 H         1 MOL     0.0480
     48 H          47.0505    5.6501   21.7730 H         1 MOL     0.0394
     49 H          45.6838    3.1971   21.2741 H         1 MOL     0.0273
     50 H          46.7673    2.3673   21.9267 H         1 MOL     0.0273
     51 H          47.0624    4.2054   19.4070 H         1 MOL     0.0273
     52 H          48.3890    3.5483   19.7383 H         1 MOL     0.0273
     53 H          51.8661   10.2291   27.9999 H         1 MOL     0.0646
     54 H          53.5673   10.2617   26.2922 H         1 MOL     0.0621
     55 H          51.3944   11.5030   20.2340 H         1 MOL     0.1921
@<TRIPOS>BOND
     1    1   18 1 
     2    1   21 1 
     3    1   17 am
     4    2   20 1 
     5    2   22 am
     6    2   19 1 
     7    3    4 ar
     8    3   12 ar
     9    4   55 1 
    10    4    5 ar
    11    5    6 ar
    12    5   29 2 
    13    6    7 ar
    14    6   11 ar
    15    7    8 ar
    16    7   33 1 
    17    8    9 ar
    18    8   34 1 
    19    9   10 ar
    20    9   35 1 
    21   10   11 ar
    22   10   36 1 
    23   11   12 ar
    24   12   13 1 
    25   13   14 1 
    26   13   37 1 
    27   13   38 1 
    28   14   15 ar
    29   14   28 ar
    30   15   16 ar
    31   15   39 1 
    32   16   17 1 
    33   16   26 ar
    34   17   31 2 
    35   18   19 1 
    36   18   40 1 
    37   18   41 1 
    38   19   42 1 
    39   19   43 1 
    40   20   21 1 
    41   20   44 1 
    42   20   45 1 
    43   21   46 1 
    44   21   47 1 
    45   22   23 1 
    46   22   30 2 
    47   23   24 1 
    48   23   25 1 
    49   23   48 1 
    50   24   25 1 
    51   24   49 1 
    52   24   50 1 
    53   25   51 1 
    54   25   52 1 
    55   26   27 ar
    56   26   32 1 
    57   27   28 ar
    58   27   53 1 
    59   28   54 1 
@<TRIPOS>SUBSTRUCTURE
1 MOL         1
@<TRIPOS>MOLECULE
query molecule
   55    59     1     0     0
SMALL
NO_CHARGE

@<TRIPOS>ATOM
      1 N           0.3555   -8.9516    6.4566 N.am      1 MOL    -0.2945
      2 N          -1.0218   -6.9658    7.4096 N.am      1 MOL    -0.2983
      3 N           4.5982  -14.3478    9.7411 N.ar      1 MOL    -0.1750
      4 N           5.0469  -14.8271   10.8758 N.ar      1 MOL    -0.2425
      5 C           5.9205  -14.1744   11.6553 C.ar      1 MOL     0.2725
      6 C           6.3752  -12.9363   11.2502 C.ar      1 MOL     0.0496
      7 C           7.3001  -12.2231   12.0137 C.ar      1 MOL     0.0138
      8 C           7.7566  -10.9975   11.5787 C.ar      1 MOL     0.0008
      9 C           7.2592  -10.5350   10.3787 C.ar      1 MOL     0.0007
     10 C           6.3416  -11.2322    9.6107 C.ar      1 MOL     0.0103
     11 C           5.8944  -12.4428   10.0514 C.ar      1 MOL     0.0106
     12 C           5.0007  -13.1268    9.2716 C.ar      1 MOL     0.0736
     13 C           4.3771  -12.6818    8.0322 C.3       1 MOL     0.0925
     14 C           2.9532  -12.3136    8.2653 C.ar      1 MOL    -0.0406
     15 C           2.3479  -11.5590    7.2446 C.ar      1 MOL     0.0196
     16 C           1.0384  -11.1621    7.3729 C.ar      1 MOL     0.0723
     17 C           0.3745  -10.3641    6.3176 C.2       1 MOL     0.2495
     18 C          -0.2710   -8.1482    5.4571 C.3       1 MOL     0.1268
     19 C          -0.7698   -6.8258    5.9989 C.3       1 MOL     0.1265
     20 C           0.1280   -7.2872    8.2620 C.3       1 MOL     0.1265
     21 C           0.9797   -8.3531    7.6220 C.3       1 MOL     0.1268
     22 C          -2.2954   -6.8083    7.9640 C.2       1 MOL     0.2187
     23 C          -3.5367   -6.5029    7.2477 C.3       1 MOL     0.0752
     24 C          -3.4211   -5.5254    6.1000 C.3       1 MOL     0.0134
     25 C          -4.1469   -5.1491    7.3152 C.3       1 MOL     0.0134
     26 C           0.2620  -11.4656    8.4660 C.ar      1 MOL     0.1355
     27 C           0.8555  -12.2043    9.4645 C.ar      1 MOL     0.0392
     28 C           2.1917  -12.6101    9.3373 C.ar      1 MOL     0.0066
     29 O           6.3612  -14.6169   12.7470 O.2       1 MOL    -0.2658
     30 O          -2.4114   -6.9424    9.2343 O.2       1 MOL    -0.2753
     31 O          -0.1637  -10.8941    5.3184 O.2       1 MOL    -0.2699
     32 F          -1.0346  -11.0473    8.5468 F         1 MOL    -0.2047
     33 H           7.6425  -12.6132   12.9056 H         1 MOL     0.0625
     34 H           8.4394  -10.4517   12.1256 H         1 MOL     0.0618
     35 H           7.5889   -9.6203   10.0342 H         1 MOL     0.0618
     36 H           6.0005  -10.8419    8.7181 H         1 MOL     0.0624
     37 H           4.4232  -13.4713    7.3114 H         1 MOL     0.0377
     38 H           4.9003  -11.8205    7.6722 H         1 MOL     0.0377
     39 H           2.8856  -11.3036    6.4018 H         1 MOL     0.0629
     40 H          -1.1021   -8.6891    5.0544 H         1 MOL     0.0480
     41 H           0.4627   -7.9346    4.7073 H         1 MOL     0.0480
     42 H          -1.6736   -6.5500    5.4975 H         1 MOL     0.0480
     43 H          -0.0338   -6.0662    5.8351 H         1 MOL     0.0480
     44 H          -0.2228   -7.6396    9.2093 H         1 MOL     0.0480
     45 H           0.7199   -6.4053    8.3923 H         1 MOL     0.0480
     46 H           1.1628   -9.1227    8.3426 H         1 MOL     0.0480
     47 H           1.8856   -7.8876    7.2966 H         1 MOL     0.0480
     48 H          -3.9134   -7.4906    7.4117 H         1 MOL     0.0394
     49 H          -3.9560   -5.7026    5.1902 H         1 MOL     0.0273
     50 H          -2.6105   -5.1067    5.5409 H         1 MOL     0.0273
     51 H          -5.2114   -5.0443    7.2863 H         1 MOL     0.0273
     52 H          -4.0791   -4.3326    8.0022 H         1 MOL     0.0273
     53 H           0.3161  -12.4597   10.3071 H         1 MOL     0.0646
     54 H           2.6127  -13.1628   10.1007 H         1 MOL     0.0621
     55 H           4.7256  -15.7102   11.1703 H         1 MOL     0.1921
@<TRIPOS>BOND
     1    1   18 1 
     2    1   21 1 
     3    1   17 am
     4    2   20 1 
     5    2   22 am
     6    2   19 1 
     7    3    4 ar
     8    3   12 ar
     9    4   55 1 
    10    4    5 ar
    11    5    6 ar
    12    5   29 2 
    13    6    7 ar
    14    6   11 ar
    15    7    8 ar
    16    7   33 1 
    17    8    9 ar
    18    8   34 1 
    19    9   10 ar
    20    9   35 1 
    21   10   11 ar
    22   10   36 1 
    23   11   12 ar
    24   12   13 1 
    25   13   14 1 
    26   13   37 1 
    27   13   38 1 
    28   14   15 ar
    29   14   28 ar
    30   15   16 ar
    31   15   39 1 
    32   16   17 1 
    33   16   26 ar
    34   17   31 2 
    35   18   19 1 
    36   18   40 1 
    37   18   41 1 
    38   19   42 1 
    39   19   43 1 
    40   20   21 1 
    41   20   44 1 
    42   20   45 1 
    43   21   46 1 
    44   21   47 1 
    45   22   23 1 
    46   22   30 2 
    47   23   24 1 
    48   23   25 1 
    49   23   48 1 
    50   24   25 1 
    51   24   49 1 
    52   24   50 1 
    53   25   51 1 
    54   25   52 1 
    55   26   27 ar
    56   26   32 1 
    57   27   28 ar
    58   27   53 1 
    59   28   54 1 
@<TRIPOS>SUBSTRUCTURE
1 MOL         1
@<TRIPOS>MOLECULE
query molecule
   55    59     1     0     0
SMALL
NO_CHARGE

@<TRIPOS>ATOM
      1 N          34.3482    7.7612   36.1436 N.am      1 MOL    -0.2945
      2 N          32.8073    6.7364   34.3204 N.am      1 MOL    -0.2983
      3 N          41.6724    9.9910   35.7350 N.ar      1 MOL    -0.1750
      4 N          42.7029   10.7232   35.3875 N.ar      1 MOL    -0.2425
      5 C          43.0205   11.8780   35.9893 C.ar      1 MOL     0.2725
      6 C          42.2284   12.3255   37.0266 C.ar      1 MOL     0.0496
      7 C          42.5022   13.5308   37.6743 C.ar      1 MOL     0.0138
      8 C          41.6847   13.9686   38.6939 C.ar      1 MOL     0.0008
      9 C          40.6117   13.1674   39.0229 C.ar      1 MOL     0.0007
     10 C          40.3279   11.9695   38.3885 C.ar      1 MOL     0.0103
     11 C          41.1446   11.5441   37.3826 C.ar      1 MOL     0.0106
     12 C          40.8397   10.3665   36.7542 C.ar      1 MOL     0.0736
     13 C          39.7714    9.4319   37.0834 C.3       1 MOL     0.0925
     14 C          38.5653    9.7017   36.2529 C.ar      1 MOL    -0.0406
     15 C          37.3463    9.2531   36.7918 C.ar      1 MOL     0.0196
     16 C          36.1781    9.4468   36.0941 C.ar      1 MOL     0.0723
     17 C          34.8798    8.9830   36.6331 C.2       1 MOL     0.2495
     18 C          33.1011    7.2789   36.6428 C.3       1 MOL     0.1268
     19 C          32.3789    6.3921   35.6513 C.3       1 MOL     0.1265
     20 C          34.2263    6.5374   34.0060 C.3       1 MOL     0.1265
     21 C          35.0926    7.0251   35.1387 C.3       1 MOL     0.1268
     22 C          31.9296    7.2398   33.3559 C.2       1 MOL     0.2187
     23 C          30.4980    7.5059   33.5202 C.3       1 MOL     0.0752
     24 C          29.5804    6.3093   33.4105 C.3       1 MOL     0.0134
     25 C          29.5545    7.3516   32.3820 C.3       1 MOL     0.0134
     26 C          36.1254   10.0693   34.8695 C.ar      1 MOL     0.1355
     27 C          37.3192   10.5080   34.3430 C.ar      1 MOL     0.0392
     28 C          38.5131   10.3111   35.0517 C.ar      1 MOL     0.0066
     29 O          44.0050   12.5932   35.6713 O.2       1 MOL    -0.2658
     30 O          32.4092    7.5045   32.1961 O.2       1 MOL    -0.2753
     31 O          34.2459    9.6303   37.4980 O.2       1 MOL    -0.2699
     32 F          34.9393   10.2372   34.2155 F         1 MOL    -0.2047
     33 H          43.3183   14.0949   37.3903 H         1 MOL     0.0625
     34 H          41.8669   14.8553   39.1877 H         1 MOL     0.0618
     35 H          39.9864   13.4774   39.7825 H         1 MOL     0.0618
     36 H          39.5108   11.4064   38.6724 H         1 MOL     0.0624
     37 H          39.5176    9.5370   38.1176 H         1 MOL     0.0377
     38 H          40.1101    8.4364   36.8844 H         1 MOL     0.0377
     39 H          37.3289    8.7795   37.7083 H         1 MOL     0.0629
     40 H          32.4764    8.1175   36.8712 H         1 MOL     0.0480
     41 H          33.3071    6.6904   37.5130 H         1 MOL     0.0480
     42 H          31.3232    6.5405   35.7391 H         1 MOL     0.0480
     43 H          32.6051    5.3654   35.8514 H         1 MOL     0.0480
     44 H          34.4703    7.0814   33.1177 H         1 MOL     0.0480
     45 H          34.4056    5.4926   33.8603 H         1 MOL     0.0480
     46 H          35.8495    7.6668   34.7381 H         1 MOL     0.0480
     47 H          35.5110    6.1648   35.6161 H         1 MOL     0.0480
     48 H          30.6907    8.2948   34.2166 H         1 MOL     0.0394
     49 H          28.7569    6.2027   34.0856 H         1 MOL     0.0273
     50 H          29.7169    5.2480   33.4109 H         1 MOL     0.0273
     51 H          28.7060    7.9989   32.3040 H         1 MOL     0.0273
     52 H          29.6609    7.3530   31.3181 H         1 MOL     0.0273
     53 H          37.3351   10.9824   33.4260 H         1 MOL     0.0646
     54 H          39.3944   10.6494   34.6341 H         1 MOL     0.0621
     55 H          43.2721   10.4086   34.6480 H         1 MOL     0.1921
@<TRIPOS>BOND
     1    1   18 1 
     2    1   21 1 
     3    1   17 am
     4    2   20 1 
     5    2   22 am
     6    2   19 1 
     7    3    4 ar
     8    3   12 ar
     9    4   55 1 
    10    4    5 ar
    11    5    6 ar
    12    5   29 2 
    13    6    7 ar
    14    6   11 ar
    15    7    8 ar
    16    7   33 1 
    17    8    9 ar
    18    8   34 1 
    19    9   10 ar
    20    9   35 1 
    21   10   11 ar
    22   10   36 1 
    23   11   12 ar
    24   12   13 1 
    25   13   14 1 
    26   13   37 1 
    27   13   38 1 
    28   14   15 ar
    29   14   28 ar
    30   15   16 ar
    31   15   39 1 
    32   16   17 1 
    33   16   26 ar
    34   17   31 2 
    35   18   19 1 
    36   18   40 1 
    37   18   41 1 
    38   19   42 1 
    39   19   43 1 
    40   20   21 1 
    41   20   44 1 
    42   20   45 1 
    43   21   46 1 
    44   21   47 1 
    45   22   23 1 
    46   22   30 2 
    47   23   24 1 
    48   23   25 1 
    49   23   48 1 
    50   24   25 1 
    51   24   49 1 
    52   24   50 1 
    53   25   51 1 
    54   25   52 1 
    55   26   27 ar
    56   26   32 1 
    57   27   28 ar
    58   27   53 1 
    59   28   54 1 
@<TRIPOS>SUBSTRUCTURE
1 MOL         1
@<TRIPOS>MOLECULE
query molecule
   55    59     1     0     0
SMALL
NO_CHARGE

@<TRIPOS>ATOM
      1 N          50.9692   -3.2052   30.7837 N.am      1 MOL    -0.2945
      2 N          48.7346   -3.0722   32.1018 N.am      1 MOL    -0.2983
      3 N          52.3145  -10.9476   30.9607 N.ar      1 MOL    -0.1750
      4 N          52.6794  -12.0160   30.2944 N.ar      1 MOL    -0.2425
      5 C          53.0550  -11.9874   29.0080 C.ar      1 MOL     0.2725
      6 C          53.0602  -10.7774   28.3450 C.ar      1 MOL     0.0496
      7 C          53.4231  -10.6941   27.0002 C.ar      1 MOL     0.0138
      8 C          53.4003   -9.4778   26.3524 C.ar      1 MOL     0.0008
      9 C          53.0073   -8.3826   27.0922 C.ar      1 MOL     0.0007
     10 C          52.6442   -8.4507   28.4269 C.ar      1 MOL     0.0103
     11 C          52.6727   -9.6587   29.0592 C.ar      1 MOL     0.0106
     12 C          52.2940   -9.7113   30.3739 C.ar      1 MOL     0.0736
     13 C          51.9331   -8.5982   31.2421 C.3       1 MOL     0.0925
     14 C          52.6718   -7.3665   30.8489 C.ar      1 MOL    -0.0406
     15 C          51.8702   -6.2630   30.5062 C.ar      1 MOL     0.0196
     16 C          52.4602   -5.0835   30.1195 C.ar      1 MOL     0.0723
     17 C          51.6437   -3.9055   29.7495 C.2       1 MOL     0.2495
     18 C          50.1763   -2.0616   30.4665 C.3       1 MOL     0.1268
     19 C          49.0691   -1.8222   31.4704 C.3       1 MOL     0.1265
     20 C          49.7890   -3.7246   32.8858 C.3       1 MOL     0.1265
     21 C          51.1037   -3.6730   32.1507 C.3       1 MOL     0.1268
     22 C          47.4702   -3.6571   31.9861 C.2       1 MOL     0.2187
     23 C          46.3253   -3.1393   31.2323 C.3       1 MOL     0.0752
     24 C          45.7855   -1.7988   31.6769 C.3       1 MOL     0.0134
     25 C          44.9861   -3.0116   31.8647 C.3       1 MOL     0.0134
     26 C          53.8220   -4.9102   30.0456 C.ar      1 MOL     0.1355
     27 C          54.6056   -5.9910   30.3812 C.ar      1 MOL     0.0392
     28 C          54.0069   -7.1963   30.7752 C.ar      1 MOL     0.0066
     29 O          53.4094  -13.0007   28.3526 O.2       1 MOL    -0.2658
     30 O          47.2705   -4.7671   32.5971 O.2       1 MOL    -0.2753
     31 O          51.5335   -3.5147   28.5646 O.2       1 MOL    -0.2699
     32 F          54.3599   -3.7182   29.6549 F         1 MOL    -0.2047
     33 H          53.7096  -11.5441   26.4899 H         1 MOL     0.0625
     34 H          53.6645   -9.3910   25.3595 H         1 MOL     0.0618
     35 H          52.9820   -7.4627   26.6260 H         1 MOL     0.0618
     36 H          52.3566   -7.6004   28.9363 H         1 MOL     0.0624
     37 H          52.1768   -8.8471   32.2538 H         1 MOL     0.0377
     38 H          50.8830   -8.4138   31.1486 H         1 MOL     0.0377
     39 H          50.8419   -6.3388   30.5445 H         1 MOL     0.0629
     40 H          49.7382   -2.2058   29.5007 H         1 MOL     0.0480
     41 H          50.8203   -1.2066   30.4851 H         1 MOL     0.0480
     42 H          48.2088   -1.4304   30.9698 H         1 MOL     0.0480
     43 H          49.3946   -1.1184   32.2081 H         1 MOL     0.0480
     44 H          49.5213   -4.7464   33.0555 H         1 MOL     0.0480
     45 H          49.8953   -3.2109   33.8184 H         1 MOL     0.0480
     46 H          51.5246   -4.6567   32.1338 H         1 MOL     0.0480
     47 H          51.7326   -2.9789   32.6664 H         1 MOL     0.0480
     48 H          46.6736   -3.5921   30.3278 H         1 MOL     0.0394
     49 H          45.4921   -1.0717   30.9485 H         1 MOL     0.0273
     50 H          46.1362   -1.0156   32.3162 H         1 MOL     0.0273
     51 H          44.1047   -3.1623   31.2770 H         1 MOL     0.0273
     52 H          44.5107   -3.4692   32.7060 H         1 MOL     0.0273
     53 H          55.6346   -5.9137   30.3429 H         1 MOL     0.0646
     54 H          54.6175   -7.9914   31.0212 H         1 MOL     0.0621
     55 H          52.6781  -12.8824   30.7626 H         1 MOL     0.1921
@<TRIPOS>BOND
     1    1   18 1 
     2    1   21 1 
     3    1   17 am
     4    2   20 1 
     5    2   22 am
     6    2   19 1 
     7    3    4 ar
     8    3   12 ar
     9    4   55 1 
    10    4    5 ar
    11    5    6 ar
    12    5   29 2 
    13    6    7 ar
    14    6   11 ar
    15    7    8 ar
    16    7   33 1 
    17    8    9 ar
    18    8   34 1 
    19    9   10 ar
    20    9   35 1 
    21   10   11 ar
    22   10   36 1 
    23   11   12 ar
    24   12   13 1 
    25   13   14 1 
    26   13   37 1 
    27   13   38 1 
    28   14   15 ar
    29   14   28 ar
    30   15   16 ar
    31   15   39 1 
    32   16   17 1 
    33   16   26 ar
    34   17   31 2 
    35   18   19 1 
    36   18   40 1 
    37   18   41 1 
    38   19   42 1 
    39   19   43 1 
    40   20   21 1 
    41   20   44 1 
    42   20   45 1 
    43   21   46 1 
    44   21   47 1 
    45   22   23 1 
    46   22   30 2 
    47   23   24 1 
    48   23   25 1 
    49   23   48 1 
    50   24   25 1 
    51   24   49 1 
    52   24   50 1 
    53   25   51 1 
    54   25   52 1 
    55   26   27 ar
    56   26   32 1 
    57   27   28 ar
    58   27   53 1 
    59   28   54 1 
@<TRIPOS>SUBSTRUCTURE
1 MOL         1
@<TRIPOS>MOLECULE
query molecule
   55    59     1     0     0
SMALL
NO_CHARGE

@<TRIPOS>ATOM
      1 N          52.4774    1.8243    9.7296 N.am      1 MOL    -0.2945
      2 N          51.6925   -0.5890    9.1743 N.am      1 MOL    -0.2983
      3 N          53.1558    5.3967    3.0514 N.ar      1 MOL    -0.1750
      4 N          52.8122    6.4241    2.3131 N.ar      1 MOL    -0.2425
      5 C          51.5604    6.8996    2.2521 C.ar      1 MOL     0.2725
      6 C          50.5790    6.2824    3.0001 C.ar      1 MOL     0.0496
      7 C          49.2560    6.7242    2.9581 C.ar      1 MOL     0.0138
      8 C          48.2882    6.0789    3.6973 C.ar      1 MOL     0.0008
      9 C          48.6954    5.0021    4.4562 C.ar      1 MOL     0.0007
     10 C          50.0043    4.5527    4.5071 C.ar      1 MOL     0.0103
     11 C          50.9548    5.1998    3.7739 C.ar      1 MOL     0.0106
     12 C          52.2406    4.7319    3.8218 C.ar      1 MOL     0.0736
     13 C          52.7645    3.6500    4.6453 C.3       1 MOL     0.0925
     14 C          53.1328    4.1525    5.9977 C.ar      1 MOL    -0.0406
     15 C          52.5309    3.4821    7.0775 C.ar      1 MOL     0.0196
     16 C          52.8006    3.8800    8.3650 C.ar      1 MOL     0.0723
     17 C          52.1800    3.1967    9.5223 C.2       1 MOL     0.2495
     18 C          51.9018    1.1326   10.8374 C.3       1 MOL     0.1268
     19 C          51.7713   -0.3554   10.5929 C.3       1 MOL     0.1265
     20 C          52.8554   -0.1982    8.3701 C.3       1 MOL     0.1265
     21 C          53.3678    1.1517    8.8019 C.3       1 MOL     0.1268
     22 C          50.5692   -1.1597    8.5687 C.2       1 MOL     0.2187
     23 C          49.3331   -1.5866    9.2296 C.3       1 MOL     0.0752
     24 C          48.3967   -2.4407    8.4050 C.3       1 MOL     0.0134
     25 C          48.0098   -1.0791    8.7812 C.3       1 MOL     0.0134
     26 C          53.6457    4.9201    8.6716 C.ar      1 MOL     0.1355
     27 C          54.2344    5.5755    7.6139 C.ar      1 MOL     0.0392
     28 C          53.9605    5.1729    6.2989 C.ar      1 MOL     0.0066
     29 O          51.2119    7.8841    1.5513 O.2       1 MOL    -0.2658
     30 O          50.6038   -1.3363    7.2987 O.2       1 MOL    -0.2753
     31 O          51.4101    3.7886   10.3133 O.2       1 MOL    -0.2699
     32 F          53.8809    5.2776    9.9676 F         1 MOL    -0.2047
     33 H          49.0018    7.5355    2.3732 H         1 MOL     0.0625
     34 H          47.3043    6.3871    3.6829 H         1 MOL     0.0618
     35 H          47.9864    4.5041    5.0161 H         1 MOL     0.0618
     36 H          50.2577    3.7404    5.0914 H         1 MOL     0.0624
     37 H          53.6324    3.2375    4.1745 H         1 MOL     0.0377
     38 H          52.0088    2.8997    4.7514 H         1 MOL     0.0377
     39 H          51.8881    2.6940    6.9036 H         1 MOL     0.0629
     40 H          50.9282    1.5360   11.0246 H         1 MOL     0.0480
     41 H          52.5534    1.2667   11.6761 H         1 MOL     0.0480
     42 H          50.8853   -0.7212   11.0676 H         1 MOL     0.0480
     43 H          52.6206   -0.8652   10.9983 H         1 MOL     0.0480
     44 H          52.5725   -0.1532    7.3394 H         1 MOL     0.0480
     45 H          53.6315   -0.9217    8.5088 H         1 MOL     0.0480
     46 H          53.4829    1.7672    7.9341 H         1 MOL     0.0480
     47 H          54.2976    0.9958    9.3063 H         1 MOL     0.0480
     48 H          49.8198   -1.6370   10.1808 H         1 MOL     0.0394
     49 H          47.9046   -3.2797    8.8514 H         1 MOL     0.0273
     50 H          48.4764   -2.9788    7.4836 H         1 MOL     0.0273
     51 H          47.2286   -0.9281    9.4967 H         1 MOL     0.0273
     52 H          47.6856   -0.2180    8.2365 H         1 MOL     0.0273
     53 H          54.8779    6.3638    7.7894 H         1 MOL     0.0646
     54 H          54.4148    5.6816    5.5241 H         1 MOL     0.0621
     55 H          53.5086    6.8688    1.7773 H         1 MOL     0.1921
@<TRIPOS>BOND
     1    1   18 1 
     2    1   21 1 
     3    1   17 am
     4    2   20 1 
     5    2   22 am
     6    2   19 1 
     7    3    4 ar
     8    3   12 ar
     9    4   55 1 
    10    4    5 ar
    11    5    6 ar
    12    5   29 2 
    13    6    7 ar
    14    6   11 ar
    15    7    8 ar
    16    7   33 1 
    17    8    9 ar
    18    8   34 1 
    19    9   10 ar
    20    9   35 1 
    21   10   11 ar
    22   10   36 1 
    23   11   12 ar
    24   12   13 1 
    25   13   14 1 
    26   13   37 1 
    27   13   38 1 
    28   14   15 ar
    29   14   28 ar
    30   15   16 ar
    31   15   39 1 
    32   16   17 1 
    33   16   26 ar
    34   17   31 2 
    35   18   19 1 
    36   18   40 1 
    37   18   41 1 
    38   19   42 1 
    39   19   43 1 
    40   20   21 1 
    41   20   44 1 
    42   20   45 1 
    43   21   46 1 
    44   21   47 1 
    45   22   23 1 
    46   22   30 2 
    47   23   24 1 
    48   23   25 1 
    49   23   48 1 
    50   24   25 1 
    51   24   49 1 
    52   24   50 1 
    53   25   51 1 
    54   25   52 1 
    55   26   27 ar
    56   26   32 1 
    57   27   28 ar
    58   27   53 1 
    59   28   54 1 
@<TRIPOS>SUBSTRUCTURE
1 MOL         1
@<TRIPOS>MOLECULE
query molecule
   55    59     1     0     0
SMALL
NO_CHARGE

@<TRIPOS>ATOM
      1 N           5.4898  -14.9813    5.9569 N.am      1 MOL    -0.2945
      2 N           5.8159  -15.2070    3.3896 N.am      1 MOL    -0.2983
      3 N           5.6252  -10.2631    4.4307 N.ar      1 MOL    -0.1750
      4 N           6.7656   -9.9579    3.8607 N.ar      1 MOL    -0.2425
      5 C           7.4154   -8.8073    4.0859 C.ar      1 MOL     0.2725
      6 C           6.8629   -7.8933    4.9594 C.ar      1 MOL     0.0496
      7 C           7.4873   -6.6717    5.2143 C.ar      1 MOL     0.0138
      8 C           6.9062   -5.7648    6.0743 C.ar      1 MOL     0.0008
      9 C           5.7060   -6.1276    6.6480 C.ar      1 MOL     0.0007
     10 C           5.0751   -7.3360    6.4038 C.ar      1 MOL     0.0103
     11 C           5.6598   -8.2274    5.5533 C.ar      1 MOL     0.0106
     12 C           5.0142   -9.4098    5.3093 C.ar      1 MOL     0.0736
     13 C           3.7855   -9.8969    5.9227 C.3       1 MOL     0.0925
     14 C           4.0892  -10.9123    6.9686 C.ar      1 MOL    -0.0406
     15 C           4.1781  -12.2406    6.5154 C.ar      1 MOL     0.0196
     16 C           4.4446  -13.2510    7.4081 C.ar      1 MOL     0.0723
     17 C           4.5410  -14.6593    6.9624 C.2       1 MOL     0.2495
     18 C           5.6153  -16.3292    5.5048 C.3       1 MOL     0.1268
     19 C           6.1401  -16.4235    4.0882 C.3       1 MOL     0.1265
     20 C           6.4060  -13.9666    3.9045 C.3       1 MOL     0.1265
     21 C           6.3169  -13.9227    5.4083 C.3       1 MOL     0.1268
     22 C           4.9785  -15.1844    2.2704 C.2       1 MOL     0.2187
     23 C           4.3065  -16.3288    1.6493 C.3       1 MOL     0.0752
     24 C           2.9306  -16.6627    2.1801 C.3       1 MOL     0.0134
     25 C           4.0509  -17.5761    2.4166 C.3       1 MOL     0.0134
     26 C           4.6356  -13.0384    8.7528 C.ar      1 MOL     0.1355
     27 C           4.5482  -11.7378    9.1953 C.ar      1 MOL     0.0392
     28 C           4.2755  -10.7046    8.2873 C.ar      1 MOL     0.0066
     29 O           8.5102   -8.4974    3.5499 O.2       1 MOL    -0.2658
     30 O           4.7617  -14.0496    1.7130 O.2       1 MOL    -0.2753
     31 O           3.8181  -15.5627    7.4421 O.2       1 MOL    -0.2699
     32 F           4.8973  -14.0762    9.5996 F         1 MOL    -0.2047
     33 H           8.3857   -6.4470    4.7590 H         1 MOL     0.0625
     34 H           7.3487   -4.8562    6.2787 H         1 MOL     0.0618
     35 H           5.2535   -5.4627    7.2939 H         1 MOL     0.0618
     36 H           4.1760   -7.5596    6.8587 H         1 MOL     0.0624
     37 H           3.1678  -10.3405    5.1699 H         1 MOL     0.0377
     38 H           3.2780   -9.0732    6.3803 H         1 MOL     0.0377
     39 H           4.0433  -12.4561    5.5154 H         1 MOL     0.0629
     40 H           4.6526  -16.7951    5.5455 H         1 MOL     0.0480
     41 H           6.3197  -16.8203    6.1441 H         1 MOL     0.0480
     42 H           5.6867  -17.2554    3.5917 H         1 MOL     0.0480
     43 H           7.2013  -16.5618    4.1033 H         1 MOL     0.0480
     44 H           5.8791  -13.1295    3.4968 H         1 MOL     0.0480
     45 H           7.4366  -13.9288    3.6192 H         1 MOL     0.0480
     46 H           5.9005  -12.9806    5.6985 H         1 MOL     0.0480
     47 H           7.3056  -14.0570    5.7924 H         1 MOL     0.0480
     48 H           4.7622  -16.1253    0.7031 H         1 MOL     0.0394
     49 H           2.1485  -16.9387    1.5038 H         1 MOL     0.0273
     50 H           2.2165  -16.1625    2.8005 H         1 MOL     0.0273
     51 H           4.0787  -18.5220    1.9171 H         1 MOL     0.0273
     52 H           4.4823  -18.0176    3.2897 H         1 MOL     0.0273
     53 H           4.6839  -11.5234   10.1962 H         1 MOL     0.0646
     54 H           4.2149   -9.7383    8.6455 H         1 MOL     0.0621
     55 H           7.1649  -10.6066    3.2365 H         1 MOL     0.1921
@<TRIPOS>BOND
     1    1   18 1 
     2    1   21 1 
     3    1   17 am
     4    2   20 1 
     5    2   22 am
     6    2   19 1 
     7    3    4 ar
     8    3   12 ar
     9    4   55 1 
    10    4    5 ar
    11    5    6 ar
    12    5   29 2 
    13    6    7 ar
    14    6   11 ar
    15    7    8 ar
    16    7   33 1 
    17    8    9 ar
    18    8   34 1 
    19    9   10 ar
    20    9   35 1 
    21   10   11 ar
    22   10   36 1 
    23   11   12 ar
    24   12   13 1 
    25   13   14 1 
    26   13   37 1 
    27   13   38 1 
    28   14   15 ar
    29   14   28 ar
    30   15   16 ar
    31   15   39 1 
    32   16   17 1 
    33   16   26 ar
    34   17   31 2 
    35   18   19 1 
    36   18   40 1 
    37   18   41 1 
    38   19   42 1 
    39   19   43 1 
    40   20   21 1 
    41   20   44 1 
    42   20   45 1 
    43   21   46 1 
    44   21   47 1 
    45   22   23 1 
    46   22   30 2 
    47   23   24 1 
    48   23   25 1 
    49   23   48 1 
    50   24   25 1 
    51   24   49 1 
    52   24   50 1 
    53   25   51 1 
    54   25   52 1 
    55   26   27 ar
    56   26   32 1 
    57   27   28 ar
    58   27   53 1 
    59   28   54 1 
@<TRIPOS>SUBSTRUCTURE
1 MOL         1
@<TRIPOS>MOLECULE
query molecule
   55    59     1     0     0
SMALL
NO_CHARGE

@<TRIPOS>ATOM
      1 N          12.5633    6.0960    2.8865 N.am      1 MOL    -0.2945
      2 N          10.6398    5.1316    1.4310 N.am      1 MOL    -0.2983
      3 N          16.6965    5.2062    0.4271 N.ar      1 MOL    -0.1750
      4 N          16.3724    3.9364    0.4620 N.ar      1 MOL    -0.2425
      5 C          16.6646    3.1312    1.4931 C.ar      1 MOL     0.2725
      6 C          17.3402    3.6572    2.5750 C.ar      1 MOL     0.0496
      7 C          17.6869    2.8589    3.6657 C.ar      1 MOL     0.0138
      8 C          18.3807    3.4010    4.7260 C.ar      1 MOL     0.0008
      9 C          18.7024    4.7392    4.6440 C.ar      1 MOL     0.0007
     10 C          18.3653    5.5431    3.5679 C.ar      1 MOL     0.0103
     11 C          17.6765    4.9975    2.5250 C.ar      1 MOL     0.0106
     12 C          17.3664    5.8018    1.4613 C.ar      1 MOL     0.0736
     13 C          17.6077    7.2324    1.3263 C.3       1 MOL     0.0925
     14 C          16.3516    7.9991    1.5540 C.ar      1 MOL    -0.0406
     15 C          15.3732    7.3441    2.3230 C.ar      1 MOL     0.0196
     16 C          14.1751    7.9668    2.5790 C.ar      1 MOL     0.0723
     17 C          13.1242    7.3021    3.3822 C.2       1 MOL     0.2495
     18 C          11.5511    5.4236    3.6351 C.3       1 MOL     0.1268
     19 C          10.6393    4.5867    2.7637 C.3       1 MOL     0.1265
     20 C          11.9183    5.1289    0.7117 C.3       1 MOL     0.1265
     21 C          13.0371    5.5710    1.6194 C.3       1 MOL     0.1268
     22 C           9.4874    5.6463    0.8299 C.2       1 MOL     0.2187
     23 C           8.1488    5.7317    1.4199 C.3       1 MOL     0.0752
     24 C           7.4835    7.0886    1.3701 C.3       1 MOL     0.0134
     25 C           7.9046    6.5234    2.6540 C.3       1 MOL     0.0134
     26 C          13.8652    9.2244    2.1183 C.ar      1 MOL     0.1355
     27 C          14.8236    9.8646    1.3656 C.ar      1 MOL     0.0392
     28 C          16.0468    9.2317    1.1017 C.ar      1 MOL     0.0066
     29 O          16.3611    1.9118    1.5455 O.2       1 MOL    -0.2658
     30 O           9.5919    6.0980   -0.3660 O.2       1 MOL    -0.2753
     31 O          12.7219    7.7683    4.4729 O.2       1 MOL    -0.2699
     32 F          12.6601    9.8001    2.3993 F         1 MOL    -0.2047
     33 H          17.4229    1.8613    3.6790 H         1 MOL     0.0625
     34 H          18.6474    2.8314    5.5431 H         1 MOL     0.0618
     35 H          19.2229    5.1645    5.4266 H         1 MOL     0.0618
     36 H          18.6306    6.5405    3.5548 H         1 MOL     0.0624
     37 H          17.9714    7.4369    0.3410 H         1 MOL     0.0377
     38 H          18.3300    7.5313    2.0573 H         1 MOL     0.0377
     39 H          15.5543    6.3984    2.6938 H         1 MOL     0.0629
     40 H          10.9603    6.1551    4.1463 H         1 MOL     0.0480
     41 H          12.0411    4.7622    4.3196 H         1 MOL     0.0480
     42 H           9.6460    4.6064    3.1602 H         1 MOL     0.0480
     43 H          10.9868    3.5746    2.7424 H         1 MOL     0.0480
     44 H          11.8561    5.7980   -0.1208 H         1 MOL     0.0480
     45 H          12.1225    4.1349    0.3720 H         1 MOL     0.0480
     46 H          13.5982    6.3352    1.1230 H         1 MOL     0.0480
     47 H          13.6360    4.7114    1.8327 H         1 MOL     0.0480
     48 H           7.9212    4.7272    1.1310 H         1 MOL     0.0394
     49 H           6.4424    7.1658    1.1349 H         1 MOL     0.0273
     50 H           7.6686    8.0038    0.8476 H         1 MOL     0.0273
     51 H           7.1672    6.1969    3.3573 H         1 MOL     0.0273
     52 H           8.5236    6.8691    3.4544 H         1 MOL     0.0273
     53 H          14.6414   10.8113    0.9956 H         1 MOL     0.0646
     54 H          16.7480    9.7338    0.5343 H         1 MOL     0.0621
     55 H          15.8897    3.5555   -0.3073 H         1 MOL     0.1921
@<TRIPOS>BOND
     1    1   18 1 
     2    1   21 1 
     3    1   17 am
     4    2   20 1 
     5    2   22 am
     6    2   19 1 
     7    3    4 ar
     8    3   12 ar
     9    4   55 1 
    10    4    5 ar
    11    5    6 ar
    12    5   29 2 
    13    6    7 ar
    14    6   11 ar
    15    7    8 ar
    16    7   33 1 
    17    8    9 ar
    18    8   34 1 
    19    9   10 ar
    20    9   35 1 
    21   10   11 ar
    22   10   36 1 
    23   11   12 ar
    24   12   13 1 
    25   13   14 1 
    26   13   37 1 
    27   13   38 1 
    28   14   15 ar
    29   14   28 ar
    30   15   16 ar
    31   15   39 1 
    32   16   17 1 
    33   16   26 ar
    34   17   31 2 
    35   18   19 1 
    36   18   40 1 
    37   18   41 1 
    38   19   42 1 
    39   19   43 1 
    40   20   21 1 
    41   20   44 1 
    42   20   45 1 
    43   21   46 1 
    44   21   47 1 
    45   22   23 1 
    46   22   30 2 
    47   23   24 1 
    48   23   25 1 
    49   23   48 1 
    50   24   25 1 
    51   24   49 1 
    52   24   50 1 
    53   25   51 1 
    54   25   52 1 
    55   26   27 ar
    56   26   32 1 
    57   27   28 ar
    58   27   53 1 
    59   28   54 1 
@<TRIPOS>SUBSTRUCTURE
1 MOL         1
@<TRIPOS>MOLECULE
query molecule
   55    59     1     0     0
SMALL
NO_CHARGE

@<TRIPOS>ATOM
      1 N          39.0187   -4.4174   37.2907 N.am      1 MOL    -0.2945
      2 N          36.8525   -4.8955   35.9388 N.am      1 MOL    -0.2983
      3 N          45.1876   -4.8296   37.3191 N.ar      1 MOL    -0.1750
      4 N          45.4305   -5.7884   38.1795 N.ar      1 MOL    -0.2425
      5 C          44.7468   -6.9411   38.2080 C.ar      1 MOL     0.2725
      6 C          43.7356   -7.1357   37.2897 C.ar      1 MOL     0.0496
      7 C          42.9796   -8.3085   37.2880 C.ar      1 MOL     0.0138
      8 C          41.9602   -8.4722   36.3750 C.ar      1 MOL     0.0008
      9 C          41.7395   -7.4366   35.4918 C.ar      1 MOL     0.0007
     10 C          42.4816   -6.2673   35.4823 C.ar      1 MOL     0.0103
     11 C          43.4897   -6.1165   36.3883 C.ar      1 MOL     0.0106
     12 C          44.2020   -4.9473   36.3768 C.ar      1 MOL     0.0736
     13 C          44.0791   -3.8386   35.4393 C.3       1 MOL     0.0925
     14 C          42.9606   -2.9391   35.8357 C.ar      1 MOL    -0.0406
     15 C          41.9573   -3.5313   36.6234 C.ar      1 MOL     0.0196
     16 C          40.8781   -2.7842   37.0307 C.ar      1 MOL     0.0723
     17 C          39.8041   -3.3797   37.8574 C.2       1 MOL     0.2495
     18 C          37.9772   -5.0195   38.0586 C.3       1 MOL     0.1268
     19 C          36.8747   -5.5960   37.1966 C.3       1 MOL     0.1265
     20 C          38.0505   -4.9991   35.0985 C.3       1 MOL     0.1265
     21 C          39.2965   -4.8452   35.9322 C.3       1 MOL     0.1268
     22 C          35.7517   -4.1440   35.5173 C.2       1 MOL     0.2187
     23 C          34.4972   -3.9342   36.2448 C.3       1 MOL     0.0752
     24 C          34.5494   -4.1507   37.7403 C.3       1 MOL     0.0134
     25 C          33.7875   -5.0692   36.8913 C.3       1 MOL     0.0134
     26 C          40.7140   -1.4579   36.7080 C.ar      1 MOL     0.1355
     27 C          41.6967   -0.8794   35.9369 C.ar      1 MOL     0.0392
     28 C          42.7986   -1.6390   35.5188 C.ar      1 MOL     0.0066
     29 O          44.9657   -7.8725   39.0243 O.2       1 MOL    -0.2658
     30 O          35.8282   -3.5675   34.3741 O.2       1 MOL    -0.2753
     31 O          39.5728   -2.9982   39.0277 O.2       1 MOL    -0.2699
     32 F          39.6231   -0.7587   37.1366 F         1 MOL    -0.2047
     33 H          43.1842   -9.0548   37.9708 H         1 MOL     0.0625
     34 H          41.3882   -9.3299   36.3540 H         1 MOL     0.0618
     35 H          40.9803   -7.5382   34.8009 H         1 MOL     0.0618
     36 H          42.2756   -5.5209   34.7999 H         1 MOL     0.0624
     37 H          43.8899   -4.2251   34.4596 H         1 MOL     0.0377
     38 H          44.9904   -3.2776   35.4466 H         1 MOL     0.0377
     39 H          42.0310   -4.5241   36.8945 H         1 MOL     0.0629
     40 H          37.5551   -4.2776   38.7043 H         1 MOL     0.0480
     41 H          38.4097   -5.8266   38.6132 H         1 MOL     0.0480
     42 H          35.9333   -5.4781   37.6908 H         1 MOL     0.0480
     43 H          37.0529   -6.6379   37.0289 H         1 MOL     0.0480
     44 H          38.0277   -4.2298   34.3555 H         1 MOL     0.0480
     45 H          38.0645   -5.9622   34.6325 H         1 MOL     0.0480
     46 H          39.9297   -4.1173   35.4691 H         1 MOL     0.0480
     47 H          39.7658   -5.8043   35.9879 H         1 MOL     0.0480
     48 H          34.1936   -3.1650   35.5663 H         1 MOL     0.0394
     49 H          34.0369   -3.4785   38.3966 H         1 MOL     0.0273
     50 H          35.3313   -4.2586   38.4629 H         1 MOL     0.0273
     51 H          32.7184   -5.0703   36.9369 H         1 MOL     0.0273
     52 H          33.7886   -6.1289   36.7495 H         1 MOL     0.0273
     53 H          41.6219    0.1145   35.6668 H         1 MOL     0.0646
     54 H          43.5211   -1.1809   34.9411 H         1 MOL     0.0621
     55 H          46.1513   -5.6553   38.8372 H         1 MOL     0.1921
@<TRIPOS>BOND
     1    1   18 1 
     2    1   21 1 
     3    1   17 am
     4    2   20 1 
     5    2   22 am
     6    2   19 1 
     7    3    4 ar
     8    3   12 ar
     9    4   55 1 
    10    4    5 ar
    11    5    6 ar
    12    5   29 2 
    13    6    7 ar
    14    6   11 ar
    15    7    8 ar
    16    7   33 1 
    17    8    9 ar
    18    8   34 1 
    19    9   10 ar
    20    9   35 1 
    21   10   11 ar
    22   10   36 1 
    23   11   12 ar
    24   12   13 1 
    25   13   14 1 
    26   13   37 1 
    27   13   38 1 
    28   14   15 ar
    29   14   28 ar
    30   15   16 ar
    31   15   39 1 
    32   16   17 1 
    33   16   26 ar
    34   17   31 2 
    35   18   19 1 
    36   18   40 1 
    37   18   41 1 
    38   19   42 1 
    39   19   43 1 
    40   20   21 1 
    41   20   44 1 
    42   20   45 1 
    43   21   46 1 
    44   21   47 1 
    45   22   23 1 
    46   22   30 2 
    47   23   24 1 
    48   23   25 1 
    49   23   48 1 
    50   24   25 1 
    51   24   49 1 
    52   24   50 1 
    53   25   51 1 
    54   25   52 1 
    55   26   27 ar
    56   26   32 1 
    57   27   28 ar
    58   27   53 1 
    59   28   54 1 
@<TRIPOS>SUBSTRUCTURE
1 MOL         1
@<TRIPOS>MOLECULE
query molecule
   55    59     1     0     0
SMALL
NO_CHARGE

@<TRIPOS>ATOM
      1 N          32.4846    4.0658    0.2842 N.am      1 MOL    -0.2945
      2 N          31.4505    6.4452    0.1524 N.am      1 MOL    -0.2983
      3 N          29.2615    1.2478    6.8262 N.ar      1 MOL    -0.1750
      4 N          28.6109    0.2467    7.3675 N.ar      1 MOL    -0.2425
      5 C          28.0718   -0.7516    6.6536 C.ar      1 MOL     0.2725
      6 C          28.2036   -0.7317    5.2803 C.ar      1 MOL     0.0496
      7 C          27.6447   -1.7352    4.4881 C.ar      1 MOL     0.0138
      8 C          27.7706   -1.6834    3.1166 C.ar      1 MOL     0.0008
      9 C          28.4604   -0.6109    2.5920 C.ar      1 MOL     0.0007
     10 C          29.0198    0.3920    3.3660 C.ar      1 MOL     0.0103
     11 C          28.8917    0.3300    4.7223 C.ar      1 MOL     0.0106
     12 C          29.4355    1.3386    5.4716 C.ar      1 MOL     0.0736
     13 C          30.2334    2.4647    5.0043 C.3       1 MOL     0.0925
     14 C          31.3050    1.9996    4.0809 C.ar      1 MOL    -0.0406
     15 C          31.2565    2.5317    2.7800 C.ar      1 MOL     0.0196
     16 C          32.1973    2.1547    1.8518 C.ar      1 MOL     0.0723
     17 C          32.1708    2.6944    0.4737 C.2       1 MOL     0.2495
     18 C          32.4744    4.6213   -1.0304 C.3       1 MOL     0.1268
     19 C          32.1945    6.1089   -1.0335 C.3       1 MOL     0.1265
     20 C          32.1114    6.2115    1.4409 C.3       1 MOL     0.1265
     21 C          32.8115    4.8769    1.4422 C.3       1 MOL     0.1268
     22 C          30.1559    6.9705    0.1027 C.2       1 MOL     0.2187
     23 C          29.3619    7.2454   -1.0977 C.3       1 MOL     0.0752
     24 C          29.7014    8.5150   -1.8455 C.3       1 MOL     0.0134
     25 C          28.4199    8.3943   -1.1467 C.3       1 MOL     0.0134
     26 C          33.2107    1.2662    2.1232 C.ar      1 MOL     0.1355
     27 C          33.2572    0.7460    3.3968 C.ar      1 MOL     0.0392
     28 C          32.2983    1.1278    4.3460 C.ar      1 MOL     0.0066
     29 O          27.4456   -1.7205    7.1545 O.2       1 MOL    -0.2658
     30 O          29.5837    7.2476    1.2167 O.2       1 MOL    -0.2753
     31 O          31.8834    1.9836   -0.5167 O.2       1 MOL    -0.2699
     32 F          34.1210    0.9227    1.1661 F         1 MOL    -0.2047
     33 H          27.1368   -2.5177    4.9295 H         1 MOL     0.0625
     34 H          27.3667   -2.4133    2.5104 H         1 MOL     0.0618
     35 H          28.5650   -0.5523    1.5675 H         1 MOL     0.0618
     36 H          29.5266    1.1749    2.9238 H         1 MOL     0.0624
     37 H          30.6804    2.9527    5.8451 H         1 MOL     0.0377
     38 H          29.5964    3.1441    4.4771 H         1 MOL     0.0377
     39 H          30.5164    3.2032    2.5230 H         1 MOL     0.0629
     40 H          31.7171    4.1288   -1.6044 H         1 MOL     0.0480
     41 H          33.4478    4.4744   -1.4510 H         1 MOL     0.0480
     42 H          31.6239    6.3653   -1.9012 H         1 MOL     0.0480
     43 H          33.1171    6.6512   -1.0495 H         1 MOL     0.0480
     44 H          31.3789    6.2247    2.2206 H         1 MOL     0.0480
     45 H          32.8368    6.9813    1.6028 H         1 MOL     0.0480
     46 H          32.5257    4.3420    2.3239 H         1 MOL     0.0480
     47 H          33.8634    5.0663    1.4141 H         1 MOL     0.0480
     48 H          29.2643    6.2020   -1.3126 H         1 MOL     0.0394
     49 H          29.7299    8.5147   -2.9153 H         1 MOL     0.0273
     50 H          30.5133    9.2117   -1.8249 H         1 MOL     0.0273
     51 H          27.5138    8.3145   -1.7103 H         1 MOL     0.0273
     52 H          27.9154    8.9786   -0.4069 H         1 MOL     0.0273
     53 H          33.9987    0.0746    3.6529 H         1 MOL     0.0646
     54 H          32.3557    0.7225    5.2937 H         1 MOL     0.0621
     55 H          28.5139    0.2270    8.3473 H         1 MOL     0.1921
@<TRIPOS>BOND
     1    1   18 1 
     2    1   21 1 
     3    1   17 am
     4    2   20 1 
     5    2   22 am
     6    2   19 1 
     7    3    4 ar
     8    3   12 ar
     9    4   55 1 
    10    4    5 ar
    11    5    6 ar
    12    5   29 2 
    13    6    7 ar
    14    6   11 ar
    15    7    8 ar
    16    7   33 1 
    17    8    9 ar
    18    8   34 1 
    19    9   10 ar
    20    9   35 1 
    21   10   11 ar
    22   10   36 1 
    23   11   12 ar
    24   12   13 1 
    25   13   14 1 
    26   13   37 1 
    27   13   38 1 
    28   14   15 ar
    29   14   28 ar
    30   15   16 ar
    31   15   39 1 
    32   16   17 1 
    33   16   26 ar
    34   17   31 2 
    35   18   19 1 
    36   18   40 1 
    37   18   41 1 
    38   19   42 1 
    39   19   43 1 
    40   20   21 1 
    41   20   44 1 
    42   20   45 1 
    43   21   46 1 
    44   21   47 1 
    45   22   23 1 
    46   22   30 2 
    47   23   24 1 
    48   23   25 1 
    49   23   48 1 
    50   24   25 1 
    51   24   49 1 
    52   24   50 1 
    53   25   51 1 
    54   25   52 1 
    55   26   27 ar
    56   26   32 1 
    57   27   28 ar
    58   27   53 1 
    59   28   54 1 
@<TRIPOS>SUBSTRUCTURE
1 MOL         1
@<TRIPOS>MOLECULE
query molecule
   55    59     1     0     0
SMALL
NO_CHARGE

@<TRIPOS>ATOM
      1 N           3.8031  -13.0126    3.1995 N.am      1 MOL    -0.2945
      2 N           3.0852  -14.8141    1.4710 N.am      1 MOL    -0.2983
      3 N           0.4787   -6.8854    2.0707 N.ar      1 MOL    -0.1750
      4 N          -0.5966   -6.5099    2.7198 N.ar      1 MOL    -0.2425
      5 C          -1.7086   -7.2548    2.7932 C.ar      1 MOL     0.2725
      6 C          -1.7308   -8.4785    2.1563 C.ar      1 MOL     0.0496
      7 C          -2.8694   -9.2848    2.1841 C.ar      1 MOL     0.0138
      8 C          -2.8761  -10.4939    1.5227 C.ar      1 MOL     0.0008
      9 C          -1.7242  -10.8459    0.8514 C.ar      1 MOL     0.0007
     10 C          -0.5875  -10.0556    0.8151 C.ar      1 MOL     0.0103
     11 C          -0.5904   -8.8622    1.4750 C.ar      1 MOL     0.0106
     12 C           0.5353   -8.0852    1.4145 C.ar      1 MOL     0.0736
     13 C           1.8100   -8.4113    0.7886 C.3       1 MOL     0.0925
     14 C           2.8111   -8.8101    1.8162 C.ar      1 MOL    -0.0406
     15 C           2.6353  -10.0917    2.3677 C.ar      1 MOL     0.0196
     16 C           3.5032  -10.5458    3.3317 C.ar      1 MOL     0.0723
     17 C           3.3424  -11.8886    3.9339 C.2       1 MOL     0.2495
     18 C           3.6698  -14.3229    3.7493 C.3       1 MOL     0.1268
     19 C           3.5922  -15.3972    2.6859 C.3       1 MOL     0.1265
     20 C           3.8948  -13.7594    0.8510 C.3       1 MOL     0.1265
     21 C           4.4042  -12.8002    1.8959 C.3       1 MOL     0.1268
     22 C           1.8789  -15.2174    0.8909 C.2       1 MOL     0.2187
     23 C           0.9576  -16.2398    1.3940 C.3       1 MOL     0.0752
     24 C          -0.3795  -16.3347    0.6947 C.3       1 MOL     0.0134
     25 C          -0.3064  -15.8618    2.0789 C.3       1 MOL     0.0134
     26 C           4.5616   -9.8057    3.8028 C.ar      1 MOL     0.1355
     27 C           4.7327   -8.5513    3.2622 C.ar      1 MOL     0.0392
     28 C           3.8485   -8.0844    2.2791 C.ar      1 MOL     0.0066
     29 O          -2.7488   -6.9124    3.4117 O.2       1 MOL    -0.2658
     30 O           1.5217  -14.6425   -0.1986 O.2       1 MOL    -0.2753
     31 O           2.8184  -12.0578    5.0588 O.2       1 MOL    -0.2699
     32 F           5.3957  -10.3014    4.7626 F         1 MOL    -0.2047
     33 H          -3.7074   -8.9758    2.7010 H         1 MOL     0.0625
     34 H          -3.7051  -11.1071    1.5292 H         1 MOL     0.0618
     35 H          -1.7086  -11.7465    0.3486 H         1 MOL     0.0618
     36 H           0.2499  -10.3648    0.2970 H         1 MOL     0.0624
     37 H           2.1715   -7.5550    0.2584 H         1 MOL     0.0377
     38 H           1.6644   -9.2299    0.1147 H         1 MOL     0.0377
     39 H           1.8567  -10.6893    2.0498 H         1 MOL     0.0629
     40 H           2.7767  -14.3581    4.3380 H         1 MOL     0.0480
     41 H           4.5412  -14.5155    4.3406 H         1 MOL     0.0480
     42 H           2.9371  -16.1779    3.0110 H         1 MOL     0.0480
     43 H           4.5655  -15.8075    2.5132 H         1 MOL     0.0480
     44 H           3.2955  -13.2239    0.1449 H         1 MOL     0.0480
     45 H           4.7317  -14.2093    0.3590 H         1 MOL     0.0480
     46 H           4.1853  -11.8018    1.5790 H         1 MOL     0.0480
     47 H           5.4557  -12.9650    1.9973 H         1 MOL     0.0480
     48 H           1.7669  -16.8920    1.6470 H         1 MOL     0.0394
     49 H          -0.8034  -17.2932    0.4781 H         1 MOL     0.0273
     50 H          -0.7860  -15.9498   -0.2173 H         1 MOL     0.0273
     51 H          -0.6859  -16.4748    2.8697 H         1 MOL     0.0273
     52 H          -0.6473  -14.9849    2.5869 H         1 MOL     0.0273
     53 H           5.5128   -7.9545    3.5809 H         1 MOL     0.0646
     54 H           3.9991   -7.1400    1.8906 H         1 MOL     0.0621
     55 H          -0.5864   -5.6375    3.1766 H         1 MOL     0.1921
@<TRIPOS>BOND
     1    1   18 1 
     2    1   21 1 
     3    1   17 am
     4    2   20 1 
     5    2   22 am
     6    2   19 1 
     7    3    4 ar
     8    3   12 ar
     9    4   55 1 
    10    4    5 ar
    11    5    6 ar
    12    5   29 2 
    13    6    7 ar
    14    6   11 ar
    15    7    8 ar
    16    7   33 1 
    17    8    9 ar
    18    8   34 1 
    19    9   10 ar
    20    9   35 1 
    21   10   11 ar
    22   10   36 1 
    23   11   12 ar
    24   12   13 1 
    25   13   14 1 
    26   13   37 1 
    27   13   38 1 
    28   14   15 ar
    29   14   28 ar
    30   15   16 ar
    31   15   39 1 
    32   16   17 1 
    33   16   26 ar
    34   17   31 2 
    35   18   19 1 
    36   18   40 1 
    37   18   41 1 
    38   19   42 1 
    39   19   43 1 
    40   20   21 1 
    41   20   44 1 
    42   20   45 1 
    43   21   46 1 
    44   21   47 1 
    45   22   23 1 
    46   22   30 2 
    47   23   24 1 
    48   23   25 1 
    49   23   48 1 
    50   24   25 1 
    51   24   49 1 
    52   24   50 1 
    53   25   51 1 
    54   25   52 1 
    55   26   27 ar
    56   26   32 1 
    57   27   28 ar
    58   27   53 1 
    59   28   54 1 
@<TRIPOS>SUBSTRUCTURE
1 MOL         1
@<TRIPOS>MOLECULE
query molecule
   55    59     1     0     0
SMALL
NO_CHARGE

@<TRIPOS>ATOM
      1 N          12.3097  -18.2238   10.7316 N.am      1 MOL    -0.2945
      2 N          10.4421  -16.4877   10.2353 N.am      1 MOL    -0.2983
      3 N          17.3041  -16.5116   10.7985 N.ar      1 MOL    -0.1750
      4 N          17.2937  -15.9658    9.6066 N.ar      1 MOL    -0.2425
      5 C          17.7889  -16.5699    8.5172 C.ar      1 MOL     0.2725
      6 C          18.3388  -17.8285    8.6485 C.ar      1 MOL     0.0496
      7 C          18.8862  -18.4938    7.5509 C.ar      1 MOL     0.0138
      8 C          19.4495  -19.7416    7.7098 C.ar      1 MOL     0.0008
      9 C          19.4402  -20.2745    8.9815 C.ar      1 MOL     0.0007
     10 C          18.9009  -19.6255   10.0796 C.ar      1 MOL     0.0103
     11 C          18.3437  -18.3922    9.9111 C.ar      1 MOL     0.0106
     12 C          17.8308  -17.7570   11.0101 C.ar      1 MOL     0.0736
     13 C          17.7203  -18.2750   12.3675 C.3       1 MOL     0.0925
     14 C          16.3474  -18.0569   12.9011 C.ar      1 MOL    -0.0406
     15 C          15.3053  -18.6106   12.1362 C.ar      1 MOL     0.0196
     16 C          14.0017  -18.4534   12.5418 C.ar      1 MOL     0.0723
     17 C          12.8827  -19.0214   11.7565 C.2       1 MOL     0.2495
     18 C          11.2324  -18.7389    9.9498 C.3       1 MOL     0.1268
     19 C          10.3443  -17.6488    9.3894 C.3       1 MOL     0.1265
     20 C          11.7596  -15.8516   10.3423 C.3       1 MOL     0.1265
     21 C          12.8382  -16.8921   10.5011 C.3       1 MOL     0.1268
     22 C           9.3457  -15.9728   10.9332 C.2       1 MOL     0.2187
     23 C           7.9787  -16.5005   10.9401 C.3       1 MOL     0.0752
     24 C           6.8936  -15.5471   10.4932 C.3       1 MOL     0.0134
     25 C           6.9614  -15.9799   11.8908 C.3       1 MOL     0.0134
     26 C          13.6430  -17.7708   13.6800 C.ar      1 MOL     0.1355
     27 C          14.6639  -17.2292   14.4279 C.ar      1 MOL     0.0392
     28 C          15.9951  -17.3868   14.0164 C.ar      1 MOL     0.0066
     29 O          17.7869  -16.0634    7.3660 O.2       1 MOL    -0.2658
     30 O           9.5359  -14.9271   11.6511 O.2       1 MOL    -0.2753
     31 O          12.4339  -20.1714   11.9684 O.2       1 MOL    -0.2699
     32 F          12.3330  -17.6416   14.0402 F         1 MOL    -0.2047
     33 H          18.8688  -18.0515    6.6187 H         1 MOL     0.0625
     34 H          19.8597  -20.2530    6.9139 H         1 MOL     0.0618
     35 H          19.8580  -21.2071    9.1225 H         1 MOL     0.0618
     36 H          18.9197  -20.0681   11.0118 H         1 MOL     0.0624
     37 H          18.4261  -17.7719   12.9951 H         1 MOL     0.0377
     38 H          17.9206  -19.3262   12.3533 H         1 MOL     0.0377
     39 H          15.5188  -19.1332   11.2725 H         1 MOL     0.0629
     40 H          10.6388  -19.3817   10.5662 H         1 MOL     0.0480
     41 H          11.6578  -19.2672    9.1216 H         1 MOL     0.0480
     42 H           9.3308  -17.9897    9.3620 H         1 MOL     0.0480
     43 H          10.6567  -17.4017    8.3960 H         1 MOL     0.0480
     44 H          11.7698  -15.2024   11.1925 H         1 MOL     0.0480
     45 H          11.9483  -15.2934    9.4491 H         1 MOL     0.0480
     46 H          13.4539  -16.6217   11.3336 H         1 MOL     0.0480
     47 H          13.3930  -16.9213    9.5876 H         1 MOL     0.0480
     48 H           8.3212  -17.4829   10.6915 H         1 MOL     0.0394
     49 H           6.1019  -15.8949    9.8628 H         1 MOL     0.0273
     50 H           6.8757  -14.6015    9.9926 H         1 MOL     0.0273
     51 H           6.2119  -16.6375   12.2794 H         1 MOL     0.0273
     52 H           7.0080  -15.4689   12.8288 H         1 MOL     0.0273
     53 H          14.4488  -16.7070   15.2924 H         1 MOL     0.0646
     54 H          16.7414  -16.9704   14.5953 H         1 MOL     0.0621
     55 H          16.9022  -15.0677    9.5067 H         1 MOL     0.1921
@<TRIPOS>BOND
     1    1   18 1 
     2    1   21 1 
     3    1   17 am
     4    2   20 1 
     5    2   22 am
     6    2   19 1 
     7    3    4 ar
     8    3   12 ar
     9    4   55 1 
    10    4    5 ar
    11    5    6 ar
    12    5   29 2 
    13    6    7 ar
    14    6   11 ar
    15    7    8 ar
    16    7   33 1 
    17    8    9 ar
    18    8   34 1 
    19    9   10 ar
    20    9   35 1 
    21   10   11 ar
    22   10   36 1 
    23   11   12 ar
    24   12   13 1 
    25   13   14 1 
    26   13   37 1 
    27   13   38 1 
    28   14   15 ar
    29   14   28 ar
    30   15   16 ar
    31   15   39 1 
    32   16   17 1 
    33   16   26 ar
    34   17   31 2 
    35   18   19 1 
    36   18   40 1 
    37   18   41 1 
    38   19   42 1 
    39   19   43 1 
    40   20   21 1 
    41   20   44 1 
    42   20   45 1 
    43   21   46 1 
    44   21   47 1 
    45   22   23 1 
    46   22   30 2 
    47   23   24 1 
    48   23   25 1 
    49   23   48 1 
    50   24   25 1 
    51   24   49 1 
    52   24   50 1 
    53   25   51 1 
    54   25   52 1 
    55   26   27 ar
    56   26   32 1 
    57   27   28 ar
    58   27   53 1 
    59   28   54 1 
@<TRIPOS>SUBSTRUCTURE
1 MOL         1
@<TRIPOS>MOLECULE
query molecule
   55    59     1     0     0
SMALL
NO_CHARGE

@<TRIPOS>ATOM
      1 N          -0.4168  -17.8736   14.3888 N.am      1 MOL    -0.2945
      2 N           1.0998  -18.7550   16.3049 N.am      1 MOL    -0.2983
      3 N          -0.9853  -12.6018   12.7665 N.ar      1 MOL    -0.1750
      4 N          -0.8115  -11.6894   13.6917 N.ar      1 MOL    -0.2425
      5 C           0.0709  -10.6867   13.5787 C.ar      1 MOL     0.2725
      6 C           0.8383  -10.6038   12.4350 C.ar      1 MOL     0.0496
      7 C           1.7857   -9.5920   12.2747 C.ar      1 MOL     0.0138
      8 C           2.5562   -9.5415   11.1330 C.ar      1 MOL     0.0008
      9 C           2.3405  -10.5232   10.1891 C.ar      1 MOL     0.0007
     10 C           1.4042  -11.5332   10.3352 C.ar      1 MOL     0.0103
     11 C           0.6452  -11.5726   11.4676 C.ar      1 MOL     0.0106
     12 C          -0.2633  -12.5878   11.6039 C.ar      1 MOL     0.0736
     13 C          -0.5996  -13.6188   10.6308 C.3       1 MOL     0.0925
     14 C           0.1276  -14.8823   10.9341 C.ar      1 MOL    -0.0406
     15 C          -0.5532  -15.7879   11.7673 C.ar      1 MOL     0.0196
     16 C           0.0407  -16.9781   12.1126 C.ar      1 MOL     0.0723
     17 C          -0.6488  -17.9503   12.9905 C.2       1 MOL     0.2495
     18 C          -1.0675  -18.7907   15.2678 C.3       1 MOL     0.1268
     19 C          -0.2943  -19.0204   16.5486 C.3       1 MOL     0.1265
     20 C           1.4582  -17.3871   15.9149 C.3       1 MOL     0.1265
     21 C           0.4842  -16.8551   14.8954 C.3       1 MOL     0.1268
     22 C           2.0841  -19.7401   16.4271 C.2       1 MOL     0.2187
     23 C           1.8842  -21.1452   16.7915 C.3       1 MOL     0.0752
     24 C           2.3485  -22.1689   15.7803 C.3       1 MOL     0.0134
     25 C           0.9191  -21.9991   16.0504 C.3       1 MOL     0.0134
     26 C           1.2925  -17.3492   11.6821 C.ar      1 MOL     0.1355
     27 C           1.9580  -16.4621   10.8667 C.ar      1 MOL     0.0392
     28 C           1.3553  -15.2463   10.5132 C.ar      1 MOL     0.0066
     29 O           0.2509   -9.8018   14.4541 O.2       1 MOL    -0.2658
     30 O           3.2991  -19.3979   16.1991 O.2       1 MOL    -0.2753
     31 O          -1.4214  -18.8269   12.5394 O.2       1 MOL    -0.2699
     32 F           1.8397  -18.5430   12.0538 F         1 MOL    -0.2047
     33 H           1.9095   -8.8801   13.0114 H         1 MOL     0.0625
     34 H           3.2622   -8.8034   10.9916 H         1 MOL     0.0618
     35 H           2.9076  -10.5045    9.3276 H         1 MOL     0.0618
     36 H           1.2819  -12.2455    9.5984 H         1 MOL     0.0624
     37 H          -0.3272  -13.2820    9.6523 H         1 MOL     0.0377
     38 H          -1.6519  -13.8080   10.6779 H         1 MOL     0.0377
     39 H          -1.4960  -15.5591   12.1186 H         1 MOL     0.0629
     40 H          -1.1804  -19.7276   14.7627 H         1 MOL     0.0480
     41 H          -2.0144  -18.3677   15.5330 H         1 MOL     0.0480
     42 H          -0.4174  -20.0346   16.8656 H         1 MOL     0.0480
     43 H          -0.6597  -18.3683   17.3145 H         1 MOL     0.0480
     44 H           2.4420  -17.3865   15.4945 H         1 MOL     0.0480
     45 H           1.4266  -16.7602   16.7815 H         1 MOL     0.0480
     46 H           1.0369  -16.4505   14.0732 H         1 MOL     0.0480
     47 H          -0.1126  -16.1114   15.3792 H         1 MOL     0.0480
     48 H           2.0350  -20.9321   17.8289 H         1 MOL     0.0394
     49 H           2.8538  -23.0537   16.1077 H         1 MOL     0.0273
     50 H           2.9626  -22.1434   14.9044 H         1 MOL     0.0273
     51 H           0.3822  -22.7663   16.5683 H         1 MOL     0.0273
     52 H           0.0627  -21.8026   15.4411 H         1 MOL     0.0273
     53 H           2.9012  -16.6925   10.5152 H         1 MOL     0.0646
     54 H           1.8763  -14.5988    9.9008 H         1 MOL     0.0621
     55 H          -1.3567  -11.7432   14.5101 H         1 MOL     0.1921
@<TRIPOS>BOND
     1    1   18 1 
     2    1   21 1 
     3    1   17 am
     4    2   20 1 
     5    2   22 am
     6    2   19 1 
     7    3    4 ar
     8    3   12 ar
     9    4   55 1 
    10    4    5 ar
    11    5    6 ar
    12    5   29 2 
    13    6    7 ar
    14    6   11 ar
    15    7    8 ar
    16    7   33 1 
    17    8    9 ar
    18    8   34 1 
    19    9   10 ar
    20    9   35 1 
    21   10   11 ar
    22   10   36 1 
    23   11   12 ar
    24   12   13 1 
    25   13   14 1 
    26   13   37 1 
    27   13   38 1 
    28   14   15 ar
    29   14   28 ar
    30   15   16 ar
    31   15   39 1 
    32   16   17 1 
    33   16   26 ar
    34   17   31 2 
    35   18   19 1 
    36   18   40 1 
    37   18   41 1 
    38   19   42 1 
    39   19   43 1 
    40   20   21 1 
    41   20   44 1 
    42   20   45 1 
    43   21   46 1 
    44   21   47 1 
    45   22   23 1 
    46   22   30 2 
    47   23   24 1 
    48   23   25 1 
    49   23   48 1 
    50   24   25 1 
    51   24   49 1 
    52   24   50 1 
    53   25   51 1 
    54   25   52 1 
    55   26   27 ar
    56   26   32 1 
    57   27   28 ar
    58   27   53 1 
    59   28   54 1 
@<TRIPOS>SUBSTRUCTURE
1 MOL         1
@<TRIPOS>MOLECULE
query molecule
   55    59     1     0     0
SMALL
NO_CHARGE

@<TRIPOS>ATOM
      1 N          46.0905   12.2363   17.9986 N.am      1 MOL    -0.2945
      2 N          43.4948   12.3364   18.0210 N.am      1 MOL    -0.2983
      3 N          52.1460   14.7700   15.9623 N.ar      1 MOL    -0.1750
      4 N          53.2034   15.0540   16.6833 N.ar      1 MOL    -0.2425
      5 C          54.0951   14.1329   17.0750 C.ar      1 MOL     0.2725
      6 C          53.8970   12.8184   16.7055 C.ar      1 MOL     0.0496
      7 C          54.7834   11.8167   17.1031 C.ar      1 MOL     0.0138
      8 C          54.5540   10.5071   16.7401 C.ar      1 MOL     0.0008
      9 C          53.4283   10.2557   15.9845 C.ar      1 MOL     0.0007
     10 C          52.5402   11.2395   15.5833 C.ar      1 MOL     0.0103
     11 C          52.7778   12.5327   15.9456 C.ar      1 MOL     0.0106
     12 C          51.8805   13.4904   15.5556 C.ar      1 MOL     0.0736
     13 C          50.7103   13.3207   14.7043 C.3       1 MOL     0.0925
     14 C          49.5105   13.9383   15.3341 C.ar      1 MOL    -0.0406
     15 C          48.9713   13.2365   16.4270 C.ar      1 MOL     0.0196
     16 C          47.8569   13.7219   17.0682 C.ar      1 MOL     0.0723
     17 C          47.2638   13.0043   18.2192 C.2       1 MOL     0.2495
     18 C          45.4924   11.5266   19.0829 C.3       1 MOL     0.1268
     19 C          44.0071   11.3085   18.8893 C.3       1 MOL     0.1265
     20 C          44.0277   12.3798   16.6549 C.3       1 MOL     0.1265
     21 C          45.5228   12.1907   16.6640 C.3       1 MOL     0.1268
     22 C          42.5344   13.2623   18.4387 C.2       1 MOL     0.2187
     23 C          41.9201   13.3569   19.7657 C.3       1 MOL     0.0752
     24 C          42.8188   13.0435   20.9405 C.3       1 MOL     0.0134
     25 C          41.7124   12.1455   20.6019 C.3       1 MOL     0.0134
     26 C          47.2195   14.8825   16.6985 C.ar      1 MOL     0.1355
     27 C          47.7482   15.5686   15.6286 C.ar      1 MOL     0.0392
     28 C          48.8846   15.0756   14.9714 C.ar      1 MOL     0.0066
     29 O          55.1155   14.3860   17.7653 O.2       1 MOL    -0.2658
     30 O          42.1352   14.1314   17.5840 O.2       1 MOL    -0.2753
     31 O          47.7623   13.0554   19.3671 O.2       1 MOL    -0.2699
     32 F          46.1144   15.3228   17.3675 F         1 MOL    -0.2047
     33 H          55.6123   12.0567   17.6691 H         1 MOL     0.0625
     34 H          55.1948    9.7498   17.0214 H         1 MOL     0.0618
     35 H          53.2373    9.2817   15.7033 H         1 MOL     0.0618
     36 H          51.7108   10.9986   15.0182 H         1 MOL     0.0624
     37 H          50.5315   12.2762   14.5554 H         1 MOL     0.0377
     38 H          50.8927   13.8027   13.7664 H         1 MOL     0.0377
     39 H          49.4109   12.3593   16.7463 H         1 MOL     0.0629
     40 H          45.6424   12.0862   19.9827 H         1 MOL     0.0480
     41 H          45.9568   10.5634   19.1340 H         1 MOL     0.0480
     42 H          43.5107   11.3564   19.8356 H         1 MOL     0.0480
     43 H          43.8358   10.3462   18.4534 H         1 MOL     0.0480
     44 H          43.7962   13.3276   16.2160 H         1 MOL     0.0480
     45 H          43.5840   11.5905   16.0847 H         1 MOL     0.0480
     46 H          45.9691   12.9668   16.0778 H         1 MOL     0.0480
     47 H          45.7260   11.2208   16.2624 H         1 MOL     0.0480
     48 H          41.2796   14.1530   19.4490 H         1 MOL     0.0394
     49 H          42.7705   13.6424   21.8261 H         1 MOL     0.0273
     50 H          43.8739   12.9284   21.0770 H         1 MOL     0.0273
     51 H          40.8614   12.0855   21.2478 H         1 MOL     0.0273
     52 H          41.6371   11.0992   20.3953 H         1 MOL     0.0273
     53 H          47.3076   16.4466   15.3104 H         1 MOL     0.0646
     54 H          49.2605   15.6093   14.1717 H         1 MOL     0.0621
     55 H          53.3501   15.9907   16.9497 H         1 MOL     0.1921
@<TRIPOS>BOND
     1    1   18 1 
     2    1   21 1 
     3    1   17 am
     4    2   20 1 
     5    2   22 am
     6    2   19 1 
     7    3    4 ar
     8    3   12 ar
     9    4   55 1 
    10    4    5 ar
    11    5    6 ar
    12    5   29 2 
    13    6    7 ar
    14    6   11 ar
    15    7    8 ar
    16    7   33 1 
    17    8    9 ar
    18    8   34 1 
    19    9   10 ar
    20    9   35 1 
    21   10   11 ar
    22   10   36 1 
    23   11   12 ar
    24   12   13 1 
    25   13   14 1 
    26   13   37 1 
    27   13   38 1 
    28   14   15 ar
    29   14   28 ar
    30   15   16 ar
    31   15   39 1 
    32   16   17 1 
    33   16   26 ar
    34   17   31 2 
    35   18   19 1 
    36   18   40 1 
    37   18   41 1 
    38   19   42 1 
    39   19   43 1 
    40   20   21 1 
    41   20   44 1 
    42   20   45 1 
    43   21   46 1 
    44   21   47 1 
    45   22   23 1 
    46   22   30 2 
    47   23   24 1 
    48   23   25 1 
    49   23   48 1 
    50   24   25 1 
    51   24   49 1 
    52   24   50 1 
    53   25   51 1 
    54   25   52 1 
    55   26   27 ar
    56   26   32 1 
    57   27   28 ar
    58   27   53 1 
    59   28   54 1 
@<TRIPOS>SUBSTRUCTURE
1 MOL         1
@<TRIPOS>MOLECULE
query molecule
   55    59     1     0     0
SMALL
NO_CHARGE

@<TRIPOS>ATOM
      1 N           1.4077   -9.3290    8.7459 N.am      1 MOL    -0.2945
      2 N          -0.7421   -9.5400    7.3029 N.am      1 MOL    -0.2983
      3 N           7.5510   -8.7145    9.7487 N.ar      1 MOL    -0.1750
      4 N           8.1019   -7.9349   10.6473 N.ar      1 MOL    -0.2425
      5 C           8.6749   -8.3955   11.7681 C.ar      1 MOL     0.2725
      6 C           8.6894   -9.7564   11.9950 C.ar      1 MOL     0.0496
      7 C           9.2550  -10.2877   13.1547 C.ar      1 MOL     0.0138
      8 C           9.2390  -11.6489   13.3704 C.ar      1 MOL     0.0008
      9 C           8.6466  -12.4288   12.3998 C.ar      1 MOL     0.0007
     10 C           8.0813  -11.9152   11.2446 C.ar      1 MOL     0.0103
     11 C           8.1046  -10.5671   11.0397 C.ar      1 MOL     0.0106
     12 C           7.5259  -10.0744    9.9009 C.ar      1 MOL     0.0736
     13 C           6.9430  -10.8297    8.7995 C.3       1 MOL     0.0925
     14 C           5.9421  -10.0033    8.0697 C.ar      1 MOL    -0.0406
     15 C           4.7881   -9.6657    8.7991 C.ar      1 MOL     0.0196
     16 C           3.8015   -8.9137    8.2076 C.ar      1 MOL     0.0723
     17 C           2.5737   -8.5450    8.9479 C.2       1 MOL     0.2495
     18 C           0.2060   -9.0074    9.4456 C.3       1 MOL     0.1268
     19 C          -1.0369   -9.4600    8.7100 C.3       1 MOL     0.1265
     20 C           0.2840  -10.5045    6.8921 C.3       1 MOL     0.1265
     21 C           1.4664  -10.4488    7.8249 C.3       1 MOL     0.1268
     22 C          -1.3901   -8.7444    6.3536 C.2       1 MOL     0.2187
     23 C          -2.4191   -7.7324    6.6066 C.3       1 MOL     0.0752
     24 C          -3.5289   -7.6396    5.5838 C.3       1 MOL     0.0134
     25 C          -2.5626   -6.5474    5.7205 C.3       1 MOL     0.0134
     26 C           3.8745   -8.4579    6.9127 C.ar      1 MOL     0.1355
     27 C           5.0045   -8.7890    6.1997 C.ar      1 MOL     0.0392
     28 C           6.0127   -9.5570    6.7998 C.ar      1 MOL     0.0066
     29 O           9.2093   -7.6641   12.6406 O.2       1 MOL    -0.2658
     30 O          -1.0626   -8.9010    5.1234 O.2       1 MOL    -0.2753
     31 O           2.5361   -7.5734    9.7374 O.2       1 MOL    -0.2699
     32 F           2.8669   -7.7142    6.3701 F         1 MOL    -0.2047
     33 H           9.6864   -9.6608   13.8518 H         1 MOL     0.0625
     34 H           9.6509  -12.0648   14.2192 H         1 MOL     0.0618
     35 H           8.6228  -13.4502   12.5423 H         1 MOL     0.0618
     36 H           7.6490  -12.5427   10.5484 H         1 MOL     0.0624
     37 H           6.4627  -11.7038    9.1871 H         1 MOL     0.0377
     38 H           7.7221  -11.1058    8.1197 H         1 MOL     0.0377
     39 H           4.6823   -9.9819    9.7755 H         1 MOL     0.0629
     40 H           0.1596   -7.9462    9.5767 H         1 MOL     0.0480
     41 H           0.2314   -9.5211   10.3845 H         1 MOL     0.0480
     42 H          -1.8267   -8.7571    8.8727 H         1 MOL     0.0480
     43 H          -1.3433  -10.4194    9.0720 H         1 MOL     0.0480
     44 H           0.6085  -10.2729    5.8993 H         1 MOL     0.0480
     45 H          -0.1337  -11.4892    6.9238 H         1 MOL     0.0480
     46 H           2.3588  -10.3623    7.2407 H         1 MOL     0.0480
     47 H           1.4571  -11.3445    8.4086 H         1 MOL     0.0480
     48 H          -2.3263   -7.8546    7.6652 H         1 MOL     0.0394
     49 H          -4.5410   -7.5020    5.9032 H         1 MOL     0.0273
     50 H          -3.8681   -8.2549    4.7768 H         1 MOL     0.0273
     51 H          -2.8755   -5.6108    6.1326 H         1 MOL     0.0273
     52 H          -1.9110   -6.0384    5.0426 H         1 MOL     0.0273
     53 H           5.1095   -8.4714    5.2228 H         1 MOL     0.0646
     54 H           6.8496   -9.7916    6.2428 H         1 MOL     0.0621
     55 H           8.0948   -6.9627   10.4905 H         1 MOL     0.1921
@<TRIPOS>BOND
     1    1   18 1 
     2    1   21 1 
     3    1   17 am
     4    2   20 1 
     5    2   22 am
     6    2   19 1 
     7    3    4 ar
     8    3   12 ar
     9    4   55 1 
    10    4    5 ar
    11    5    6 ar
    12    5   29 2 
    13    6    7 ar
    14    6   11 ar
    15    7    8 ar
    16    7   33 1 
    17    8    9 ar
    18    8   34 1 
    19    9   10 ar
    20    9   35 1 
    21   10   11 ar
    22   10   36 1 
    23   11   12 ar
    24   12   13 1 
    25   13   14 1 
    26   13   37 1 
    27   13   38 1 
    28   14   15 ar
    29   14   28 ar
    30   15   16 ar
    31   15   39 1 
    32   16   17 1 
    33   16   26 ar
    34   17   31 2 
    35   18   19 1 
    36   18   40 1 
    37   18   41 1 
    38   19   42 1 
    39   19   43 1 
    40   20   21 1 
    41   20   44 1 
    42   20   45 1 
    43   21   46 1 
    44   21   47 1 
    45   22   23 1 
    46   22   30 2 
    47   23   24 1 
    48   23   25 1 
    49   23   48 1 
    50   24   25 1 
    51   24   49 1 
    52   24   50 1 
    53   25   51 1 
    54   25   52 1 
    55   26   27 ar
    56   26   32 1 
    57   27   28 ar
    58   27   53 1 
    59   28   54 1 
@<TRIPOS>SUBSTRUCTURE
1 MOL         1
@<TRIPOS>MOLECULE
query molecule
   55    59     1     0     0
SMALL
NO_CHARGE

@<TRIPOS>ATOM
      1 N          43.2343    9.1045   24.5604 N.am      1 MOL    -0.2945
      2 N          40.8905   10.1911   24.8329 N.am      1 MOL    -0.2983
      3 N          47.9257   12.4654   28.6899 N.ar      1 MOL    -0.1750
      4 N          48.3187   12.1020   29.8866 N.ar      1 MOL    -0.2425
      5 C          47.4716   11.8643   30.8979 C.ar      1 MOL     0.2725
      6 C          46.1172   12.0074   30.6766 C.ar      1 MOL     0.0496
      7 C          45.1931   11.7919   31.6997 C.ar      1 MOL     0.0138
      8 C          43.8463   11.9616   31.4613 C.ar      1 MOL     0.0008
      9 C          43.4801   12.3471   30.1891 C.ar      1 MOL     0.0007
     10 C          44.3862   12.5648   29.1646 C.ar      1 MOL     0.0103
     11 C          45.7164   12.3916   29.4103 C.ar      1 MOL     0.0106
     12 C          46.5999   12.6279   28.3914 C.ar      1 MOL     0.0736
     13 C          46.2938   12.9695   27.0084 C.3       1 MOL     0.0925
     14 C          46.4907   11.7895   26.1217 C.ar      1 MOL    -0.0406
     15 C          45.4270   10.8700   26.0921 C.ar      1 MOL     0.0196
     16 C          45.5193    9.7431   25.3109 C.ar      1 MOL     0.0723
     17 C          44.4182    8.7549   25.2612 C.2       1 MOL     0.2495
     18 C          42.1528    8.1761   24.4864 C.3       1 MOL     0.1268
     19 C          40.8123    8.8546   24.3030 C.3       1 MOL     0.1265
     20 C          41.8416   11.1060   24.1924 C.3       1 MOL     0.1265
     21 C          43.1517   10.4089   23.9300 C.3       1 MOL     0.1268
     22 C          40.1069   10.6194   25.9084 C.2       1 MOL     0.2187
     23 C          39.1291    9.8258   26.6574 C.3       1 MOL     0.0752
     24 C          39.6845    8.6812   27.4745 C.3       1 MOL     0.0134
     25 C          38.8553    8.4096   26.2982 C.3       1 MOL     0.0134
     26 C          46.6160    9.4509   24.5350 C.ar      1 MOL     0.1355
     27 C          47.6565   10.3516   24.5648 C.ar      1 MOL     0.0392
     28 C          47.5661   11.5020   25.3615 C.ar      1 MOL     0.0066
     29 O          47.8291   11.5138   32.0516 O.2       1 MOL    -0.2658
     30 O          40.2442   11.8340   26.2974 O.2       1 MOL    -0.2753
     31 O          44.5015    7.6336   25.8130 O.2       1 MOL    -0.2699
     32 F          46.6599    8.3173   23.7763 F         1 MOL    -0.2047
     33 H          45.5182   11.5045   32.6360 H         1 MOL     0.0625
     34 H          43.1446   11.8078   32.2011 H         1 MOL     0.0618
     35 H          42.4769   12.4810   29.9899 H         1 MOL     0.0618
     36 H          44.0603   12.8534   28.2287 H         1 MOL     0.0624
     37 H          46.9396   13.7610   26.6898 H         1 MOL     0.0377
     38 H          45.2711   13.2785   26.9472 H         1 MOL     0.0377
     39 H          44.5798   11.0408   26.6556 H         1 MOL     0.0629
     40 H          42.1278    7.6067   25.3923 H         1 MOL     0.0480
     41 H          42.3196    7.5530   23.6320 H         1 MOL     0.0480
     42 H          40.0570    8.3047   24.8239 H         1 MOL     0.0480
     43 H          40.5634    8.8904   23.2627 H         1 MOL     0.0480
     44 H          42.0123   11.9442   24.8350 H         1 MOL     0.0480
     45 H          41.4326   11.4334   23.2593 H         1 MOL     0.0480
     46 H          43.9454   11.0197   24.3069 H         1 MOL     0.0480
     47 H          43.2302   10.2600   22.8741 H         1 MOL     0.0480
     48 H          38.5054   10.6807   26.8139 H         1 MOL     0.0394
     49 H          39.3020    8.4886   28.4552 H         1 MOL     0.0273
     50 H          40.6607    8.3860   27.7982 H         1 MOL     0.0273
     51 H          37.8704    8.0105   26.4241 H         1 MOL     0.0273
     52 H          38.9853    7.8251   25.4123 H         1 MOL     0.0273
     53 H          48.5036   10.1798   23.9999 H         1 MOL     0.0646
     54 H          48.3607   12.1609   25.3660 H         1 MOL     0.0621
     55 H          49.2842   11.9979   30.0504 H         1 MOL     0.1921
@<TRIPOS>BOND
     1    1   18 1 
     2    1   21 1 
     3    1   17 am
     4    2   20 1 
     5    2   22 am
     6    2   19 1 
     7    3    4 ar
     8    3   12 ar
     9    4   55 1 
    10    4    5 ar
    11    5    6 ar
    12    5   29 2 
    13    6    7 ar
    14    6   11 ar
    15    7    8 ar
    16    7   33 1 
    17    8    9 ar
    18    8   34 1 
    19    9   10 ar
    20    9   35 1 
    21   10   11 ar
    22   10   36 1 
    23   11   12 ar
    24   12   13 1 
    25   13   14 1 
    26   13   37 1 
    27   13   38 1 
    28   14   15 ar
    29   14   28 ar
    30   15   16 ar
    31   15   39 1 
    32   16   17 1 
    33   16   26 ar
    34   17   31 2 
    35   18   19 1 
    36   18   40 1 
    37   18   41 1 
    38   19   42 1 
    39   19   43 1 
    40   20   21 1 
    41   20   44 1 
    42   20   45 1 
    43   21   46 1 
    44   21   47 1 
    45   22   23 1 
    46   22   30 2 
    47   23   24 1 
    48   23   25 1 
    49   23   48 1 
    50   24   25 1 
    51   24   49 1 
    52   24   50 1 
    53   25   51 1 
    54   25   52 1 
    55   26   27 ar
    56   26   32 1 
    57   27   28 ar
    58   27   53 1 
    59   28   54 1 
@<TRIPOS>SUBSTRUCTURE
1 MOL         1
@<TRIPOS>MOLECULE
query molecule
   55    59     1     0     0
SMALL
NO_CHARGE

@<TRIPOS>ATOM
      1 N          17.1599   13.8779   25.1566 N.am      1 MOL    -0.2945
      2 N          14.8328   12.9912   25.8960 N.am      1 MOL    -0.2983
      3 N          21.9462   14.9739   30.4254 N.ar      1 MOL    -0.1750
      4 N          22.0762   15.3595   31.6716 N.ar      1 MOL    -0.2425
      5 C          22.5478   14.5638   32.6419 C.ar      1 MOL     0.2725
      6 C          22.9165   13.2734   32.3212 C.ar      1 MOL     0.0496
      7 C          23.3946   12.3972   33.2963 C.ar      1 MOL     0.0138
      8 C          23.7369   11.1060   32.9569 C.ar      1 MOL     0.0008
      9 C          23.5808   10.7445   31.6355 C.ar      1 MOL     0.0007
     10 C          23.1073   11.6033   30.6577 C.ar      1 MOL     0.0103
     11 C          22.7739   12.8797   31.0035 C.ar      1 MOL     0.0106
     12 C          22.2908   13.7103   30.0282 C.ar      1 MOL     0.0736
     13 C          22.1601   13.4305   28.6043 C.3       1 MOL     0.0925
     14 C          21.0474   14.2250   28.0144 C.ar      1 MOL    -0.0406
     15 C          20.3469   13.6012   26.9667 C.ar      1 MOL     0.0196
     16 C          19.3093   14.2594   26.3512 C.ar      1 MOL     0.0723
     17 C          18.5551   13.6309   25.2433 C.2       1 MOL     0.2495
     18 C          16.3997   13.2932   24.0996 C.3       1 MOL     0.1268
     19 C          14.9434   13.1012   24.4647 C.3       1 MOL     0.1265
     20 C          15.2459   14.1557   26.6866 C.3       1 MOL     0.1265
     21 C          16.5347   14.7269   26.1537 C.3       1 MOL     0.1268
     22 C          14.3574   11.8372   26.5258 C.2       1 MOL     0.2187
     23 C          13.9231   10.5959   25.8796 C.3       1 MOL     0.0752
     24 C          13.1209    9.6431   26.7368 C.3       1 MOL     0.0134
     25 C          14.4713    9.2801   26.3013 C.3       1 MOL     0.0134
     26 C          18.9019   15.5236   26.7059 C.ar      1 MOL     0.1355
     27 C          19.5883   16.1333   27.7316 C.ar      1 MOL     0.0392
     28 C          20.6482   15.4650   28.3611 C.ar      1 MOL     0.0066
     29 O          22.6810   14.9156   33.8420 O.2       1 MOL    -0.2658
     30 O          14.2869   11.8451   27.8065 O.2       1 MOL    -0.2753
     31 O          19.1069   12.8971   24.3914 O.2       1 MOL    -0.2699
     32 F          17.8652   16.1357   26.0628 F         1 MOL    -0.2047
     33 H          23.4929   12.7163   34.2727 H         1 MOL     0.0625
     34 H          24.0928   10.4405   33.6596 H         1 MOL     0.0618
     35 H          23.8299    9.7819   31.3605 H         1 MOL     0.0618
     36 H          23.0082   11.2830   29.6815 H         1 MOL     0.0624
     37 H          21.9599   12.3883   28.4670 H         1 MOL     0.0377
     38 H          23.0725   13.7002   28.1142 H         1 MOL     0.0377
     39 H          20.6115   12.6521   26.6606 H         1 MOL     0.0629
     40 H          16.8221   12.3391   23.8612 H         1 MOL     0.0480
     41 H          16.4385   13.9626   23.2651 H         1 MOL     0.0480
     42 H          14.5725   12.2092   24.0055 H         1 MOL     0.0480
     43 H          14.3700   13.9362   24.1192 H         1 MOL     0.0480
     44 H          15.3878   13.8586   27.7046 H         1 MOL     0.0480
     45 H          14.4848   14.9051   26.6233 H         1 MOL     0.0480
     46 H          17.2161   14.8522   26.9693 H         1 MOL     0.0480
     47 H          16.3023   15.6576   25.6816 H         1 MOL     0.0480
     48 H          13.8239   11.0843   24.9330 H         1 MOL     0.0394
     49 H          12.2718    9.1383   26.3251 H         1 MOL     0.0273
     50 H          12.6216    9.7114   27.6807 H         1 MOL     0.0273
     51 H          14.6044    8.5035   25.5773 H         1 MOL     0.0273
     52 H          15.3602    8.9689   26.8075 H         1 MOL     0.0273
     53 H          19.3221   17.0830   28.0373 H         1 MOL     0.0646
     54 H          21.1464   15.9449   29.1272 H         1 MOL     0.0621
     55 H          21.8149   16.2795   31.9064 H         1 MOL     0.1921
@<TRIPOS>BOND
     1    1   18 1 
     2    1   21 1 
     3    1   17 am
     4    2   20 1 
     5    2   22 am
     6    2   19 1 
     7    3    4 ar
     8    3   12 ar
     9    4   55 1 
    10    4    5 ar
    11    5    6 ar
    12    5   29 2 
    13    6    7 ar
    14    6   11 ar
    15    7    8 ar
    16    7   33 1 
    17    8    9 ar
    18    8   34 1 
    19    9   10 ar
    20    9   35 1 
    21   10   11 ar
    22   10   36 1 
    23   11   12 ar
    24   12   13 1 
    25   13   14 1 
    26   13   37 1 
    27   13   38 1 
    28   14   15 ar
    29   14   28 ar
    30   15   16 ar
    31   15   39 1 
    32   16   17 1 
    33   16   26 ar
    34   17   31 2 
    35   18   19 1 
    36   18   40 1 
    37   18   41 1 
    38   19   42 1 
    39   19   43 1 
    40   20   21 1 
    41   20   44 1 
    42   20   45 1 
    43   21   46 1 
    44   21   47 1 
    45   22   23 1 
    46   22   30 2 
    47   23   24 1 
    48   23   25 1 
    49   23   48 1 
    50   24   25 1 
    51   24   49 1 
    52   24   50 1 
    53   25   51 1 
    54   25   52 1 
    55   26   27 ar
    56   26   32 1 
    57   27   28 ar
    58   27   53 1 
    59   28   54 1 
@<TRIPOS>SUBSTRUCTURE
1 MOL         1
@<TRIPOS>MOLECULE
query molecule
   55    59     1     0     0
SMALL
NO_CHARGE

@<TRIPOS>ATOM
      1 N          50.1206  -11.8105   32.6186 N.am      1 MOL    -0.2945
      2 N          52.2494  -10.5453   31.8339 N.am      1 MOL    -0.2983
      3 N          47.9707  -18.7570   36.1029 N.ar      1 MOL    -0.1750
      4 N          47.3850  -19.3606   37.1085 N.ar      1 MOL    -0.2425
      5 C          46.6327  -18.7191   38.0137 C.ar      1 MOL     0.2725
      6 C          46.4618  -17.3557   37.8881 C.ar      1 MOL     0.0496
      7 C          45.7054  -16.6360   38.8138 C.ar      1 MOL     0.0138
      8 C          45.5659  -15.2713   38.6803 C.ar      1 MOL     0.0008
      9 C          46.2019  -14.6795   37.6095 C.ar      1 MOL     0.0007
     10 C          46.9558  -15.3812   36.6838 C.ar      1 MOL     0.0103
     11 C          47.0854  -16.7316   36.8234 C.ar      1 MOL     0.0106
     12 C          47.8486  -17.4076   35.9096 C.ar      1 MOL     0.0736
     13 C          48.4941  -16.8721   34.7181 C.3       1 MOL     0.0925
     14 C          49.2769  -15.6500   35.0511 C.ar      1 MOL    -0.0406
     15 C          48.9577  -14.5034   34.3020 C.ar      1 MOL     0.0196
     16 C          49.6333  -13.3285   34.5293 C.ar      1 MOL     0.0723
     17 C          49.3227  -12.1057   33.7549 C.2       1 MOL     0.2495
     18 C          49.8486  -10.6430   31.8440 C.3       1 MOL     0.1268
     19 C          51.0723  -10.1249   31.1194 C.3       1 MOL     0.1265
     20 C          52.4841  -11.9896   31.9380 C.3       1 MOL     0.1265
     21 C          51.2031  -12.7114   32.2686 C.3       1 MOL     0.1268
     22 C          53.1416   -9.6371   32.4114 C.2       1 MOL     0.2187
     23 C          53.0381   -8.1755   32.4057 C.3       1 MOL     0.0752
     24 C          52.9248   -7.5097   33.7585 C.3       1 MOL     0.0134
     25 C          51.7885   -7.4942   32.8345 C.3       1 MOL     0.0134
     26 C          50.6283  -13.2003   35.4693 C.ar      1 MOL     0.1355
     27 C          50.9400  -14.3232   36.2020 C.ar      1 MOL     0.0392
     28 C          50.2533  -15.5240   35.9719 C.ar      1 MOL     0.0066
     29 O          46.0621  -19.2805   38.9838 O.2       1 MOL    -0.2658
     30 O          54.1668  -10.1142   33.0168 O.2       1 MOL    -0.2753
     31 O          48.3874  -11.3348   34.0704 O.2       1 MOL    -0.2699
     32 F          51.2707  -12.0108   35.6570 F         1 MOL    -0.2047
     33 H          45.2490  -17.1260   39.5990 H         1 MOL     0.0625
     34 H          45.0117  -14.7181   39.3512 H         1 MOL     0.0618
     35 H          46.1114  -13.6587   37.4920 H         1 MOL     0.0618
     36 H          47.4129  -14.8903   35.8993 H         1 MOL     0.0624
     37 H          47.7466  -16.6248   33.9935 H         1 MOL     0.0377
     38 H          49.1610  -17.6110   34.3250 H         1 MOL     0.0377
     39 H          48.2184  -14.5443   33.5834 H         1 MOL     0.0629
     40 H          49.4861   -9.8760   32.4965 H         1 MOL     0.0480
     41 H          49.1223  -10.9084   31.1036 H         1 MOL     0.0480
     42 H          51.0393   -9.0565   31.0772 H         1 MOL     0.0480
     43 H          51.0946  -10.5132   30.1223 H         1 MOL     0.0480
     44 H          53.2014  -12.1758   32.7096 H         1 MOL     0.0480
     45 H          52.8500  -12.3497   30.9991 H         1 MOL     0.0480
     46 H          51.3830  -13.3649   33.0966 H         1 MOL     0.0480
     47 H          50.9027  -13.2487   31.3944 H         1 MOL     0.0480
     48 H          53.6572   -8.1019   31.5364 H         1 MOL     0.0394
     49 H          53.4649   -6.6076   33.9580 H         1 MOL     0.0273
     50 H          53.0742   -7.8221   34.7710 H         1 MOL     0.0273
     51 H          51.4968   -6.5765   32.3677 H         1 MOL     0.0273
     52 H          50.7636   -7.7900   32.9071 H         1 MOL     0.0273
     53 H          51.6796  -14.2808   36.9212 H         1 MOL     0.0646
     54 H          50.5068  -16.3512   36.5349 H         1 MOL     0.0621
     55 H          47.5032  -20.3337   37.2030 H         1 MOL     0.1921
@<TRIPOS>BOND
     1    1   18 1 
     2    1   21 1 
     3    1   17 am
     4    2   20 1 
     5    2   22 am
     6    2   19 1 
     7    3    4 ar
     8    3   12 ar
     9    4   55 1 
    10    4    5 ar
    11    5    6 ar
    12    5   29 2 
    13    6    7 ar
    14    6   11 ar
    15    7    8 ar
    16    7   33 1 
    17    8    9 ar
    18    8   34 1 
    19    9   10 ar
    20    9   35 1 
    21   10   11 ar
    22   10   36 1 
    23   11   12 ar
    24   12   13 1 
    25   13   14 1 
    26   13   37 1 
    27   13   38 1 
    28   14   15 ar
    29   14   28 ar
    30   15   16 ar
    31   15   39 1 
    32   16   17 1 
    33   16   26 ar
    34   17   31 2 
    35   18   19 1 
    36   18   40 1 
    37   18   41 1 
    38   19   42 1 
    39   19   43 1 
    40   20   21 1 
    41   20   44 1 
    42   20   45 1 
    43   21   46 1 
    44   21   47 1 
    45   22   23 1 
    46   22   30 2 
    47   23   24 1 
    48   23   25 1 
    49   23   48 1 
    50   24   25 1 
    51   24   49 1 
    52   24   50 1 
    53   25   51 1 
    54   25   52 1 
    55   26   27 ar
    56   26   32 1 
    57   27   28 ar
    58   27   53 1 
    59   28   54 1 
@<TRIPOS>SUBSTRUCTURE
1 MOL         1
@<TRIPOS>MOLECULE
query molecule
   55    59     1     0     0
SMALL
NO_CHARGE

@<TRIPOS>ATOM
      1 N          48.1307   -8.5981   29.0670 N.am      1 MOL    -0.2945
      2 N          50.4335   -9.3358   30.0165 N.am      1 MOL    -0.2983
      3 N          43.6804  -14.7059   30.1970 N.ar      1 MOL    -0.1750
      4 N          43.8407  -15.9710   29.8930 N.ar      1 MOL    -0.2425
      5 C          45.0363  -16.5769   29.8750 C.ar      1 MOL     0.2725
      6 C          46.1589  -15.8394   30.1906 C.ar      1 MOL     0.0496
      7 C          47.4296  -16.4155   30.1678 C.ar      1 MOL     0.0138
      8 C          48.5390  -15.6539   30.4659 C.ar      1 MOL     0.0008
      9 C          48.3222  -14.3282   30.7767 C.ar      1 MOL     0.0007
     10 C          47.0671  -13.7433   30.8028 C.ar      1 MOL     0.0103
     11 C          45.9757  -14.5063   30.5088 C.ar      1 MOL     0.0106
     12 C          44.7441  -13.9083   30.5220 C.ar      1 MOL     0.0736
     13 C          44.4228  -12.5394   30.9037 C.3       1 MOL     0.0925
     14 C          44.6950  -11.6041   29.7775 C.ar      1 MOL    -0.0406
     15 C          45.5534  -10.5308   30.0755 C.ar      1 MOL     0.0196
     16 C          45.8567   -9.6079   29.1034 C.ar      1 MOL     0.0723
     17 C          46.7542   -8.4654   29.3872 C.2       1 MOL     0.2495
     18 C          49.0263   -7.5163   29.3214 C.3       1 MOL     0.1268
     19 C          50.4513   -7.9771   29.5402 C.3       1 MOL     0.1265
     20 C          49.8674  -10.3481   29.1183 C.3       1 MOL     0.1265
     21 C          48.5982   -9.8415   28.4829 C.3       1 MOL     0.1268
     22 C          50.9262   -9.6971   31.2738 C.2       1 MOL     0.2187
     23 C          51.5050   -8.8061   32.2828 C.3       1 MOL     0.0752
     24 C          52.2063   -7.5729   31.7600 C.3       1 MOL     0.0134
     25 C          52.9772   -8.6391   32.4035 C.3       1 MOL     0.0134
     26 C          45.3603   -9.6704   27.8229 C.ar      1 MOL     0.1355
     27 C          44.5201  -10.7214   27.5323 C.ar      1 MOL     0.0392
     28 C          44.2078  -11.6643   28.5221 C.ar      1 MOL     0.0066
     29 O          45.2100  -17.7889   29.5874 O.2       1 MOL    -0.2658
     30 O          50.8746  -10.9369   31.5986 O.2       1 MOL    -0.2753
     31 O          46.3378   -7.3989   29.8950 O.2       1 MOL    -0.2699
     32 F          45.6911   -8.7280   26.8927 F         1 MOL    -0.2047
     33 H          47.5390  -17.4133   29.9282 H         1 MOL     0.0625
     34 H          49.4879  -16.0573   30.4562 H         1 MOL     0.0618
     35 H          49.1393  -13.7401   31.0017 H         1 MOL     0.0618
     36 H          46.9585  -12.7450   31.0415 H         1 MOL     0.0624
     37 H          45.0199  -12.2591   31.7463 H         1 MOL     0.0377
     38 H          43.3832  -12.4851   31.1520 H         1 MOL     0.0377
     39 H          45.9543  -10.4363   31.0215 H         1 MOL     0.0629
     40 H          48.6957   -6.9968   30.1968 H         1 MOL     0.0480
     41 H          49.0202   -6.8820   28.4591 H         1 MOL     0.0480
     42 H          50.9252   -7.3482   30.2642 H         1 MOL     0.0480
     43 H          50.9955   -7.9219   28.6202 H         1 MOL     0.0480
     44 H          49.6509  -11.2342   29.6774 H         1 MOL     0.0480
     45 H          50.5772  -10.5625   28.3468 H         1 MOL     0.0480
     46 H          47.8357  -10.5824   28.6047 H         1 MOL     0.0480
     47 H          48.8090   -9.6519   27.4520 H         1 MOL     0.0480
     48 H          50.7296   -9.0395   32.9818 H         1 MOL     0.0394
     49 H          52.0762   -6.6329   32.2548 H         1 MOL     0.0273
     50 H          52.2500   -7.0694   30.8168 H         1 MOL     0.0273
     51 H          53.4155   -8.4705   33.3650 H         1 MOL     0.0273
     52 H          53.8218   -9.2277   32.1149 H         1 MOL     0.0273
     53 H          44.1201  -10.8151   26.5850 H         1 MOL     0.0646
     54 H          43.5750  -12.4424   28.2779 H         1 MOL     0.0621
     55 H          43.0431  -16.5026   29.6672 H         1 MOL     0.1921
@<TRIPOS>BOND
     1    1   18 1 
     2    1   21 1 
     3    1   17 am
     4    2   20 1 
     5    2   22 am
     6    2   19 1 
     7    3    4 ar
     8    3   12 ar
     9    4   55 1 
    10    4    5 ar
    11    5    6 ar
    12    5   29 2 
    13    6    7 ar
    14    6   11 ar
    15    7    8 ar
    16    7   33 1 
    17    8    9 ar
    18    8   34 1 
    19    9   10 ar
    20    9   35 1 
    21   10   11 ar
    22   10   36 1 
    23   11   12 ar
    24   12   13 1 
    25   13   14 1 
    26   13   37 1 
    27   13   38 1 
    28   14   15 ar
    29   14   28 ar
    30   15   16 ar
    31   15   39 1 
    32   16   17 1 
    33   16   26 ar
    34   17   31 2 
    35   18   19 1 
    36   18   40 1 
    37   18   41 1 
    38   19   42 1 
    39   19   43 1 
    40   20   21 1 
    41   20   44 1 
    42   20   45 1 
    43   21   46 1 
    44   21   47 1 
    45   22   23 1 
    46   22   30 2 
    47   23   24 1 
    48   23   25 1 
    49   23   48 1 
    50   24   25 1 
    51   24   49 1 
    52   24   50 1 
    53   25   51 1 
    54   25   52 1 
    55   26   27 ar
    56   26   32 1 
    57   27   28 ar
    58   27   53 1 
    59   28   54 1 
@<TRIPOS>SUBSTRUCTURE
1 MOL         1
@<TRIPOS>MOLECULE
query molecule
   55    59     1     0     0
SMALL
NO_CHARGE

@<TRIPOS>ATOM
      1 N          44.5806  -17.8533   24.6044 N.am      1 MOL    -0.2945
      2 N          46.6489  -18.7966   25.8616 N.am      1 MOL    -0.2983
      3 N          43.7774  -22.2623   23.8510 N.ar      1 MOL    -0.1750
      4 N          44.6538  -22.4813   22.9010 N.ar      1 MOL    -0.2425
      5 C          44.3119  -22.7405   21.6310 C.ar      1 MOL     0.2725
      6 C          42.9733  -22.7810   21.2992 C.ar      1 MOL     0.0496
      7 C          42.5619  -23.0662   19.9967 C.ar      1 MOL     0.0138
      8 C          41.2188  -23.1225   19.6930 C.ar      1 MOL     0.0008
      9 C          40.3341  -22.8884   20.7244 C.ar      1 MOL     0.0007
     10 C          40.7281  -22.6047   22.0213 C.ar      1 MOL     0.0103
     11 C          42.0596  -22.5488   22.3108 C.ar      1 MOL     0.0106
     12 C          42.4319  -22.2845   23.6015 C.ar      1 MOL     0.0736
     13 C          41.5679  -21.9600   24.7290 C.3       1 MOL     0.0925
     14 C          41.2361  -20.5084   24.7339 C.ar      1 MOL    -0.0406
     15 C          42.3384  -19.6353   24.7511 C.ar      1 MOL     0.0196
     16 C          42.1338  -18.2764   24.7672 C.ar      1 MOL     0.0723
     17 C          43.2733  -17.3318   24.7891 C.2       1 MOL     0.2495
     18 C          45.7040  -16.9731   24.6144 C.3       1 MOL     0.1268
     19 C          46.9826  -17.6629   25.0391 C.3       1 MOL     0.1265
     20 C          45.8613  -19.8640   25.2354 C.3       1 MOL     0.1265
     21 C          44.7445  -19.2817   24.4078 C.3       1 MOL     0.1268
     22 C          47.0453  -18.8969   27.1985 C.2       1 MOL     0.2187
     23 C          47.8171  -17.9150   27.9648 C.3       1 MOL     0.0752
     24 C          49.3167  -18.1079   27.9768 C.3       1 MOL     0.0134
     25 C          48.5405  -18.3067   29.2029 C.3       1 MOL     0.0134
     26 C          40.8849  -17.7017   24.7667 C.ar      1 MOL     0.1355
     27 C          39.8067  -18.5573   24.7498 C.ar      1 MOL     0.0392
     28 C          40.0119  -19.9444   24.7344 C.ar      1 MOL     0.0066
     29 O          45.1375  -22.9517   20.7060 O.2       1 MOL    -0.2658
     30 O          46.7063  -19.9539   27.8413 O.2       1 MOL    -0.2753
     31 O          43.1177  -16.1013   24.9634 O.2       1 MOL    -0.2699
     32 F          40.7339  -16.3454   24.7838 F         1 MOL    -0.2047
     33 H          43.2642  -23.2345   19.2595 H         1 MOL     0.0625
     34 H          40.8906  -23.3308   18.7379 H         1 MOL     0.0618
     35 H          39.3240  -22.9270   20.5187 H         1 MOL     0.0618
     36 H          40.0252  -22.4375   22.7584 H         1 MOL     0.0624
     37 H          42.0696  -22.2096   25.6406 H         1 MOL     0.0377
     38 H          40.6600  -22.5198   24.6407 H         1 MOL     0.0377
     39 H          43.2982  -20.0139   24.7521 H         1 MOL     0.0629
     40 H          45.5047  -16.1712   25.2947 H         1 MOL     0.0480
     41 H          45.8450  -16.6176   23.6145 H         1 MOL     0.0480
     42 H          47.5909  -16.9813   25.5955 H         1 MOL     0.0480
     43 H          47.5235  -17.9880   24.1747 H         1 MOL     0.0480
     44 H          45.4448  -20.4887   25.9976 H         1 MOL     0.0480
     45 H          46.5006  -20.4371   24.5968 H         1 MOL     0.0480
     46 H          43.8304  -19.7691   24.6760 H         1 MOL     0.0480
     47 H          44.9925  -19.4371   23.3794 H         1 MOL     0.0480
     48 H          47.1207  -17.1369   27.7325 H         1 MOL     0.0394
     49 H          49.9658  -17.2621   27.8853 H         1 MOL     0.0273
     50 H          50.0085  -18.6988   27.4136 H         1 MOL     0.0273
     51 H          48.6324  -17.6078   30.0080 H         1 MOL     0.0273
     52 H          48.4433  -19.1093   29.9027 H         1 MOL     0.0273
     53 H          38.8466  -18.1771   24.7483 H         1 MOL     0.0646
     54 H          39.1861  -20.5636   24.7223 H         1 MOL     0.0621
     55 H          45.6108  -22.4533   23.1318 H         1 MOL     0.1921
@<TRIPOS>BOND
     1    1   18 1 
     2    1   21 1 
     3    1   17 am
     4    2   20 1 
     5    2   22 am
     6    2   19 1 
     7    3    4 ar
     8    3   12 ar
     9    4   55 1 
    10    4    5 ar
    11    5    6 ar
    12    5   29 2 
    13    6    7 ar
    14    6   11 ar
    15    7    8 ar
    16    7   33 1 
    17    8    9 ar
    18    8   34 1 
    19    9   10 ar
    20    9   35 1 
    21   10   11 ar
    22   10   36 1 
    23   11   12 ar
    24   12   13 1 
    25   13   14 1 
    26   13   37 1 
    27   13   38 1 
    28   14   15 ar
    29   14   28 ar
    30   15   16 ar
    31   15   39 1 
    32   16   17 1 
    33   16   26 ar
    34   17   31 2 
    35   18   19 1 
    36   18   40 1 
    37   18   41 1 
    38   19   42 1 
    39   19   43 1 
    40   20   21 1 
    41   20   44 1 
    42   20   45 1 
    43   21   46 1 
    44   21   47 1 
    45   22   23 1 
    46   22   30 2 
    47   23   24 1 
    48   23   25 1 
    49   23   48 1 
    50   24   25 1 
    51   24   49 1 
    52   24   50 1 
    53   25   51 1 
    54   25   52 1 
    55   26   27 ar
    56   26   32 1 
    57   27   28 ar
    58   27   53 1 
    59   28   54 1 
@<TRIPOS>SUBSTRUCTURE
1 MOL         1
@<TRIPOS>MOLECULE
query molecule
   55    59     1     0     0
SMALL
NO_CHARGE

@<TRIPOS>ATOM
      1 N           4.6533   -9.0886   12.3440 N.am      1 MOL    -0.2945
      2 N           7.0077   -8.9924   13.4376 N.am      1 MOL    -0.2983
      3 N          -0.8869   -9.9788   11.5539 N.ar      1 MOL    -0.1750
      4 N          -0.8287  -11.1734   11.0170 N.ar      1 MOL    -0.2425
      5 C          -0.7684  -12.3014   11.7386 C.ar      1 MOL     0.2725
      6 C          -0.7667  -12.2093   13.1153 C.ar      1 MOL     0.0496
      7 C          -0.6852  -13.3507   13.9138 C.ar      1 MOL     0.0138
      8 C          -0.6635  -13.2332   15.2869 C.ar      1 MOL     0.0008
      9 C          -0.7238  -11.9574   15.8064 C.ar      1 MOL     0.0007
     10 C          -0.8046  -10.8161   15.0260 C.ar      1 MOL     0.0103
     11 C          -0.8280  -10.9435   13.6684 C.ar      1 MOL     0.0106
     12 C          -0.8904   -9.8044   12.9114 C.ar      1 MOL     0.0736
     13 C          -1.0251   -8.4308   13.3785 C.3       1 MOL     0.0925
     14 C           0.3092   -7.7765   13.4728 C.ar      1 MOL    -0.0406
     15 C           1.3002   -8.2964   12.6211 C.ar      1 MOL     0.0196
     16 C           2.5674   -7.7649   12.6426 C.ar      1 MOL     0.0723
     17 C           3.6329   -8.2926   11.7608 C.2       1 MOL     0.2495
     18 C           5.6949   -9.6192   11.5251 C.3       1 MOL     0.1268
     19 C           6.9736   -9.8687   12.2957 C.3       1 MOL     0.1265
     20 C           5.9505   -9.1645   14.4399 C.3       1 MOL     0.1265
     21 C           4.6121   -9.3463   13.7715 C.3       1 MOL     0.1268
     22 C           7.9925   -8.0144   13.6044 C.2       1 MOL     0.2187
     23 C           9.0981   -7.7124   12.6914 C.3       1 MOL     0.0752
     24 C           9.7673   -6.3691   12.8758 C.3       1 MOL     0.0134
     25 C           8.9779   -6.6375   11.6716 C.3       1 MOL     0.0134
     26 C           2.9366   -6.7283   13.4667 C.ar      1 MOL     0.1355
     27 C           1.9658   -6.2203   14.3000 C.ar      1 MOL     0.0392
     28 C           0.6721   -6.7608   14.2813 C.ar      1 MOL     0.0066
     29 O          -0.7133  -13.4557   11.2422 O.2       1 MOL    -0.2658
     30 O           7.9401   -7.2924   14.6633 O.2       1 MOL    -0.2753
     31 O           3.6582   -8.0594   10.5305 O.2       1 MOL    -0.2699
     32 F           4.2093   -6.2356   13.4514 F         1 MOL    -0.2047
     33 H          -0.6417  -14.2842   13.4760 H         1 MOL     0.0625
     34 H          -0.6041  -14.0618   15.8977 H         1 MOL     0.0618
     35 H          -0.7075  -11.8471   16.8319 H         1 MOL     0.0618
     36 H          -0.8468   -9.8827   15.4646 H         1 MOL     0.0624
     37 H          -1.4863   -8.4307   14.3441 H         1 MOL     0.0377
     38 H          -1.6265   -7.8862   12.6807 H         1 MOL     0.0377
     39 H           1.0765   -9.0748   11.9819 H         1 MOL     0.0629
     40 H           5.8993   -8.9238   10.7376 H         1 MOL     0.0480
     41 H           5.3581  -10.5611   11.1437 H         1 MOL     0.0480
     42 H           7.8163   -9.6728   11.6665 H         1 MOL     0.0480
     43 H           7.0089  -10.8883   12.6191 H         1 MOL     0.0480
     44 H           5.9150   -8.2987   15.0674 H         1 MOL     0.0480
     45 H           6.1651  -10.0351   15.0238 H         1 MOL     0.0480
     46 H           3.9122   -8.6717   14.2188 H         1 MOL     0.0480
     47 H           4.3230  -10.3671   13.9045 H         1 MOL     0.0480
     48 H           9.3869   -8.7415   12.6476 H         1 MOL     0.0394
     49 H          10.8324   -6.2884   12.8106 H         1 MOL     0.0273
     50 H           9.7576   -5.6165   13.6363 H         1 MOL     0.0273
     51 H           9.4700   -6.7437   10.7274 H         1 MOL     0.0273
     52 H           8.1549   -6.1491   11.1946 H         1 MOL     0.0273
     53 H           2.1908   -5.4408   14.9387 H         1 MOL     0.0646
     54 H          -0.0370   -6.3617   14.9165 H         1 MOL     0.0621
     55 H          -0.8299  -11.2454   10.0349 H         1 MOL     0.1921
@<TRIPOS>BOND
     1    1   18 1 
     2    1   21 1 
     3    1   17 am
     4    2   20 1 
     5    2   22 am
     6    2   19 1 
     7    3    4 ar
     8    3   12 ar
     9    4   55 1 
    10    4    5 ar
    11    5    6 ar
    12    5   29 2 
    13    6    7 ar
    14    6   11 ar
    15    7    8 ar
    16    7   33 1 
    17    8    9 ar
    18    8   34 1 
    19    9   10 ar
    20    9   35 1 
    21   10   11 ar
    22   10   36 1 
    23   11   12 ar
    24   12   13 1 
    25   13   14 1 
    26   13   37 1 
    27   13   38 1 
    28   14   15 ar
    29   14   28 ar
    30   15   16 ar
    31   15   39 1 
    32   16   17 1 
    33   16   26 ar
    34   17   31 2 
    35   18   19 1 
    36   18   40 1 
    37   18   41 1 
    38   19   42 1 
    39   19   43 1 
    40   20   21 1 
    41   20   44 1 
    42   20   45 1 
    43   21   46 1 
    44   21   47 1 
    45   22   23 1 
    46   22   30 2 
    47   23   24 1 
    48   23   25 1 
    49   23   48 1 
    50   24   25 1 
    51   24   49 1 
    52   24   50 1 
    53   25   51 1 
    54   25   52 1 
    55   26   27 ar
    56   26   32 1 
    57   27   28 ar
    58   27   53 1 
    59   28   54 1 
@<TRIPOS>SUBSTRUCTURE
1 MOL         1
@<TRIPOS>MOLECULE
query molecule
   55    59     1     0     0
SMALL
NO_CHARGE

@<TRIPOS>ATOM
      1 N          44.2409  -19.3750    7.7105 N.am      1 MOL    -0.2945
      2 N          45.7019  -20.2210    5.7361 N.am      1 MOL    -0.2983
      3 N          36.5474  -18.9331    8.4819 N.ar      1 MOL    -0.1750
      4 N          35.4527  -19.1831    7.8053 N.ar      1 MOL    -0.2425
      5 C          35.3155  -18.9066    6.5008 C.ar      1 MOL     0.2725
      6 C          36.3743  -18.3299    5.8298 C.ar      1 MOL     0.0496
      7 C          36.2779  -18.0033    4.4766 C.ar      1 MOL     0.0138
      8 C          37.3408  -17.4082    3.8320 C.ar      1 MOL     0.0008
      9 C          38.4698  -17.1618    4.5843 C.ar      1 MOL     0.0007
     10 C          38.5792  -17.4803    5.9276 C.ar      1 MOL     0.0103
     11 C          37.5225  -18.0712    6.5553 C.ar      1 MOL     0.0106
     12 C          37.6408  -18.3634    7.8877 C.ar      1 MOL     0.0736
     13 C          38.8151  -18.1996    8.7346 C.3       1 MOL     0.0925
     14 C          39.7409  -19.3549    8.5754 C.ar      1 MOL    -0.0406
     15 C          41.1041  -19.0700    8.7706 C.ar      1 MOL     0.0196
     16 C          42.0375  -20.0696    8.6352 C.ar      1 MOL     0.0723
     17 C          43.4800  -19.8004    8.8308 C.2       1 MOL     0.2495
     18 C          45.6335  -19.1011    7.8610 C.3       1 MOL     0.1268
     19 C          46.4074  -19.2858    6.5733 C.3       1 MOL     0.1265
     20 C          44.3592  -19.8331    5.2903 C.3       1 MOL     0.1265
     21 C          43.5784  -19.2271    6.4280 C.3       1 MOL     0.1268
     22 C          46.2505  -21.4486    5.3537 C.2       1 MOL     0.2187
     23 C          47.5638  -21.9812    5.7263 C.3       1 MOL     0.0752
     24 C          47.6382  -23.4743    5.9522 C.3       1 MOL     0.0134
     25 C          47.8038  -22.5518    7.0777 C.3       1 MOL     0.0134
     26 C          41.7129  -21.3660    8.3128 C.ar      1 MOL     0.1355
     27 C          40.3782  -21.6438    8.1220 C.ar      1 MOL     0.0392
     28 C          39.4233  -20.6260    8.2584 C.ar      1 MOL     0.0066
     29 O          34.2746  -19.1400    5.8347 O.2       1 MOL    -0.2658
     30 O          45.5443  -22.2052    4.5961 O.2       1 MOL    -0.2753
     31 O          44.0399  -19.9357    9.9429 O.2       1 MOL    -0.2699
     32 F          42.6775  -22.3235    8.1891 F         1 MOL    -0.2047
     33 H          35.4098  -18.2080    3.9574 H         1 MOL     0.0625
     34 H          37.2935  -17.1581    2.8328 H         1 MOL     0.0618
     35 H          39.2766  -16.7158    4.1213 H         1 MOL     0.0618
     36 H          39.4473  -17.2741    6.4465 H         1 MOL     0.0624
     37 H          38.5058  -18.1344    9.7569 H         1 MOL     0.0377
     38 H          39.3278  -17.3059    8.4450 H         1 MOL     0.0377
     39 H          41.4028  -18.1130    9.0144 H         1 MOL     0.0629
     40 H          46.0348  -19.7630    8.6001 H         1 MOL     0.0480
     41 H          45.7316  -18.0758    8.1531 H         1 MOL     0.0480
     42 H          47.3837  -19.6642    6.7920 H         1 MOL     0.0480
     43 H          46.5018  -18.3465    6.0691 H         1 MOL     0.0480
     44 H          43.8428  -20.6987    4.9317 H         1 MOL     0.0480
     45 H          44.4497  -19.1072    4.5094 H         1 MOL     0.0480
     46 H          42.6235  -19.7072    6.4810 H         1 MOL     0.0480
     47 H          43.4879  -18.1797    6.2330 H         1 MOL     0.0480
     48 H          48.0670  -21.2435    5.1373 H         1 MOL     0.0394
     49 H          48.4770  -24.0297    5.5873 H         1 MOL     0.0273
     50 H          46.9974  -24.3049    5.7409 H         1 MOL     0.0273
     51 H          48.7639  -22.4429    7.5374 H         1 MOL     0.0273
     52 H          47.3290  -22.4431    8.0296 H         1 MOL     0.0273
     53 H          40.0806  -22.6021    7.8786 H         1 MOL     0.0646
     54 H          38.4292  -20.8611    8.1096 H         1 MOL     0.0621
     55 H          34.6938  -19.5949    8.2789 H         1 MOL     0.1921
@<TRIPOS>BOND
     1    1   18 1 
     2    1   21 1 
     3    1   17 am
     4    2   20 1 
     5    2   22 am
     6    2   19 1 
     7    3    4 ar
     8    3   12 ar
     9    4   55 1 
    10    4    5 ar
    11    5    6 ar
    12    5   29 2 
    13    6    7 ar
    14    6   11 ar
    15    7    8 ar
    16    7   33 1 
    17    8    9 ar
    18    8   34 1 
    19    9   10 ar
    20    9   35 1 
    21   10   11 ar
    22   10   36 1 
    23   11   12 ar
    24   12   13 1 
    25   13   14 1 
    26   13   37 1 
    27   13   38 1 
    28   14   15 ar
    29   14   28 ar
    30   15   16 ar
    31   15   39 1 
    32   16   17 1 
    33   16   26 ar
    34   17   31 2 
    35   18   19 1 
    36   18   40 1 
    37   18   41 1 
    38   19   42 1 
    39   19   43 1 
    40   20   21 1 
    41   20   44 1 
    42   20   45 1 
    43   21   46 1 
    44   21   47 1 
    45   22   23 1 
    46   22   30 2 
    47   23   24 1 
    48   23   25 1 
    49   23   48 1 
    50   24   25 1 
    51   24   49 1 
    52   24   50 1 
    53   25   51 1 
    54   25   52 1 
    55   26   27 ar
    56   26   32 1 
    57   27   28 ar
    58   27   53 1 
    59   28   54 1 
@<TRIPOS>SUBSTRUCTURE
1 MOL         1
@<TRIPOS>MOLECULE
query molecule
   55    59     1     0     0
SMALL
NO_CHARGE

@<TRIPOS>ATOM
      1 N          -2.3882    8.6031   10.2624 N.am      1 MOL    -0.2945
      2 N          -3.0005   11.1133   10.5315 N.am      1 MOL    -0.2983
      3 N          -2.1184    3.8511    7.1658 N.ar      1 MOL    -0.1750
      4 N          -2.7381    2.9286    7.8610 N.ar      1 MOL    -0.2425
      5 C          -2.0988    2.0166    8.6070 C.ar      1 MOL     0.2725
      6 C          -0.7200    2.0433    8.6503 C.ar      1 MOL     0.0496
      7 C          -0.0040    1.1051    9.3948 C.ar      1 MOL     0.0138
      8 C           1.3738    1.1379    9.4063 C.ar      1 MOL     0.0008
      9 C           1.9820    2.1237    8.6583 C.ar      1 MOL     0.0007
     10 C           1.2843    3.0607    7.9147 C.ar      1 MOL     0.0103
     11 C          -0.0789    3.0211    7.9122 C.ar      1 MOL     0.0106
     12 C          -0.7529    3.9438    7.1579 C.ar      1 MOL     0.0736
     13 C          -0.1925    5.0536    6.3981 C.3       1 MOL     0.0925
     14 C           0.1772    6.1753    7.3050 C.ar      1 MOL    -0.0406
     15 C          -0.6923    6.3892    8.3893 C.ar      1 MOL     0.0196
     16 C          -0.4408    7.4083    9.2764 C.ar      1 MOL     0.0723
     17 C          -1.3392    7.6609   10.4255 C.2       1 MOL     0.2495
     18 C          -3.2778    8.8698   11.3461 C.3       1 MOL     0.1268
     19 C          -3.8844   10.2548   11.2764 C.3       1 MOL     0.1265
     20 C          -2.7578   10.7615    9.1282 C.3       1 MOL     0.1265
     21 C          -2.5324    9.2782    8.9859 C.3       1 MOL     0.1268
     22 C          -2.3894   12.2354   11.0987 C.2       1 MOL     0.2187
     23 C          -2.5201   12.7062   12.4802 C.3       1 MOL     0.0752
     24 C          -1.2345   12.8341   13.2656 C.3       1 MOL     0.0134
     25 C          -2.2173   11.8100   13.6269 C.3       1 MOL     0.0134
     26 C           0.6375    8.2541    9.1674 C.ar      1 MOL     0.1355
     27 C           1.4880    8.0438    8.1056 C.ar      1 MOL     0.0392
     28 C           1.2337    7.0056    7.1981 C.ar      1 MOL     0.0066
     29 O          -2.6755    1.1253    9.2814 O.2       1 MOL    -0.2658
     30 O          -1.6279   12.9417   10.3461 O.2       1 MOL    -0.2753
     31 O          -1.2011    7.0736   11.5231 O.2       1 MOL    -0.2699
     32 F           0.8436    9.2527   10.0746 F         1 MOL    -0.2047
     33 H          -0.5067    0.3861    9.9383 H         1 MOL     0.0625
     34 H           1.9245    0.4557    9.9491 H         1 MOL     0.0618
     35 H           3.0127    2.1651    8.6520 H         1 MOL     0.0618
     36 H           1.7877    3.7789    7.3704 H         1 MOL     0.0624
     37 H          -0.9174    5.3975    5.6901 H         1 MOL     0.0377
     38 H           0.6882    4.7160    5.8922 H         1 MOL     0.0377
     39 H          -1.5172    5.7829    8.5183 H         1 MOL     0.0629
     40 H          -2.7357    8.7788   12.2645 H         1 MOL     0.0480
     41 H          -4.0792    8.1623   11.2881 H         1 MOL     0.0480
     42 H          -4.0124   10.6412   12.2656 H         1 MOL     0.0480
     43 H          -4.8384   10.2088   10.7934 H         1 MOL     0.0480
     44 H          -1.8919   11.2835    8.7785 H         1 MOL     0.0480
     45 H          -3.6142   11.0370    8.5489 H         1 MOL     0.0480
     46 H          -1.6408    9.1212    8.4155 H         1 MOL     0.0480
     47 H          -3.3930    8.8679    8.5019 H         1 MOL     0.0480
     48 H          -3.3575   13.3216   12.2263 H         1 MOL     0.0394
     49 H          -1.0802   13.6776   13.9059 H         1 MOL     0.0273
     50 H          -0.1933   12.8319   13.0190 H         1 MOL     0.0273
     51 H          -2.7727   11.9053   14.5365 H         1 MOL     0.0273
     52 H          -2.1769   10.7493   13.7556 H         1 MOL     0.0273
     53 H           2.3134    8.6509    7.9780 H         1 MOL     0.0646
     54 H           1.8870    6.8698    6.4104 H         1 MOL     0.0621
     55 H          -3.7223    2.9048    7.8343 H         1 MOL     0.1921
@<TRIPOS>BOND
     1    1   18 1 
     2    1   21 1 
     3    1   17 am
     4    2   20 1 
     5    2   22 am
     6    2   19 1 
     7    3    4 ar
     8    3   12 ar
     9    4   55 1 
    10    4    5 ar
    11    5    6 ar
    12    5   29 2 
    13    6    7 ar
    14    6   11 ar
    15    7    8 ar
    16    7   33 1 
    17    8    9 ar
    18    8   34 1 
    19    9   10 ar
    20    9   35 1 
    21   10   11 ar
    22   10   36 1 
    23   11   12 ar
    24   12   13 1 
    25   13   14 1 
    26   13   37 1 
    27   13   38 1 
    28   14   15 ar
    29   14   28 ar
    30   15   16 ar
    31   15   39 1 
    32   16   17 1 
    33   16   26 ar
    34   17   31 2 
    35   18   19 1 
    36   18   40 1 
    37   18   41 1 
    38   19   42 1 
    39   19   43 1 
    40   20   21 1 
    41   20   44 1 
    42   20   45 1 
    43   21   46 1 
    44   21   47 1 
    45   22   23 1 
    46   22   30 2 
    47   23   24 1 
    48   23   25 1 
    49   23   48 1 
    50   24   25 1 
    51   24   49 1 
    52   24   50 1 
    53   25   51 1 
    54   25   52 1 
    55   26   27 ar
    56   26   32 1 
    57   27   28 ar
    58   27   53 1 
    59   28   54 1 
@<TRIPOS>SUBSTRUCTURE
1 MOL         1
@<TRIPOS>MOLECULE
query molecule
   55    59     1     0     0
SMALL
NO_CHARGE

@<TRIPOS>ATOM
      1 N          47.1822    0.6750   34.9652 N.am      1 MOL    -0.2945
      2 N          45.8681   -1.4110   35.7838 N.am      1 MOL    -0.2983
      3 N          49.5621   -1.8715   28.7428 N.ar      1 MOL    -0.1750
      4 N          48.9728   -2.4578   27.7292 N.ar      1 MOL    -0.2425
      5 C          47.8774   -3.2199   27.8562 C.ar      1 MOL     0.2725
      6 C          47.3374   -3.4015   29.1128 C.ar      1 MOL     0.0496
      7 C          46.2099   -4.2011   29.3041 C.ar      1 MOL     0.0138
      8 C          45.7005   -4.3855   30.5713 C.ar      1 MOL     0.0008
      9 C          46.3547   -3.7518   31.6066 C.ar      1 MOL     0.0007
     10 C          47.4744   -2.9560   31.4314 C.ar      1 MOL     0.0103
     11 C          47.9690   -2.7779   30.1731 C.ar      1 MOL     0.0106
     12 C          49.0868   -2.0024   30.0196 C.ar      1 MOL     0.0736
     13 C          49.7942   -1.2467   31.0451 C.3       1 MOL     0.0925
     14 C          49.1699    0.0920   31.2333 C.ar      1 MOL    -0.0406
     15 C          48.5078    0.2846   32.4589 C.ar      1 MOL     0.0196
     16 C          47.8912    1.4844   32.7215 C.ar      1 MOL     0.0723
     17 C          47.1834    1.7164   34.0007 C.2       1 MOL     0.2495
     18 C          46.5144    0.8632   36.2125 C.3       1 MOL     0.1268
     19 C          46.0527   -0.4393   36.8301 C.3       1 MOL     0.1265
     20 C          47.0551   -1.7874   35.0084 C.3       1 MOL     0.1265
     21 C          47.8665   -0.5670   34.6571 C.3       1 MOL     0.1268
     22 C          44.6240   -1.9824   35.5009 C.2       1 MOL     0.2187
     23 C          43.3520   -1.7010   36.1716 C.3       1 MOL     0.0752
     24 C          43.4380   -1.3230   37.6331 C.3       1 MOL     0.0134
     25 C          42.8335   -2.5972   37.2382 C.3       1 MOL     0.0134
     26 C          47.8817    2.5369   31.8371 C.ar      1 MOL     0.1355
     27 C          48.5300    2.3473   30.6377 C.ar      1 MOL     0.0392
     28 C          49.1593    1.1240   30.3661 C.ar      1 MOL     0.0066
     29 O          47.2974   -3.7892   26.8963 O.2       1 MOL    -0.2658
     30 O          44.5683   -2.8476   34.5556 O.2       1 MOL    -0.2753
     31 O          46.5935    2.7924   34.2522 O.2       1 MOL    -0.2699
     32 F          47.2541    3.7093   32.1446 F         1 MOL    -0.2047
     33 H          45.7563   -4.6545   28.4956 H         1 MOL     0.0625
     34 H          44.8683   -4.9712   30.7376 H         1 MOL     0.0618
     35 H          45.9904   -3.8778   32.5634 H         1 MOL     0.0618
     36 H          47.9283   -2.5037   32.2407 H         1 MOL     0.0624
     37 H          50.8148   -1.1208   30.7489 H         1 MOL     0.0377
     38 H          49.7403   -1.7841   31.9690 H         1 MOL     0.0377
     39 H          48.4847   -0.4730   33.1590 H         1 MOL     0.0629
     40 H          45.6606    1.4886   36.0528 H         1 MOL     0.0480
     41 H          47.2127    1.3122   36.8884 H         1 MOL     0.0480
     42 H          45.1280   -0.2848   37.3451 H         1 MOL     0.0480
     43 H          46.7858   -0.7902   37.5264 H         1 MOL     0.0480
     44 H          46.7477   -2.2761   34.1077 H         1 MOL     0.0480
     45 H          47.6595   -2.4452   35.5976 H         1 MOL     0.0480
     46 H          48.0782   -0.5877   33.6084 H         1 MOL     0.0480
     47 H          48.7593   -0.5952   35.2448 H         1 MOL     0.0480
     48 H          42.9289   -1.3013   35.2741 H         1 MOL     0.0394
     49 H          42.8242   -0.5361   38.0195 H         1 MOL     0.0273
     50 H          44.2270   -1.0310   38.2944 H         1 MOL     0.0273
     51 H          41.7785   -2.7398   37.3458 H         1 MOL     0.0273
     52 H          43.0048   -3.6186   37.5042 H         1 MOL     0.0273
     53 H          48.5529    3.1065   29.9382 H         1 MOL     0.0646
     54 H          49.6381    1.0079   29.4590 H         1 MOL     0.0621
     55 H          49.3535   -2.3315   26.8298 H         1 MOL     0.1921
@<TRIPOS>BOND
     1    1   18 1 
     2    1   21 1 
     3    1   17 am
     4    2   20 1 
     5    2   22 am
     6    2   19 1 
     7    3    4 ar
     8    3   12 ar
     9    4   55 1 
    10    4    5 ar
    11    5    6 ar
    12    5   29 2 
    13    6    7 ar
    14    6   11 ar
    15    7    8 ar
    16    7   33 1 
    17    8    9 ar
    18    8   34 1 
    19    9   10 ar
    20    9   35 1 
    21   10   11 ar
    22   10   36 1 
    23   11   12 ar
    24   12   13 1 
    25   13   14 1 
    26   13   37 1 
    27   13   38 1 
    28   14   15 ar
    29   14   28 ar
    30   15   16 ar
    31   15   39 1 
    32   16   17 1 
    33   16   26 ar
    34   17   31 2 
    35   18   19 1 
    36   18   40 1 
    37   18   41 1 
    38   19   42 1 
    39   19   43 1 
    40   20   21 1 
    41   20   44 1 
    42   20   45 1 
    43   21   46 1 
    44   21   47 1 
    45   22   23 1 
    46   22   30 2 
    47   23   24 1 
    48   23   25 1 
    49   23   48 1 
    50   24   25 1 
    51   24   49 1 
    52   24   50 1 
    53   25   51 1 
    54   25   52 1 
    55   26   27 ar
    56   26   32 1 
    57   27   28 ar
    58   27   53 1 
    59   28   54 1 
@<TRIPOS>SUBSTRUCTURE
1 MOL         1
