@<TRIPOS>MOLECULE
query molecule
   55    59     1     0     0
SMALL
NO_CHARGE

@<TRIPOS>ATOM
      1 N          37.4833  -14.8364    6.3997 N.am      1 MOL    -0.2945
      2 N          38.5138  -15.9372    8.8066 N.am      1 MOL    -0.2983
      3 N          33.0098  -18.8920    5.3770 N.ar      1 MOL    -0.1750
      4 N          32.3661  -19.0030    6.5362 N.ar      1 MOL    -0.2425
      5 C          33.0109  -19.3989    7.7266 C.ar      1 MOL     0.2725
      6 C          34.3947  -19.6310    7.6782 C.ar      1 MOL     0.0496
      7 C          35.0858  -20.0221    8.8262 C.ar      1 MOL     0.0138
      8 C          36.4619  -20.2437    8.7710 C.ar      1 MOL     0.0008
      9 C          37.1485  -20.0723    7.5686 C.ar      1 MOL     0.0007
     10 C          36.4612  -19.6869    6.4160 C.ar      1 MOL     0.0103
     11 C          35.0750  -19.4655    6.4394 C.ar      1 MOL     0.0106
     12 C          34.3566  -19.0958    5.2853 C.ar      1 MOL     0.0736
     13 C          35.0226  -18.9402    3.9552 C.3       1 MOL     0.0925
     14 C          35.3547  -17.5273    3.6377 C.ar      1 MOL    -0.0406
     15 C          36.2113  -16.7954    4.4633 C.ar      1 MOL     0.0196
     16 C          36.5656  -15.4712    4.1860 C.ar      1 MOL     0.0723
     17 C          37.4777  -14.7045    5.0606 C.2       1 MOL     0.2495
     18 C          38.5243  -14.1139    7.1402 C.3       1 MOL     0.1268
     19 C          39.3620  -15.1438    7.9462 C.3       1 MOL     0.1265
     20 C          37.4160  -16.6172    8.1154 C.3       1 MOL     0.1265
     21 C          36.5948  -15.5983    7.2497 C.3       1 MOL     0.1268
     22 C          38.6912  -16.1187   10.1363 C.2       1 MOL     0.2187
     23 C          39.6120  -15.2656   10.9021 C.3       1 MOL     0.0752
     24 C          41.0603  -15.3400   10.6697 C.3       1 MOL     0.0134
     25 C          40.4618  -16.1243   11.7884 C.3       1 MOL     0.0134
     26 C          36.0498  -14.8981    3.0124 C.ar      1 MOL     0.1355
     27 C          35.1885  -15.6109    2.1722 C.ar      1 MOL     0.0392
     28 C          34.8346  -16.9259    2.4866 C.ar      1 MOL     0.0066
     29 O          32.3215  -19.5329    8.7501 O.2       1 MOL    -0.2658
     30 O          38.0077  -16.9381   10.7772 O.2       1 MOL    -0.2753
     31 O          38.2690  -13.9478    4.4764 O.2       1 MOL    -0.2699
     32 F          36.3806  -13.6314    2.6630 F         1 MOL    -0.2047
     33 H          34.5549  -20.1543    9.7580 H         1 MOL     0.0625
     34 H          36.9934  -20.5492    9.6605 H         1 MOL     0.0618
     35 H          38.2140  -20.2410    7.5319 H         1 MOL     0.0618
     36 H          37.0069  -19.5577    5.4912 H         1 MOL     0.0624
     37 H          34.3460  -19.3299    3.1745 H         1 MOL     0.0377
     38 H          35.9657  -19.5185    3.9726 H         1 MOL     0.0377
     39 H          36.6131  -17.2728    5.3482 H         1 MOL     0.0629
     40 H          38.0437  -13.3792    7.8261 H         1 MOL     0.0480
     41 H          39.1710  -13.5563    6.4260 H         1 MOL     0.0480
     42 H          40.1458  -14.6594    8.5676 H         1 MOL     0.0480
     43 H          39.8551  -15.8430    7.2264 H         1 MOL     0.0480
     44 H          36.7829  -17.1502    8.8561 H         1 MOL     0.0480
     45 H          37.8589  -17.3870    7.4356 H         1 MOL     0.0480
     46 H          36.0641  -14.8872    7.9316 H         1 MOL     0.0480
     47 H          35.8323  -16.1196    6.6354 H         1 MOL     0.0480
     48 H          39.1407  -14.4043   11.3250 H         1 MOL     0.0394
     49 H          41.6253  -14.4640   10.9679 H         1 MOL     0.0273
     50 H          41.3768  -15.8875    9.7898 H         1 MOL     0.0273
     51 H          40.6561  -15.7753   12.7931 H         1 MOL     0.0273
     52 H          40.4210  -17.1955   11.6395 H         1 MOL     0.0273
     53 H          34.7975  -15.1494    1.2762 H         1 MOL     0.0646
     54 H          34.1677  -17.4767    1.8404 H         1 MOL     0.0621
     55 H          31.3840  -18.8032    6.6303 H         1 MOL     0.1921
@<TRIPOS>BOND
     1    1   18 1 
     2    1   21 1 
     3    1   17 am
     4    2   20 1 
     5    2   22 am
     6    2   19 1 
     7    3    4 ar
     8    3   12 ar
     9    4   55 1 
    10    4    5 ar
    11    5    6 ar
    12    5   29 2 
    13    6    7 ar
    14    6   11 ar
    15    7    8 ar
    16    7   33 1 
    17    8    9 ar
    18    8   34 1 
    19    9   10 ar
    20    9   35 1 
    21   10   11 ar
    22   10   36 1 
    23   11   12 ar
    24   12   13 1 
    25   13   14 1 
    26   13   37 1 
    27   13   38 1 
    28   14   15 ar
    29   14   28 ar
    30   15   16 ar
    31   15   39 1 
    32   16   17 1 
    33   16   26 ar
    34   17   31 2 
    35   18   19 1 
    36   18   40 1 
    37   18   41 1 
    38   19   42 1 
    39   19   43 1 
    40   20   21 1 
    41   20   44 1 
    42   20   45 1 
    43   21   46 1 
    44   21   47 1 
    45   22   23 1 
    46   22   30 2 
    47   23   24 1 
    48   23   25 1 
    49   23   48 1 
    50   24   25 1 
    51   24   49 1 
    52   24   50 1 
    53   25   51 1 
    54   25   52 1 
    55   26   27 ar
    56   26   32 1 
    57   27   28 ar
    58   27   53 1 
    59   28   54 1 
@<TRIPOS>SUBSTRUCTURE
1 MOL         1
@<TRIPOS>MOLECULE
query molecule
   55    59     1     0     0
SMALL
NO_CHARGE

@<TRIPOS>ATOM
      1 N          44.0289  -15.5273   24.7371 N.am      1 MOL    -0.2945
      2 N          43.2161  -13.3805   26.4668 N.am      1 MOL    -0.2983
      3 N          45.2873  -14.8426   17.0271 N.ar      1 MOL    -0.1750
      4 N          45.3216  -15.1253   15.7278 N.ar      1 MOL    -0.2425
      5 C          44.1311  -15.1962   14.9703 C.ar      1 MOL     0.2725
      6 C          42.9087  -14.9431   15.6339 C.ar      1 MOL     0.0496
      7 C          41.6951  -15.0082   14.9426 C.ar      1 MOL     0.0138
      8 C          40.4910  -14.7616   15.6058 C.ar      1 MOL     0.0008
      9 C          40.4909  -14.4241   16.9549 C.ar      1 MOL     0.0007
     10 C          41.6927  -14.3410   17.6523 C.ar      1 MOL     0.0103
     11 C          42.9189  -14.6093   17.0187 C.ar      1 MOL     0.0106
     12 C          44.1408  -14.5663   17.7164 C.ar      1 MOL     0.0736
     13 C          44.2223  -14.2160   19.1691 C.3       1 MOL     0.0925
     14 C          43.8489  -15.2969   20.1227 C.ar      1 MOL    -0.0406
     15 C          44.3811  -15.2343   21.4260 C.ar      1 MOL     0.0196
     16 C          44.0638  -16.2116   22.3793 C.ar      1 MOL     0.0723
     17 C          44.6751  -16.1471   23.7251 C.2       1 MOL     0.2495
     18 C          44.6896  -15.3550   26.0308 C.3       1 MOL     0.1268
     19 C          44.5832  -13.8726   26.5180 C.3       1 MOL     0.1265
     20 C          42.5052  -13.6168   25.2137 C.3       1 MOL     0.1265
     21 C          42.6549  -15.0676   24.6756 C.3       1 MOL     0.1268
     22 C          42.7034  -12.4047   27.2776 C.2       1 MOL     0.2187
     23 C          43.5282  -11.8147   28.3471 C.3       1 MOL     0.0752
     24 C          43.9774  -12.7176   29.4295 C.3       1 MOL     0.0134
     25 C          42.7674  -11.8655   29.6370 C.3       1 MOL     0.0134
     26 C          43.1990  -17.2492   22.0341 C.ar      1 MOL     0.1355
     27 C          42.6654  -17.3308   20.7479 C.ar      1 MOL     0.0392
     28 C          42.9952  -16.3578   19.8014 C.ar      1 MOL     0.0066
     29 O          44.2187  -15.4566   13.7594 O.2       1 MOL    -0.2658
     30 O          41.5671  -11.9372   27.1003 O.2       1 MOL    -0.2753
     31 O          45.7954  -16.6604   23.8355 O.2       1 MOL    -0.2699
     32 F          42.8730  -18.1988   22.9428 F         1 MOL    -0.2047
     33 H          41.6955  -15.2452   13.8887 H         1 MOL     0.0625
     34 H          39.5620  -14.8299   15.0604 H         1 MOL     0.0618
     35 H          39.5595  -14.2323   17.4603 H         1 MOL     0.0618
     36 H          41.6845  -14.0874   18.7019 H         1 MOL     0.0624
     37 H          43.5526  -13.3486   19.3488 H         1 MOL     0.0377
     38 H          45.2709  -13.9206   19.3865 H         1 MOL     0.0377
     39 H          45.0454  -14.4256   21.6930 H         1 MOL     0.0629
     40 H          45.7500  -15.6859   25.9525 H         1 MOL     0.0480
     41 H          44.1777  -16.0232   26.7669 H         1 MOL     0.0480
     42 H          45.2089  -13.2353   25.8454 H         1 MOL     0.0480
     43 H          44.9793  -13.7680   27.5546 H         1 MOL     0.0480
     44 H          42.9431  -12.9228   24.4475 H         1 MOL     0.0480
     45 H          41.4336  -13.3475   25.3371 H         1 MOL     0.0480
     46 H          42.2997  -15.1384   23.6220 H         1 MOL     0.0480
     47 H          42.0374  -15.7575   25.2986 H         1 MOL     0.0480
     48 H          44.0577  -10.9344   28.0749 H         1 MOL     0.0394
     49 H          44.8694  -12.4111   29.9647 H         1 MOL     0.0273
     50 H          43.8231  -13.7775   29.2850 H         1 MOL     0.0273
     51 H          42.8670  -11.0099   30.2949 H         1 MOL     0.0273
     52 H          41.8165  -12.3860   29.6370 H         1 MOL     0.0273
     53 H          42.0060  -18.1410   20.4814 H         1 MOL     0.0646
     54 H          42.5811  -16.4249   18.8046 H         1 MOL     0.0621
     55 H          46.1784  -15.2936   15.2262 H         1 MOL     0.1921
@<TRIPOS>BOND
     1    1   18 1 
     2    1   21 1 
     3    1   17 am
     4    2   20 1 
     5    2   22 am
     6    2   19 1 
     7    3    4 ar
     8    3   12 ar
     9    4   55 1 
    10    4    5 ar
    11    5    6 ar
    12    5   29 2 
    13    6    7 ar
    14    6   11 ar
    15    7    8 ar
    16    7   33 1 
    17    8    9 ar
    18    8   34 1 
    19    9   10 ar
    20    9   35 1 
    21   10   11 ar
    22   10   36 1 
    23   11   12 ar
    24   12   13 1 
    25   13   14 1 
    26   13   37 1 
    27   13   38 1 
    28   14   15 ar
    29   14   28 ar
    30   15   16 ar
    31   15   39 1 
    32   16   17 1 
    33   16   26 ar
    34   17   31 2 
    35   18   19 1 
    36   18   40 1 
    37   18   41 1 
    38   19   42 1 
    39   19   43 1 
    40   20   21 1 
    41   20   44 1 
    42   20   45 1 
    43   21   46 1 
    44   21   47 1 
    45   22   23 1 
    46   22   30 2 
    47   23   24 1 
    48   23   25 1 
    49   23   48 1 
    50   24   25 1 
    51   24   49 1 
    52   24   50 1 
    53   25   51 1 
    54   25   52 1 
    55   26   27 ar
    56   26   32 1 
    57   27   28 ar
    58   27   53 1 
    59   28   54 1 
@<TRIPOS>SUBSTRUCTURE
1 MOL         1
@<TRIPOS>MOLECULE
query molecule
   55    59     1     0     0
SMALL
NO_CHARGE

@<TRIPOS>ATOM
      1 N           3.5431   -7.5878   17.4751 N.am      1 MOL    -0.2945
      2 N           5.3979   -5.6994   18.4996 N.am      1 MOL    -0.2983
      3 N           4.1391  -13.7537   19.1476 N.ar      1 MOL    -0.1750
      4 N           4.9702  -14.1707   20.0970 N.ar      1 MOL    -0.2425
      5 C           4.4729  -14.8381   21.2387 C.ar      1 MOL     0.2725
      6 C           3.0777  -15.0451   21.3391 C.ar      1 MOL     0.0496
      7 C           2.5006  -15.6763   22.4420 C.ar      1 MOL     0.0138
      8 C           1.1238  -15.9068   22.5012 C.ar      1 MOL     0.0008
      9 C           0.3054  -15.5214   21.4411 C.ar      1 MOL     0.0007
     10 C           0.8607  -14.8744   20.3401 C.ar      1 MOL     0.0103
     11 C           2.2374  -14.6025   20.2793 C.ar      1 MOL     0.0106
     12 C           2.7874  -13.9101   19.1890 C.ar      1 MOL     0.0736
     13 C           1.9169  -13.3869   18.0969 C.3       1 MOL     0.0925
     14 C           1.6345  -11.9393   18.2125 C.ar      1 MOL    -0.0406
     15 C           2.4747  -11.0175   17.5837 C.ar      1 MOL     0.0196
     16 C           2.1984   -9.6414   17.6258 C.ar      1 MOL     0.0723
     17 C           3.1257   -8.7412   16.9091 C.2       1 MOL     0.2495
     18 C           3.9764   -6.4906   16.6108 C.3       1 MOL     0.1268
     19 C           5.3534   -5.9196   17.0584 C.3       1 MOL     0.1265
     20 C           5.0031   -6.8306   19.3301 C.3       1 MOL     0.1265
     21 C           3.5999   -7.3537   18.9096 C.3       1 MOL     0.1268
     22 C           6.0102   -4.6329   19.0815 C.2       1 MOL     0.2187
     23 C           6.2274   -3.4277   18.2450 C.3       1 MOL     0.0752
     24 C           5.9895   -2.1451   18.9530 C.3       1 MOL     0.0134
     25 C           4.9124   -2.7256   18.0873 C.3       1 MOL     0.0134
     26 C           1.0621   -9.2045   18.3037 C.ar      1 MOL     0.1355
     27 C           0.2266  -10.1156   18.9559 C.ar      1 MOL     0.0392
     28 C           0.5132  -11.4835   18.9119 C.ar      1 MOL     0.0066
     29 O           5.2947  -15.2204   22.0879 O.2       1 MOL    -0.2658
     30 O           6.3900   -4.6390   20.2615 O.2       1 MOL    -0.2753
     31 O           3.4318   -9.0744   15.7559 O.2       1 MOL    -0.2699
     32 F           0.7315   -7.8911   18.3382 F         1 MOL    -0.2047
     33 H           3.1240  -15.9952   23.2650 H         1 MOL     0.0625
     34 H           0.6858  -16.3834   23.3663 H         1 MOL     0.0618
     35 H          -0.7577  -15.7104   21.4723 H         1 MOL     0.0618
     36 H           0.2232  -14.5698   19.5203 H         1 MOL     0.0624
     37 H           0.9535  -13.9311   18.1276 H         1 MOL     0.0377
     38 H           2.4249  -13.5648   17.1301 H         1 MOL     0.0377
     39 H           3.3465  -11.3681   17.0487 H         1 MOL     0.0629
     40 H           3.2131   -5.6773   16.6769 H         1 MOL     0.0480
     41 H           4.0097   -6.8430   15.5553 H         1 MOL     0.0480
     42 H           5.5974   -4.9726   16.5286 H         1 MOL     0.0480
     43 H           6.1472   -6.6664   16.8047 H         1 MOL     0.0480
     44 H           5.0144   -6.5240   20.3999 H         1 MOL     0.0480
     45 H           5.7576   -7.6429   19.1965 H         1 MOL     0.0480
     46 H           2.8310   -6.5852   19.1663 H         1 MOL     0.0480
     47 H           3.3393   -8.2934   19.4463 H         1 MOL     0.0480
     48 H           6.8816   -3.5330   17.4213 H         1 MOL     0.0394
     49 H           6.4881   -1.2671   18.5584 H         1 MOL     0.0273
     50 H           5.8519   -2.1988   20.0252 H         1 MOL     0.0273
     51 H           4.7180   -2.2357   17.1428 H         1 MOL     0.0273
     52 H           4.0641   -3.1502   18.6133 H         1 MOL     0.0273
     53 H          -0.6425   -9.7607   19.4912 H         1 MOL     0.0646
     54 H          -0.1369  -12.1849   19.4136 H         1 MOL     0.0621
     55 H           5.9665  -14.0194   20.0481 H         1 MOL     0.1921
@<TRIPOS>BOND
     1    1   18 1 
     2    1   21 1 
     3    1   17 am
     4    2   20 1 
     5    2   22 am
     6    2   19 1 
     7    3    4 ar
     8    3   12 ar
     9    4   55 1 
    10    4    5 ar
    11    5    6 ar
    12    5   29 2 
    13    6    7 ar
    14    6   11 ar
    15    7    8 ar
    16    7   33 1 
    17    8    9 ar
    18    8   34 1 
    19    9   10 ar
    20    9   35 1 
    21   10   11 ar
    22   10   36 1 
    23   11   12 ar
    24   12   13 1 
    25   13   14 1 
    26   13   37 1 
    27   13   38 1 
    28   14   15 ar
    29   14   28 ar
    30   15   16 ar
    31   15   39 1 
    32   16   17 1 
    33   16   26 ar
    34   17   31 2 
    35   18   19 1 
    36   18   40 1 
    37   18   41 1 
    38   19   42 1 
    39   19   43 1 
    40   20   21 1 
    41   20   44 1 
    42   20   45 1 
    43   21   46 1 
    44   21   47 1 
    45   22   23 1 
    46   22   30 2 
    47   23   24 1 
    48   23   25 1 
    49   23   48 1 
    50   24   25 1 
    51   24   49 1 
    52   24   50 1 
    53   25   51 1 
    54   25   52 1 
    55   26   27 ar
    56   26   32 1 
    57   27   28 ar
    58   27   53 1 
    59   28   54 1 
@<TRIPOS>SUBSTRUCTURE
1 MOL         1
@<TRIPOS>MOLECULE
query molecule
   55    59     1     0     0
SMALL
NO_CHARGE

@<TRIPOS>ATOM
      1 N          11.8572    9.0859   23.7160 N.am      1 MOL    -0.2945
      2 N          14.6260    9.1740   23.0282 N.am      1 MOL    -0.2983
      3 N          10.2291    2.9773   28.1642 N.ar      1 MOL    -0.1750
      4 N          10.9040    1.8369   28.2994 N.ar      1 MOL    -0.2425
      5 C          12.3170    1.8547   28.3330 C.ar      1 MOL     0.2725
      6 C          12.9781    3.0832   28.1117 C.ar      1 MOL     0.0496
      7 C          14.3701    3.1532   28.0753 C.ar      1 MOL     0.0138
      8 C          15.0135    4.3530   27.7597 C.ar      1 MOL     0.0008
      9 C          14.2668    5.4969   27.4998 C.ar      1 MOL     0.0007
     10 C          12.8840    5.4532   27.5864 C.ar      1 MOL     0.0103
     11 C          12.2105    4.2608   27.8884 C.ar      1 MOL     0.0106
     12 C          10.8096    4.1970   27.9633 C.ar      1 MOL     0.0736
     13 C           9.9428    5.4080   27.8316 C.3       1 MOL     0.0925
     14 C           9.7876    5.8746   26.4298 C.ar      1 MOL    -0.0406
     15 C          10.3157    7.1241   26.0710 C.ar      1 MOL     0.0196
     16 C          10.1831    7.6130   24.7613 C.ar      1 MOL     0.0723
     17 C          10.7354    8.9561   24.4639 C.2       1 MOL     0.2495
     18 C          12.5031   10.3887   23.5530 C.3       1 MOL     0.1268
     19 C          14.0642   10.3146   23.7202 C.3       1 MOL     0.1265
     20 C          13.9686    7.8979   23.2733 C.3       1 MOL     0.1265
     21 C          12.4524    7.9962   22.9842 C.3       1 MOL     0.1268
     22 C          15.7989    9.1232   22.3456 C.2       1 MOL     0.2187
     23 C          16.7110   10.2880   22.4304 C.3       1 MOL     0.0752
     24 C          18.1378    9.9488   22.1907 C.3       1 MOL     0.0134
     25 C          17.6370   10.1087   23.5960 C.3       1 MOL     0.0134
     26 C           9.5179    6.8336   23.8151 C.ar      1 MOL     0.1355
     27 C           8.9876    5.5867   24.1609 C.ar      1 MOL     0.0392
     28 C           9.1203    5.1091   25.4692 C.ar      1 MOL     0.0066
     29 O          12.9096    0.7784   28.5298 O.2       1 MOL    -0.2658
     30 O          16.1070    8.1353   21.6540 O.2       1 MOL    -0.2753
     31 O          10.1534    9.9089   24.9890 O.2       1 MOL    -0.2699
     32 F           9.3699    7.2793   22.5447 F         1 MOL    -0.2047
     33 H          14.9563    2.2647   28.2712 H         1 MOL     0.0625
     34 H          16.0923    4.3846   27.7068 H         1 MOL     0.0618
     35 H          14.7691    6.4173   27.2394 H         1 MOL     0.0618
     36 H          12.3133    6.3565   27.4095 H         1 MOL     0.0624
     37 H          10.4016    6.2271   28.4200 H         1 MOL     0.0377
     38 H           8.9409    5.1681   28.2347 H         1 MOL     0.0377
     39 H          10.8314    7.7199   26.8116 H         1 MOL     0.0629
     40 H          12.0570   11.1084   24.2768 H         1 MOL     0.0480
     41 H          12.2681   10.7523   22.5217 H         1 MOL     0.0480
     42 H          14.3067   10.2032   24.8056 H         1 MOL     0.0480
     43 H          14.5465   11.2485   23.3528 H         1 MOL     0.0480
     44 H          14.1477    7.6062   24.3327 H         1 MOL     0.0480
     45 H          14.4383    7.1263   22.6188 H         1 MOL     0.0480
     46 H          11.9459    7.0400   23.2772 H         1 MOL     0.0480
     47 H          12.2732    8.1508   21.8946 H         1 MOL     0.0480
     48 H          16.3004   11.2412   22.2216 H         1 MOL     0.0394
     49 H          18.7876   10.7374   21.8287 H         1 MOL     0.0273
     50 H          18.3440    8.9427   21.8506 H         1 MOL     0.0273
     51 H          17.9707   10.9939   24.1248 H         1 MOL     0.0273
     52 H          17.5355    9.1968   24.1740 H         1 MOL     0.0273
     53 H           8.4709    4.9919   23.4223 H         1 MOL     0.0646
     54 H           8.7088    4.1479   25.7406 H         1 MOL     0.0621
     55 H          10.4546    0.9368   28.3579 H         1 MOL     0.1921
@<TRIPOS>BOND
     1    1   18 1 
     2    1   21 1 
     3    1   17 am
     4    2   20 1 
     5    2   22 am
     6    2   19 1 
     7    3    4 ar
     8    3   12 ar
     9    4   55 1 
    10    4    5 ar
    11    5    6 ar
    12    5   29 2 
    13    6    7 ar
    14    6   11 ar
    15    7    8 ar
    16    7   33 1 
    17    8    9 ar
    18    8   34 1 
    19    9   10 ar
    20    9   35 1 
    21   10   11 ar
    22   10   36 1 
    23   11   12 ar
    24   12   13 1 
    25   13   14 1 
    26   13   37 1 
    27   13   38 1 
    28   14   15 ar
    29   14   28 ar
    30   15   16 ar
    31   15   39 1 
    32   16   17 1 
    33   16   26 ar
    34   17   31 2 
    35   18   19 1 
    36   18   40 1 
    37   18   41 1 
    38   19   42 1 
    39   19   43 1 
    40   20   21 1 
    41   20   44 1 
    42   20   45 1 
    43   21   46 1 
    44   21   47 1 
    45   22   23 1 
    46   22   30 2 
    47   23   24 1 
    48   23   25 1 
    49   23   48 1 
    50   24   25 1 
    51   24   49 1 
    52   24   50 1 
    53   25   51 1 
    54   25   52 1 
    55   26   27 ar
    56   26   32 1 
    57   27   28 ar
    58   27   53 1 
    59   28   54 1 
@<TRIPOS>SUBSTRUCTURE
1 MOL         1
@<TRIPOS>MOLECULE
query molecule
   55    59     1     0     0
SMALL
NO_CHARGE

@<TRIPOS>ATOM
      1 N          12.1259   -8.2681   34.8604 N.am      1 MOL    -0.2945
      2 N          10.7057  -10.6246   35.5166 N.am      1 MOL    -0.2983
      3 N          11.2659   -0.6668   35.4259 N.ar      1 MOL    -0.1750
      4 N          11.6398    0.4888   34.9036 N.ar      1 MOL    -0.2425
      5 C          11.0598    0.9737   33.7210 C.ar      1 MOL     0.2725
      6 C          10.0715    0.1721   33.1130 C.ar      1 MOL     0.0496
      7 C           9.4165    0.5978   31.9581 C.ar      1 MOL     0.0138
      8 C           8.4303   -0.1996   31.3785 C.ar      1 MOL     0.0008
      9 C           8.0966   -1.4317   31.9420 C.ar      1 MOL     0.0007
     10 C           8.7433   -1.8745   33.0933 C.ar      1 MOL     0.0103
     11 C           9.7277   -1.0851   33.7035 C.ar      1 MOL     0.0106
     12 C          10.3524   -1.5065   34.8831 C.ar      1 MOL     0.0736
     13 C          10.0386   -2.7886   35.5776 C.3       1 MOL     0.0925
     14 C          11.2017   -3.7107   35.6434 C.ar      1 MOL    -0.0406
     15 C          11.1358   -4.9320   34.9624 C.ar      1 MOL     0.0196
     16 C          12.2190   -5.8226   34.9904 C.ar      1 MOL     0.0723
     17 C          12.1018   -7.0788   34.2308 C.2       1 MOL     0.2495
     18 C          12.3610   -9.4703   34.0668 C.3       1 MOL     0.1268
     19 C          11.1201  -10.4046   34.1373 C.3       1 MOL     0.1265
     20 C          10.6516   -9.4706   36.4256 C.3       1 MOL     0.1265
     21 C          11.8633   -8.5017   36.2646 C.3       1 MOL     0.1268
     22 C          10.0369  -11.7443   35.9352 C.2       1 MOL     0.2187
     23 C           9.5982  -12.7294   34.9076 C.3       1 MOL     0.0752
     24 C           9.3834  -14.0846   35.4978 C.3       1 MOL     0.0134
     25 C          10.5911  -13.8057   34.6477 C.3       1 MOL     0.0134
     26 C          13.3700   -5.4836   35.6996 C.ar      1 MOL     0.1355
     27 C          13.4428   -4.2737   36.3941 C.ar      1 MOL     0.0392
     28 C          12.3556   -3.3960   36.3719 C.ar      1 MOL     0.0066
     29 O          11.4476    2.0717   33.2922 O.2       1 MOL    -0.2658
     30 O           9.7580  -11.9180   37.1330 O.2       1 MOL    -0.2753
     31 O          12.0152   -6.9743   33.0007 O.2       1 MOL    -0.2699
     32 F          14.4359   -6.3196   35.7148 F         1 MOL    -0.2047
     33 H           9.6705    1.5516   31.5205 H         1 MOL     0.0625
     34 H           7.9201    0.1409   30.4900 H         1 MOL     0.0618
     35 H           7.3333   -2.0452   31.4865 H         1 MOL     0.0618
     36 H           8.4791   -2.8286   33.5278 H         1 MOL     0.0624
     37 H           9.2217   -3.2891   35.0264 H         1 MOL     0.0377
     38 H           9.7163   -2.5522   36.6092 H         1 MOL     0.0377
     39 H          10.2426   -5.1889   34.4116 H         1 MOL     0.0629
     40 H          13.2580   -9.9881   34.4789 H         1 MOL     0.0480
     41 H          12.5826   -9.1741   33.0197 H         1 MOL     0.0480
     42 H          11.3179  -11.3839   33.6485 H         1 MOL     0.0480
     43 H          10.2773   -9.9108   33.5934 H         1 MOL     0.0480
     44 H          10.5617   -9.8400   37.4734 H         1 MOL     0.0480
     45 H           9.7164   -8.8996   36.1965 H         1 MOL     0.0480
     46 H          12.7711   -8.9704   36.7170 H         1 MOL     0.0480
     47 H          11.6769   -7.5352   36.7842 H         1 MOL     0.0480
     48 H           8.9571  -12.3682   34.1427 H         1 MOL     0.0394
     49 H           8.6026  -14.7120   35.0889 H         1 MOL     0.0273
     50 H           9.5608  -14.1399   36.5671 H         1 MOL     0.0273
     51 H          10.5906  -14.2893   33.6784 H         1 MOL     0.0273
     52 H          11.5407  -13.7104   35.1589 H         1 MOL     0.0273
     53 H          14.3318   -4.0067   36.9459 H         1 MOL     0.0646
     54 H          12.4038   -2.4623   36.9151 H         1 MOL     0.0621
     55 H          12.3545    1.0470   35.3335 H         1 MOL     0.1921
@<TRIPOS>BOND
     1    1   18 1 
     2    1   21 1 
     3    1   17 am
     4    2   20 1 
     5    2   22 am
     6    2   19 1 
     7    3    4 ar
     8    3   12 ar
     9    4   55 1 
    10    4    5 ar
    11    5    6 ar
    12    5   29 2 
    13    6    7 ar
    14    6   11 ar
    15    7    8 ar
    16    7   33 1 
    17    8    9 ar
    18    8   34 1 
    19    9   10 ar
    20    9   35 1 
    21   10   11 ar
    22   10   36 1 
    23   11   12 ar
    24   12   13 1 
    25   13   14 1 
    26   13   37 1 
    27   13   38 1 
    28   14   15 ar
    29   14   28 ar
    30   15   16 ar
    31   15   39 1 
    32   16   17 1 
    33   16   26 ar
    34   17   31 2 
    35   18   19 1 
    36   18   40 1 
    37   18   41 1 
    38   19   42 1 
    39   19   43 1 
    40   20   21 1 
    41   20   44 1 
    42   20   45 1 
    43   21   46 1 
    44   21   47 1 
    45   22   23 1 
    46   22   30 2 
    47   23   24 1 
    48   23   25 1 
    49   23   48 1 
    50   24   25 1 
    51   24   49 1 
    52   24   50 1 
    53   25   51 1 
    54   25   52 1 
    55   26   27 ar
    56   26   32 1 
    57   27   28 ar
    58   27   53 1 
    59   28   54 1 
@<TRIPOS>SUBSTRUCTURE
1 MOL         1
@<TRIPOS>MOLECULE
query molecule
   55    59     1     0     0
SMALL
NO_CHARGE

@<TRIPOS>ATOM
      1 N          25.2900   -7.0864    9.1016 N.am      1 MOL    -0.2945
      2 N          26.2801   -5.2875   11.0877 N.am      1 MOL    -0.2983
      3 N          22.5180  -13.0766   11.7553 N.ar      1 MOL    -0.1750
      4 N          22.8304  -13.4489   12.9903 N.ar      1 MOL    -0.2425
      5 C          24.1344  -13.2575   13.4869 C.ar      1 MOL     0.2725
      6 C          25.0799  -12.6045   12.6678 C.ar      1 MOL     0.0496
      7 C          26.3420  -12.2504   13.1586 C.ar      1 MOL     0.0138
      8 C          27.2891  -11.6577   12.3249 C.ar      1 MOL     0.0008
      9 C          26.9833  -11.4300   10.9849 C.ar      1 MOL     0.0007
     10 C          25.7202  -11.7599   10.4972 C.ar      1 MOL     0.0103
     11 C          24.7209  -12.3036   11.3176 C.ar      1 MOL     0.0106
     12 C          23.4140  -12.5570   10.8653 C.ar      1 MOL     0.0736
     13 C          22.9108  -12.3292    9.4799 C.3       1 MOL     0.0925
     14 C          22.6834  -10.9158    9.1087 C.ar      1 MOL    -0.0406
     15 C          23.7820  -10.1193    8.7954 C.ar      1 MOL     0.0196
     16 C          23.6392   -8.7773    8.4548 C.ar      1 MOL     0.0723
     17 C          24.9040   -8.0531    8.2294 C.2       1 MOL     0.2495
     18 C          26.5896   -6.4447    8.9108 C.3       1 MOL     0.1268
     19 C          27.2408   -5.9533   10.2326 C.3       1 MOL     0.1265
     20 C          25.1101   -6.0882   11.3856 C.3       1 MOL     0.1265
     21 C          24.3956   -6.5774   10.1249 C.3       1 MOL     0.1268
     22 C          26.5096   -4.2229   11.9010 C.2       1 MOL     0.2187
     23 C          27.8555   -3.6107   11.8868 C.3       1 MOL     0.0752
     24 C          27.7684   -2.1362   11.7037 C.3       1 MOL     0.0134
     25 C          28.2438   -3.0045   10.5840 C.3       1 MOL     0.0134
     26 C          22.3652   -8.2370    8.3729 C.ar      1 MOL     0.1355
     27 C          21.2404   -9.0164    8.6603 C.ar      1 MOL     0.0392
     28 C          21.4050  -10.3570    9.0298 C.ar      1 MOL     0.0066
     29 O          24.3922  -13.7200   14.6129 O.2       1 MOL    -0.2658
     30 O          25.6620   -3.7923   12.7028 O.2       1 MOL    -0.2753
     31 O          25.5949   -8.4270    7.2744 O.2       1 MOL    -0.2699
     32 F          22.1799   -6.9474    8.0178 F         1 MOL    -0.2047
     33 H          26.5880  -12.4504   14.1919 H         1 MOL     0.0625
     34 H          28.2580  -11.3823   12.7127 H         1 MOL     0.0618
     35 H          27.7181  -10.9925   10.3265 H         1 MOL     0.0618
     36 H          25.4937  -11.5706    9.4548 H         1 MOL     0.0624
     37 H          21.9393  -12.8588    9.3844 H         1 MOL     0.0377
     38 H          23.6401  -12.7638    8.7690 H         1 MOL     0.0377
     39 H          24.7746  -10.5503    8.8339 H         1 MOL     0.0629
     40 H          26.4148   -5.5392    8.2734 H         1 MOL     0.0480
     41 H          27.2573   -7.1298    8.3423 H         1 MOL     0.0480
     42 H          28.0845   -5.2572   10.0146 H         1 MOL     0.0480
     43 H          27.6510   -6.8281   10.7904 H         1 MOL     0.0480
     44 H          24.4138   -5.4948   12.0220 H         1 MOL     0.0480
     45 H          25.4377   -6.9815   11.9683 H         1 MOL     0.0480
     46 H          23.8611   -5.6970    9.6767 H         1 MOL     0.0480
     47 H          23.6192   -7.3387   10.3564 H         1 MOL     0.0480
     48 H          28.5692   -4.0586   12.5314 H         1 MOL     0.0394
     49 H          28.5174   -1.5543   12.2283 H         1 MOL     0.0273
     50 H          26.7748   -1.7182   11.6209 H         1 MOL     0.0273
     51 H          29.3038   -2.9765   10.3625 H         1 MOL     0.0273
     52 H          27.5635   -3.1473    9.7528 H         1 MOL     0.0273
     53 H          20.2531   -8.5851    8.5980 H         1 MOL     0.0646
     54 H          20.5384  -10.9614    9.2557 H         1 MOL     0.0621
     55 H          22.1639  -13.8673   13.6130 H         1 MOL     0.1921
@<TRIPOS>BOND
     1    1   18 1 
     2    1   21 1 
     3    1   17 am
     4    2   20 1 
     5    2   22 am
     6    2   19 1 
     7    3    4 ar
     8    3   12 ar
     9    4   55 1 
    10    4    5 ar
    11    5    6 ar
    12    5   29 2 
    13    6    7 ar
    14    6   11 ar
    15    7    8 ar
    16    7   33 1 
    17    8    9 ar
    18    8   34 1 
    19    9   10 ar
    20    9   35 1 
    21   10   11 ar
    22   10   36 1 
    23   11   12 ar
    24   12   13 1 
    25   13   14 1 
    26   13   37 1 
    27   13   38 1 
    28   14   15 ar
    29   14   28 ar
    30   15   16 ar
    31   15   39 1 
    32   16   17 1 
    33   16   26 ar
    34   17   31 2 
    35   18   19 1 
    36   18   40 1 
    37   18   41 1 
    38   19   42 1 
    39   19   43 1 
    40   20   21 1 
    41   20   44 1 
    42   20   45 1 
    43   21   46 1 
    44   21   47 1 
    45   22   23 1 
    46   22   30 2 
    47   23   24 1 
    48   23   25 1 
    49   23   48 1 
    50   24   25 1 
    51   24   49 1 
    52   24   50 1 
    53   25   51 1 
    54   25   52 1 
    55   26   27 ar
    56   26   32 1 
    57   27   28 ar
    58   27   53 1 
    59   28   54 1 
@<TRIPOS>SUBSTRUCTURE
1 MOL         1
@<TRIPOS>MOLECULE
query molecule
   55    59     1     0     0
SMALL
NO_CHARGE

@<TRIPOS>ATOM
      1 N          17.5248  -18.5673   30.6275 N.am      1 MOL    -0.2945
      2 N          16.3058  -21.0772   30.0302 N.am      1 MOL    -0.2983
      3 N          23.9670  -19.2670   32.3011 N.ar      1 MOL    -0.1750
      4 N          24.9447  -20.1092   32.6256 N.ar      1 MOL    -0.2425
      5 C          26.0598  -19.6758   33.3783 C.ar      1 MOL     0.2725
      6 C          26.0292  -18.3473   33.8641 C.ar      1 MOL     0.0496
      7 C          27.0353  -17.8807   34.7102 C.ar      1 MOL     0.0138
      8 C          26.9961  -16.5771   35.2037 C.ar      1 MOL     0.0008
      9 C          25.9612  -15.7163   34.8279 C.ar      1 MOL     0.0007
     10 C          24.9502  -16.1663   33.9791 C.ar      1 MOL     0.0103
     11 C          24.9544  -17.4848   33.4978 C.ar      1 MOL     0.0106
     12 C          23.9195  -17.9550   32.6727 C.ar      1 MOL     0.0736
     13 C          22.8063  -17.0621   32.2165 C.3       1 MOL     0.0925
     14 C          21.4583  -17.4562   32.6939 C.ar      1 MOL    -0.0406
     15 C          20.3443  -17.2765   31.8533 C.ar      1 MOL     0.0196
     16 C          19.0709  -17.6612   32.2851 C.ar      1 MOL     0.0723
     17 C          17.8805  -17.5235   31.4139 C.2       1 MOL     0.2495
     18 C          16.2476  -18.5702   29.9197 C.3       1 MOL     0.1268
     19 C          15.4589  -19.8984   30.1642 C.3       1 MOL     0.1265
     20 C          17.6100  -21.0396   30.6977 C.3       1 MOL     0.1265
     21 C          18.3802  -19.7228   30.3995 C.3       1 MOL     0.1268
     22 C          15.8543  -22.3000   29.6151 C.2       1 MOL     0.2187
     23 C          14.4173  -22.4303   29.2768 C.3       1 MOL     0.0752
     24 C          13.8927  -23.7645   29.6950 C.3       1 MOL     0.0134
     25 C          14.1159  -23.4553   28.2418 C.3       1 MOL     0.0134
     26 C          18.9084  -18.2033   33.5623 C.ar      1 MOL     0.1355
     27 C          20.0034  -18.3729   34.4067 C.ar      1 MOL     0.0392
     28 C          21.2740  -17.9990   33.9718 C.ar      1 MOL     0.0066
     29 O          27.0071  -20.4630   33.5404 O.2       1 MOL    -0.2658
     30 O          16.5969  -23.2900   29.5302 O.2       1 MOL    -0.2753
     31 O          17.2234  -16.4864   31.5260 O.2       1 MOL    -0.2699
     32 F          17.6787  -18.5784   33.9912 F         1 MOL    -0.2047
     33 H          27.8463  -18.5391   34.9805 H         1 MOL     0.0625
     34 H          27.7753  -16.2334   35.8672 H         1 MOL     0.0618
     35 H          25.9474  -14.7003   35.1951 H         1 MOL     0.0618
     36 H          24.1530  -15.4929   33.6951 H         1 MOL     0.0624
     37 H          22.7896  -17.0748   31.1086 H         1 MOL     0.0377
     38 H          23.0117  -16.0370   32.5814 H         1 MOL     0.0377
     39 H          20.4693  -16.8514   30.8693 H         1 MOL     0.0629
     40 H          16.4651  -18.4780   28.8265 H         1 MOL     0.0480
     41 H          15.6557  -17.6800   30.2272 H         1 MOL     0.0480
     42 H          14.5958  -19.9819   29.4652 H         1 MOL     0.0480
     43 H          15.0539  -19.8853   31.2058 H         1 MOL     0.0480
     44 H          18.2033  -21.9336   30.4013 H         1 MOL     0.0480
     45 H          17.4289  -21.0984   31.7999 H         1 MOL     0.0480
     46 H          18.7016  -19.7179   29.3297 H         1 MOL     0.0480
     47 H          19.2937  -19.6398   31.0321 H         1 MOL     0.0480
     48 H          13.8301  -21.5549   29.3916 H         1 MOL     0.0394
     49 H          12.8681  -23.8178   30.0364 H         1 MOL     0.0273
     50 H          14.6060  -24.4455   30.1463 H         1 MOL     0.0273
     51 H          13.2270  -23.3048   27.6401 H         1 MOL     0.0273
     52 H          14.9653  -23.9244   27.7598 H         1 MOL     0.0273
     53 H          19.8740  -18.7943   35.3920 H         1 MOL     0.0646
     54 H          22.1269  -18.1333   34.6222 H         1 MOL     0.0621
     55 H          24.9333  -21.0789   32.3548 H         1 MOL     0.1921
@<TRIPOS>BOND
     1    1   18 1 
     2    1   21 1 
     3    1   17 am
     4    2   20 1 
     5    2   22 am
     6    2   19 1 
     7    3    4 ar
     8    3   12 ar
     9    4   55 1 
    10    4    5 ar
    11    5    6 ar
    12    5   29 2 
    13    6    7 ar
    14    6   11 ar
    15    7    8 ar
    16    7   33 1 
    17    8    9 ar
    18    8   34 1 
    19    9   10 ar
    20    9   35 1 
    21   10   11 ar
    22   10   36 1 
    23   11   12 ar
    24   12   13 1 
    25   13   14 1 
    26   13   37 1 
    27   13   38 1 
    28   14   15 ar
    29   14   28 ar
    30   15   16 ar
    31   15   39 1 
    32   16   17 1 
    33   16   26 ar
    34   17   31 2 
    35   18   19 1 
    36   18   40 1 
    37   18   41 1 
    38   19   42 1 
    39   19   43 1 
    40   20   21 1 
    41   20   44 1 
    42   20   45 1 
    43   21   46 1 
    44   21   47 1 
    45   22   23 1 
    46   22   30 2 
    47   23   24 1 
    48   23   25 1 
    49   23   48 1 
    50   24   25 1 
    51   24   49 1 
    52   24   50 1 
    53   25   51 1 
    54   25   52 1 
    55   26   27 ar
    56   26   32 1 
    57   27   28 ar
    58   27   53 1 
    59   28   54 1 
@<TRIPOS>SUBSTRUCTURE
1 MOL         1
@<TRIPOS>MOLECULE
query molecule
   55    59     1     0     0
SMALL
NO_CHARGE

@<TRIPOS>ATOM
      1 N          29.8950   -1.6510    5.7556 N.am      1 MOL    -0.2945
      2 N          29.4179   -3.7487    7.6572 N.am      1 MOL    -0.2983
      3 N          25.4040    1.4195    6.9635 N.ar      1 MOL    -0.1750
      4 N          24.5771    0.3904    7.1187 N.ar      1 MOL    -0.2425
      5 C          24.1486   -0.3836    6.0216 C.ar      1 MOL     0.2725
      6 C          24.6280   -0.0481    4.7414 C.ar      1 MOL     0.0496
      7 C          24.2557   -0.7923    3.6216 C.ar      1 MOL     0.0138
      8 C          24.6987   -0.4209    2.3509 C.ar      1 MOL     0.0008
      9 C          25.5251    0.6931    2.1956 C.ar      1 MOL     0.0007
     10 C          25.9225    1.4282    3.3144 C.ar      1 MOL     0.0103
     11 C          25.4988    1.0715    4.6053 C.ar      1 MOL     0.0106
     12 C          25.9163    1.7729    5.7516 C.ar      1 MOL     0.0736
     13 C          26.9084    2.8903    5.7082 C.3       1 MOL     0.0925
     14 C          28.3023    2.4632    5.4090 C.ar      1 MOL    -0.0406
     15 C          28.7003    1.1243    5.3548 C.ar      1 MOL     0.0196
     16 C          29.9906    0.7291    4.9857 C.ar      1 MOL     0.0723
     17 C          30.4069   -0.6967    4.9350 C.2       1 MOL     0.2495
     18 C          30.1733   -3.0555    5.4090 C.3       1 MOL     0.1268
     19 C          30.4382   -3.9606    6.6484 C.3       1 MOL     0.1265
     20 C          29.2886   -2.3671    8.1031 C.3       1 MOL     0.1265
     21 C          29.0271   -1.4159    6.8956 C.3       1 MOL     0.1268
     22 C          28.6949   -4.7354    8.2485 C.2       1 MOL     0.2187
     23 C          28.8659   -6.1230    7.7490 C.3       1 MOL     0.0752
     24 C          27.7649   -6.5413    6.8330 C.3       1 MOL     0.0134
     25 C          27.8112   -7.0499    8.2450 C.3       1 MOL     0.0134
     26 C          30.8816    1.7558    4.6287 C.ar      1 MOL     0.1355
     27 C          30.5349    3.1054    4.7376 C.ar      1 MOL     0.0392
     28 C          29.2477    3.4600    5.1353 C.ar      1 MOL     0.0066
     29 O          23.3536   -1.3208    6.2340 O.2       1 MOL    -0.2658
     30 O          27.9220   -4.5103    9.1929 O.2       1 MOL    -0.2753
     31 O          31.2383   -0.9728    4.0539 O.2       1 MOL    -0.2699
     32 F          32.1178    1.4679    4.1563 F         1 MOL    -0.2047
     33 H          23.6198   -1.6583    3.7363 H         1 MOL     0.0625
     34 H          24.3957   -0.9910    1.4838 H         1 MOL     0.0618
     35 H          25.8537    0.9899    1.2109 H         1 MOL     0.0618
     36 H          26.5720    2.2836    3.1840 H         1 MOL     0.0624
     37 H          26.9019    3.4025    6.6897 H         1 MOL     0.0377
     38 H          26.5855    3.5984    4.9169 H         1 MOL     0.0377
     39 H          27.9696    0.3598    5.5951 H         1 MOL     0.0629
     40 H          31.0332   -3.0936    4.7017 H         1 MOL     0.0480
     41 H          29.2777   -3.4602    4.8750 H         1 MOL     0.0480
     42 H          31.4264   -3.6879    7.0959 H         1 MOL     0.0480
     43 H          30.4734   -5.0383    6.3760 H         1 MOL     0.0480
     44 H          30.2403   -2.0734    8.6026 H         1 MOL     0.0480
     45 H          28.4699   -2.2962    8.8585 H         1 MOL     0.0480
     46 H          29.1018   -0.3472    7.1986 H         1 MOL     0.0480
     47 H          27.9754   -1.5946    6.5556 H         1 MOL     0.0480
     48 H          29.8646   -6.4377    7.5867 H         1 MOL     0.0394
     49 H          27.9989   -7.2693    6.0636 H         1 MOL     0.0273
     50 H          26.9941   -5.8136    6.6075 H         1 MOL     0.0273
     51 H          28.0920   -8.0851    8.3842 H         1 MOL     0.0273
     52 H          27.0864   -6.6301    8.9323 H         1 MOL     0.0273
     53 H          31.2601    3.8709    4.5078 H         1 MOL     0.0646
     54 H          28.9724    4.5014    5.2141 H         1 MOL     0.0621
     55 H          24.2276    0.1270    8.0240 H         1 MOL     0.1921
@<TRIPOS>BOND
     1    1   18 1 
     2    1   21 1 
     3    1   17 am
     4    2   20 1 
     5    2   22 am
     6    2   19 1 
     7    3    4 ar
     8    3   12 ar
     9    4   55 1 
    10    4    5 ar
    11    5    6 ar
    12    5   29 2 
    13    6    7 ar
    14    6   11 ar
    15    7    8 ar
    16    7   33 1 
    17    8    9 ar
    18    8   34 1 
    19    9   10 ar
    20    9   35 1 
    21   10   11 ar
    22   10   36 1 
    23   11   12 ar
    24   12   13 1 
    25   13   14 1 
    26   13   37 1 
    27   13   38 1 
    28   14   15 ar
    29   14   28 ar
    30   15   16 ar
    31   15   39 1 
    32   16   17 1 
    33   16   26 ar
    34   17   31 2 
    35   18   19 1 
    36   18   40 1 
    37   18   41 1 
    38   19   42 1 
    39   19   43 1 
    40   20   21 1 
    41   20   44 1 
    42   20   45 1 
    43   21   46 1 
    44   21   47 1 
    45   22   23 1 
    46   22   30 2 
    47   23   24 1 
    48   23   25 1 
    49   23   48 1 
    50   24   25 1 
    51   24   49 1 
    52   24   50 1 
    53   25   51 1 
    54   25   52 1 
    55   26   27 ar
    56   26   32 1 
    57   27   28 ar
    58   27   53 1 
    59   28   54 1 
@<TRIPOS>SUBSTRUCTURE
1 MOL         1
@<TRIPOS>MOLECULE
query molecule
   55    59     1     0     0
SMALL
NO_CHARGE

@<TRIPOS>ATOM
      1 N          40.1320    4.4645   22.0878 N.am      1 MOL    -0.2945
      2 N          40.3818    4.9836   24.8950 N.am      1 MOL    -0.2983
      3 N          38.2822    6.1615   15.3892 N.ar      1 MOL    -0.1750
      4 N          38.5630    5.7794   14.1487 N.ar      1 MOL    -0.2425
      5 C          39.7224    6.1979   13.4639 C.ar      1 MOL     0.2725
      6 C          40.5945    7.0764   14.1298 C.ar      1 MOL     0.0496
      7 C          41.7749    7.5146   13.5280 C.ar      1 MOL     0.0138
      8 C          42.6158    8.4078   14.1921 C.ar      1 MOL     0.0008
      9 C          42.2792    8.8662   15.4659 C.ar      1 MOL     0.0007
     10 C          41.1070    8.4246   16.0795 C.ar      1 MOL     0.0103
     11 C          40.2462    7.5186   15.4371 C.ar      1 MOL     0.0106
     12 C          39.0646    7.0589   16.0574 C.ar      1 MOL     0.0736
     13 C          38.6694    7.5900   17.3954 C.3       1 MOL     0.0925
     14 C          38.2021    6.6012   18.3803 C.ar      1 MOL    -0.0406
     15 C          39.1443    5.8995   19.1370 C.ar      1 MOL     0.0196
     16 C          38.7305    5.0172   20.1419 C.ar      1 MOL     0.0723
     17 C          39.7621    4.2102   20.8161 C.2       1 MOL     0.2495
     18 C          40.3875    3.3517   23.0014 C.3       1 MOL     0.1268
     19 C          39.9459    3.6608   24.4669 C.3       1 MOL     0.1265
     20 C          40.1374    6.1074   23.9873 C.3       1 MOL     0.1265
     21 C          40.4966    5.8080   22.5103 C.3       1 MOL     0.1268
     22 C          40.6926    5.2953   26.1908 C.2       1 MOL     0.2187
     23 C          40.4602    4.2779   27.2511 C.3       1 MOL     0.0752
     24 C          39.2215    4.6527   28.0073 C.3       1 MOL     0.0134
     25 C          40.5748    4.7860   28.6457 C.3       1 MOL     0.0134
     26 C          37.3682    4.8714   20.4107 C.ar      1 MOL     0.1355
     27 C          36.4153    5.5347   19.6273 C.ar      1 MOL     0.0392
     28 C          36.8360    6.3926   18.6046 C.ar      1 MOL     0.0066
     29 O          39.9036    5.7782   12.3129 O.2       1 MOL    -0.2658
     30 O          41.1612    6.4030   26.5028 O.2       1 MOL    -0.2753
     31 O          40.1465    3.2269   20.1697 O.2       1 MOL    -0.2699
     32 F          36.9508    4.0592   21.4125 F         1 MOL    -0.2047
     33 H          42.0369    7.1666   12.5379 H         1 MOL     0.0625
     34 H          43.5281    8.7442   13.7222 H         1 MOL     0.0618
     35 H          42.9269    9.5594   15.9816 H         1 MOL     0.0618
     36 H          40.8537    8.7802   17.0684 H         1 MOL     0.0624
     37 H          37.8583    8.3309   17.2453 H         1 MOL     0.0377
     38 H          39.5590    8.0951   17.8292 H         1 MOL     0.0377
     39 H          40.1988    6.0381   18.9472 H         1 MOL     0.0629
     40 H          41.4894    3.1560   22.9983 H         1 MOL     0.0480
     41 H          39.8824    2.4332   22.6168 H         1 MOL     0.0480
     42 H          40.3739    2.8989   25.1634 H         1 MOL     0.0480
     43 H          38.8332    3.6204   24.5455 H         1 MOL     0.0480
     44 H          40.6971    7.0015   24.3494 H         1 MOL     0.0480
     45 H          39.0424    6.3464   24.0453 H         1 MOL     0.0480
     46 H          41.6078    5.9079   22.4056 H         1 MOL     0.0480
     47 H          40.0228    6.5478   21.8236 H         1 MOL     0.0480
     48 H          40.6559    3.2685   26.9982 H         1 MOL     0.0394
     49 H          38.5917    3.8558   28.3820 H         1 MOL     0.0273
     50 H          38.7377    5.5817   27.7304 H         1 MOL     0.0273
     51 H          40.7978    4.0726   29.4315 H         1 MOL     0.0273
     52 H          40.9641    5.7890   28.7748 H         1 MOL     0.0273
     53 H          35.3598    5.3859   19.8047 H         1 MOL     0.0646
     54 H          36.1061    6.9040   17.9927 H         1 MOL     0.0621
     55 H          37.9543    5.1662   13.6236 H         1 MOL     0.1921
@<TRIPOS>BOND
     1    1   18 1 
     2    1   21 1 
     3    1   17 am
     4    2   20 1 
     5    2   22 am
     6    2   19 1 
     7    3    4 ar
     8    3   12 ar
     9    4   55 1 
    10    4    5 ar
    11    5    6 ar
    12    5   29 2 
    13    6    7 ar
    14    6   11 ar
    15    7    8 ar
    16    7   33 1 
    17    8    9 ar
    18    8   34 1 
    19    9   10 ar
    20    9   35 1 
    21   10   11 ar
    22   10   36 1 
    23   11   12 ar
    24   12   13 1 
    25   13   14 1 
    26   13   37 1 
    27   13   38 1 
    28   14   15 ar
    29   14   28 ar
    30   15   16 ar
    31   15   39 1 
    32   16   17 1 
    33   16   26 ar
    34   17   31 2 
    35   18   19 1 
    36   18   40 1 
    37   18   41 1 
    38   19   42 1 
    39   19   43 1 
    40   20   21 1 
    41   20   44 1 
    42   20   45 1 
    43   21   46 1 
    44   21   47 1 
    45   22   23 1 
    46   22   30 2 
    47   23   24 1 
    48   23   25 1 
    49   23   48 1 
    50   24   25 1 
    51   24   49 1 
    52   24   50 1 
    53   25   51 1 
    54   25   52 1 
    55   26   27 ar
    56   26   32 1 
    57   27   28 ar
    58   27   53 1 
    59   28   54 1 
@<TRIPOS>SUBSTRUCTURE
1 MOL         1
@<TRIPOS>MOLECULE
query molecule
   55    59     1     0     0
SMALL
NO_CHARGE

@<TRIPOS>ATOM
      1 N           0.4206  -18.2517   28.4856 N.am      1 MOL    -0.2945
      2 N           2.0150  -18.9000   30.7869 N.am      1 MOL    -0.2983
      3 N          -0.0757  -14.8868   21.2950 N.ar      1 MOL    -0.1750
      4 N           0.1066  -13.9370   20.3845 N.ar      1 MOL    -0.2425
      5 C           1.4052  -13.5027   20.0421 C.ar      1 MOL     0.2725
      6 C           2.4988  -14.1138   20.6878 C.ar      1 MOL     0.0496
      7 C           3.8073  -13.7348   20.3808 C.ar      1 MOL     0.0138
      8 C           4.8873  -14.2765   21.0689 C.ar      1 MOL     0.0008
      9 C           4.6565  -15.2208   22.0530 C.ar      1 MOL     0.0007
     10 C           3.3582  -15.6573   22.3213 C.ar      1 MOL     0.0103
     11 C           2.2501  -15.1121   21.6709 C.ar      1 MOL     0.0106
     12 C           0.9362  -15.5135   21.9649 C.ar      1 MOL     0.0736
     13 C           0.5901  -16.5910   22.9438 C.3       1 MOL     0.0925
     14 C           0.1573  -16.1553   24.3028 C.ar      1 MOL    -0.0406
     15 C           0.0298  -17.1094   25.3395 C.ar      1 MOL     0.0196
     16 C          -0.3299  -16.7519   26.6453 C.ar      1 MOL     0.0723
     17 C          -0.5536  -17.7431   27.7088 C.2       1 MOL     0.2495
     18 C           0.0680  -19.3973   29.3378 C.3       1 MOL     0.1268
     19 C           0.6043  -19.2420   30.7917 C.3       1 MOL     0.1265
     20 C           2.4121  -17.7884   29.9320 C.3       1 MOL     0.1265
     21 C           1.8068  -17.8456   28.5086 C.3       1 MOL     0.1268
     22 C           2.9123  -19.3753   31.6949 C.2       1 MOL     0.2187
     23 C           2.4084  -20.0902   32.8967 C.3       1 MOL     0.0752
     24 C           1.8188  -19.1306   33.8807 C.3       1 MOL     0.0134
     25 C           3.1727  -19.7280   34.1270 C.3       1 MOL     0.0134
     26 C          -0.5614  -15.3992   26.9080 C.ar      1 MOL     0.1355
     27 C          -0.4773  -14.4415   25.8993 C.ar      1 MOL     0.0392
     28 C          -0.1298  -14.8219   24.6044 C.ar      1 MOL     0.0066
     29 O           1.5154  -12.5959   19.2022 O.2       1 MOL    -0.2658
     30 O           4.1385  -19.2609   31.5458 O.2       1 MOL    -0.2753
     31 O          -1.7415  -18.0756   27.8342 O.2       1 MOL    -0.2699
     32 F          -0.8946  -15.0020   28.1550 F         1 MOL    -0.2047
     33 H           3.9842  -12.9843   19.6249 H         1 MOL     0.0625
     34 H           5.8932  -13.9566   20.8485 H         1 MOL     0.0618
     35 H           5.4860  -15.6455   22.6002 H         1 MOL     0.0618
     36 H           3.2042  -16.4284   23.0666 H         1 MOL     0.0624
     37 H           1.4807  -17.2420   23.0611 H         1 MOL     0.0377
     38 H          -0.2407  -17.1836   22.5035 H         1 MOL     0.0377
     39 H           0.2247  -18.1513   25.1160 H         1 MOL     0.0629
     40 H           0.5035  -20.3223   28.8878 H         1 MOL     0.0480
     41 H          -1.0398  -19.5145   29.3480 H         1 MOL     0.0480
     42 H           0.4541  -20.1717   31.3858 H         1 MOL     0.0480
     43 H           0.0513  -18.4176   31.3057 H         1 MOL     0.0480
     44 H           3.5246  -17.7442   29.8862 H         1 MOL     0.0480
     45 H           2.0594  -16.8455   30.4233 H         1 MOL     0.0480
     46 H           2.3894  -18.6170   27.9404 H         1 MOL     0.0480
     47 H           1.9203  -16.8774   27.9692 H         1 MOL     0.0480
     48 H           2.0122  -21.0591   32.7474 H         1 MOL     0.0394
     49 H           1.0217  -19.4908   34.5198 H         1 MOL     0.0273
     50 H           1.7998  -18.0847   33.6004 H         1 MOL     0.0273
     51 H           3.2404  -20.4768   34.9073 H         1 MOL     0.0273
     52 H           4.0268  -19.0751   33.9953 H         1 MOL     0.0273
     53 H          -0.6856  -13.4045   26.1156 H         1 MOL     0.0646
     54 H          -0.0714  -14.0769   23.8231 H         1 MOL     0.0621
     55 H          -0.6567  -13.4951   19.9026 H         1 MOL     0.1921
@<TRIPOS>BOND
     1    1   18 1 
     2    1   21 1 
     3    1   17 am
     4    2   20 1 
     5    2   22 am
     6    2   19 1 
     7    3    4 ar
     8    3   12 ar
     9    4   55 1 
    10    4    5 ar
    11    5    6 ar
    12    5   29 2 
    13    6    7 ar
    14    6   11 ar
    15    7    8 ar
    16    7   33 1 
    17    8    9 ar
    18    8   34 1 
    19    9   10 ar
    20    9   35 1 
    21   10   11 ar
    22   10   36 1 
    23   11   12 ar
    24   12   13 1 
    25   13   14 1 
    26   13   37 1 
    27   13   38 1 
    28   14   15 ar
    29   14   28 ar
    30   15   16 ar
    31   15   39 1 
    32   16   17 1 
    33   16   26 ar
    34   17   31 2 
    35   18   19 1 
    36   18   40 1 
    37   18   41 1 
    38   19   42 1 
    39   19   43 1 
    40   20   21 1 
    41   20   44 1 
    42   20   45 1 
    43   21   46 1 
    44   21   47 1 
    45   22   23 1 
    46   22   30 2 
    47   23   24 1 
    48   23   25 1 
    49   23   48 1 
    50   24   25 1 
    51   24   49 1 
    52   24   50 1 
    53   25   51 1 
    54   25   52 1 
    55   26   27 ar
    56   26   32 1 
    57   27   28 ar
    58   27   53 1 
    59   28   54 1 
@<TRIPOS>SUBSTRUCTURE
1 MOL         1
