@<TRIPOS>MOLECULE
query molecule
   55    59     1     0     0
SMALL
NO_CHARGE

@<TRIPOS>ATOM
      1 N          25.2900   -7.0864    9.1016 N.am      1 MOL    -0.2945
      2 N          26.2801   -5.2875   11.0877 N.am      1 MOL    -0.2983
      3 N          22.5180  -13.0766   11.7553 N.ar      1 MOL    -0.1750
      4 N          22.8304  -13.4489   12.9903 N.ar      1 MOL    -0.2425
      5 C          24.1344  -13.2575   13.4869 C.ar      1 MOL     0.2725
      6 C          25.0799  -12.6045   12.6678 C.ar      1 MOL     0.0496
      7 C          26.3420  -12.2504   13.1586 C.ar      1 MOL     0.0138
      8 C          27.2891  -11.6577   12.3249 C.ar      1 MOL     0.0008
      9 C          26.9833  -11.4300   10.9849 C.ar      1 MOL     0.0007
     10 C          25.7202  -11.7599   10.4972 C.ar      1 MOL     0.0103
     11 C          24.7209  -12.3036   11.3176 C.ar      1 MOL     0.0106
     12 C          23.4140  -12.5570   10.8653 C.ar      1 MOL     0.0736
     13 C          22.9108  -12.3292    9.4799 C.3       1 MOL     0.0925
     14 C          22.6834  -10.9158    9.1087 C.ar      1 MOL    -0.0406
     15 C          23.7820  -10.1193    8.7954 C.ar      1 MOL     0.0196
     16 C          23.6392   -8.7773    8.4548 C.ar      1 MOL     0.0723
     17 C          24.9040   -8.0531    8.2294 C.2       1 MOL     0.2495
     18 C          26.5896   -6.4447    8.9108 C.3       1 MOL     0.1268
     19 C          27.2408   -5.9533   10.2326 C.3       1 MOL     0.1265
     20 C          25.1101   -6.0882   11.3856 C.3       1 MOL     0.1265
     21 C          24.3956   -6.5774   10.1249 C.3       1 MOL     0.1268
     22 C          26.5096   -4.2229   11.9010 C.2       1 MOL     0.2187
     23 C          27.8555   -3.6107   11.8868 C.3       1 MOL     0.0752
     24 C          27.7684   -2.1362   11.7037 C.3       1 MOL     0.0134
     25 C          28.2438   -3.0045   10.5840 C.3       1 MOL     0.0134
     26 C          22.3652   -8.2370    8.3729 C.ar      1 MOL     0.1355
     27 C          21.2404   -9.0164    8.6603 C.ar      1 MOL     0.0392
     28 C          21.4050  -10.3570    9.0298 C.ar      1 MOL     0.0066
     29 O          24.3922  -13.7200   14.6129 O.2       1 MOL    -0.2658
     30 O          25.6620   -3.7923   12.7028 O.2       1 MOL    -0.2753
     31 O          25.5949   -8.4270    7.2744 O.2       1 MOL    -0.2699
     32 F          22.1799   -6.9474    8.0178 F         1 MOL    -0.2047
     33 H          26.5880  -12.4504   14.1919 H         1 MOL     0.0625
     34 H          28.2580  -11.3823   12.7127 H         1 MOL     0.0618
     35 H          27.7181  -10.9925   10.3265 H         1 MOL     0.0618
     36 H          25.4937  -11.5706    9.4548 H         1 MOL     0.0624
     37 H          21.9393  -12.8588    9.3844 H         1 MOL     0.0377
     38 H          23.6401  -12.7638    8.7690 H         1 MOL     0.0377
     39 H          24.7746  -10.5503    8.8339 H         1 MOL     0.0629
     40 H          26.4148   -5.5392    8.2734 H         1 MOL     0.0480
     41 H          27.2573   -7.1298    8.3423 H         1 MOL     0.0480
     42 H          28.0845   -5.2572   10.0146 H         1 MOL     0.0480
     43 H          27.6510   -6.8281   10.7904 H         1 MOL     0.0480
     44 H          24.4138   -5.4948   12.0220 H         1 MOL     0.0480
     45 H          25.4377   -6.9815   11.9683 H         1 MOL     0.0480
     46 H          23.8611   -5.6970    9.6767 H         1 MOL     0.0480
     47 H          23.6192   -7.3387   10.3564 H         1 MOL     0.0480
     48 H          28.5692   -4.0586   12.5314 H         1 MOL     0.0394
     49 H          28.5174   -1.5543   12.2283 H         1 MOL     0.0273
     50 H          26.7748   -1.7182   11.6209 H         1 MOL     0.0273
     51 H          29.3038   -2.9765   10.3625 H         1 MOL     0.0273
     52 H          27.5635   -3.1473    9.7528 H         1 MOL     0.0273
     53 H          20.2531   -8.5851    8.5980 H         1 MOL     0.0646
     54 H          20.5384  -10.9614    9.2557 H         1 MOL     0.0621
     55 H          22.1639  -13.8673   13.6130 H         1 MOL     0.1921
@<TRIPOS>BOND
     1    1   18 1 
     2    1   21 1 
     3    1   17 am
     4    2   20 1 
     5    2   22 am
     6    2   19 1 
     7    3    4 ar
     8    3   12 ar
     9    4   55 1 
    10    4    5 ar
    11    5    6 ar
    12    5   29 2 
    13    6    7 ar
    14    6   11 ar
    15    7    8 ar
    16    7   33 1 
    17    8    9 ar
    18    8   34 1 
    19    9   10 ar
    20    9   35 1 
    21   10   11 ar
    22   10   36 1 
    23   11   12 ar
    24   12   13 1 
    25   13   14 1 
    26   13   37 1 
    27   13   38 1 
    28   14   15 ar
    29   14   28 ar
    30   15   16 ar
    31   15   39 1 
    32   16   17 1 
    33   16   26 ar
    34   17   31 2 
    35   18   19 1 
    36   18   40 1 
    37   18   41 1 
    38   19   42 1 
    39   19   43 1 
    40   20   21 1 
    41   20   44 1 
    42   20   45 1 
    43   21   46 1 
    44   21   47 1 
    45   22   23 1 
    46   22   30 2 
    47   23   24 1 
    48   23   25 1 
    49   23   48 1 
    50   24   25 1 
    51   24   49 1 
    52   24   50 1 
    53   25   51 1 
    54   25   52 1 
    55   26   27 ar
    56   26   32 1 
    57   27   28 ar
    58   27   53 1 
    59   28   54 1 
@<TRIPOS>SUBSTRUCTURE
1 MOL         1
@<TRIPOS>MOLECULE
query molecule
   55    59     1     0     0
SMALL
NO_CHARGE

@<TRIPOS>ATOM
      1 N          29.8950   -1.6510    5.7556 N.am      1 MOL    -0.2945
      2 N          29.4179   -3.7487    7.6572 N.am      1 MOL    -0.2983
      3 N          25.4040    1.4195    6.9635 N.ar      1 MOL    -0.1750
      4 N          24.5771    0.3904    7.1187 N.ar      1 MOL    -0.2425
      5 C          24.1486   -0.3836    6.0216 C.ar      1 MOL     0.2725
      6 C          24.6280   -0.0481    4.7414 C.ar      1 MOL     0.0496
      7 C          24.2557   -0.7923    3.6216 C.ar      1 MOL     0.0138
      8 C          24.6987   -0.4209    2.3509 C.ar      1 MOL     0.0008
      9 C          25.5251    0.6931    2.1956 C.ar      1 MOL     0.0007
     10 C          25.9225    1.4282    3.3144 C.ar      1 MOL     0.0103
     11 C          25.4988    1.0715    4.6053 C.ar      1 MOL     0.0106
     12 C          25.9163    1.7729    5.7516 C.ar      1 MOL     0.0736
     13 C          26.9084    2.8903    5.7082 C.3       1 MOL     0.0925
     14 C          28.3023    2.4632    5.4090 C.ar      1 MOL    -0.0406
     15 C          28.7003    1.1243    5.3548 C.ar      1 MOL     0.0196
     16 C          29.9906    0.7291    4.9857 C.ar      1 MOL     0.0723
     17 C          30.4069   -0.6967    4.9350 C.2       1 MOL     0.2495
     18 C          30.1733   -3.0555    5.4090 C.3       1 MOL     0.1268
     19 C          30.4382   -3.9606    6.6484 C.3       1 MOL     0.1265
     20 C          29.2886   -2.3671    8.1031 C.3       1 MOL     0.1265
     21 C          29.0271   -1.4159    6.8956 C.3       1 MOL     0.1268
     22 C          28.6949   -4.7354    8.2485 C.2       1 MOL     0.2187
     23 C          28.8659   -6.1230    7.7490 C.3       1 MOL     0.0752
     24 C          27.7649   -6.5413    6.8330 C.3       1 MOL     0.0134
     25 C          27.8112   -7.0499    8.2450 C.3       1 MOL     0.0134
     26 C          30.8816    1.7558    4.6287 C.ar      1 MOL     0.1355
     27 C          30.5349    3.1054    4.7376 C.ar      1 MOL     0.0392
     28 C          29.2477    3.4600    5.1353 C.ar      1 MOL     0.0066
     29 O          23.3536   -1.3208    6.2340 O.2       1 MOL    -0.2658
     30 O          27.9220   -4.5103    9.1929 O.2       1 MOL    -0.2753
     31 O          31.2383   -0.9728    4.0539 O.2       1 MOL    -0.2699
     32 F          32.1178    1.4679    4.1563 F         1 MOL    -0.2047
     33 H          23.6198   -1.6583    3.7363 H         1 MOL     0.0625
     34 H          24.3957   -0.9910    1.4838 H         1 MOL     0.0618
     35 H          25.8537    0.9899    1.2109 H         1 MOL     0.0618
     36 H          26.5720    2.2836    3.1840 H         1 MOL     0.0624
     37 H          26.9019    3.4025    6.6897 H         1 MOL     0.0377
     38 H          26.5855    3.5984    4.9169 H         1 MOL     0.0377
     39 H          27.9696    0.3598    5.5951 H         1 MOL     0.0629
     40 H          31.0332   -3.0936    4.7017 H         1 MOL     0.0480
     41 H          29.2777   -3.4602    4.8750 H         1 MOL     0.0480
     42 H          31.4264   -3.6879    7.0959 H         1 MOL     0.0480
     43 H          30.4734   -5.0383    6.3760 H         1 MOL     0.0480
     44 H          30.2403   -2.0734    8.6026 H         1 MOL     0.0480
     45 H          28.4699   -2.2962    8.8585 H         1 MOL     0.0480
     46 H          29.1018   -0.3472    7.1986 H         1 MOL     0.0480
     47 H          27.9754   -1.5946    6.5556 H         1 MOL     0.0480
     48 H          29.8646   -6.4377    7.5867 H         1 MOL     0.0394
     49 H          27.9989   -7.2693    6.0636 H         1 MOL     0.0273
     50 H          26.9941   -5.8136    6.6075 H         1 MOL     0.0273
     51 H          28.0920   -8.0851    8.3842 H         1 MOL     0.0273
     52 H          27.0864   -6.6301    8.9323 H         1 MOL     0.0273
     53 H          31.2601    3.8709    4.5078 H         1 MOL     0.0646
     54 H          28.9724    4.5014    5.2141 H         1 MOL     0.0621
     55 H          24.2276    0.1270    8.0240 H         1 MOL     0.1921
@<TRIPOS>BOND
     1    1   18 1 
     2    1   21 1 
     3    1   17 am
     4    2   20 1 
     5    2   22 am
     6    2   19 1 
     7    3    4 ar
     8    3   12 ar
     9    4   55 1 
    10    4    5 ar
    11    5    6 ar
    12    5   29 2 
    13    6    7 ar
    14    6   11 ar
    15    7    8 ar
    16    7   33 1 
    17    8    9 ar
    18    8   34 1 
    19    9   10 ar
    20    9   35 1 
    21   10   11 ar
    22   10   36 1 
    23   11   12 ar
    24   12   13 1 
    25   13   14 1 
    26   13   37 1 
    27   13   38 1 
    28   14   15 ar
    29   14   28 ar
    30   15   16 ar
    31   15   39 1 
    32   16   17 1 
    33   16   26 ar
    34   17   31 2 
    35   18   19 1 
    36   18   40 1 
    37   18   41 1 
    38   19   42 1 
    39   19   43 1 
    40   20   21 1 
    41   20   44 1 
    42   20   45 1 
    43   21   46 1 
    44   21   47 1 
    45   22   23 1 
    46   22   30 2 
    47   23   24 1 
    48   23   25 1 
    49   23   48 1 
    50   24   25 1 
    51   24   49 1 
    52   24   50 1 
    53   25   51 1 
    54   25   52 1 
    55   26   27 ar
    56   26   32 1 
    57   27   28 ar
    58   27   53 1 
    59   28   54 1 
@<TRIPOS>SUBSTRUCTURE
1 MOL         1
@<TRIPOS>MOLECULE
query molecule
   55    59     1     0     0
SMALL
NO_CHARGE

@<TRIPOS>ATOM
      1 N          21.7844   -7.4738    4.6463 N.am      1 MOL    -0.2945
      2 N          23.8700   -7.0325    2.7287 N.am      1 MOL    -0.2983
      3 N          24.6284   -6.5964   10.8560 N.ar      1 MOL    -0.1750
      4 N          25.0646   -5.5112   11.4794 N.ar      1 MOL    -0.2425
      5 C          26.2545   -4.8911   11.0480 C.ar      1 MOL     0.2725
      6 C          26.9180   -5.4332    9.9185 C.ar      1 MOL     0.0496
      7 C          28.0822   -4.8449    9.4110 C.ar      1 MOL     0.0138
      8 C          28.7082   -5.3754    8.2815 C.ar      1 MOL     0.0008
      9 C          28.1876   -6.5057    7.6514 C.ar      1 MOL     0.0007
     10 C          27.0308   -7.1089    8.1494 C.ar      1 MOL     0.0103
     11 C          26.3732   -6.5900    9.2783 C.ar      1 MOL     0.0106
     12 C          25.1973   -7.1804    9.7707 C.ar      1 MOL     0.0736
     13 C          24.5897   -8.4029    9.1626 C.3       1 MOL     0.0925
     14 C          23.1681   -8.2405    8.7573 C.ar      1 MOL    -0.0406
     15 C          22.7974   -8.2612    7.4039 C.ar      1 MOL     0.0196
     16 C          21.4558   -8.1114    7.0069 C.ar      1 MOL     0.0723
     17 C          21.0193   -8.0875    5.5836 C.2       1 MOL     0.2495
     18 C          21.5168   -7.7042    3.2279 C.3       1 MOL     0.1268
     19 C          22.8357   -8.0214    2.4547 C.3       1 MOL     0.1265
     20 C          24.1256   -6.7664    4.1478 C.3       1 MOL     0.1265
     21 C          22.8052   -6.4735    4.9184 C.3       1 MOL     0.1268
     22 C          24.7720   -6.5627    1.8233 C.2       1 MOL     0.2187
     23 C          24.7000   -6.9855    0.4049 C.3       1 MOL     0.0752
     24 C          24.5235   -5.7891   -0.4794 C.3       1 MOL     0.0134
     25 C          23.4039   -6.7599   -0.2866 C.3       1 MOL     0.0134
     26 C          20.4857   -7.9783    8.0063 C.ar      1 MOL     0.1355
     27 C          20.8422   -7.9694    9.3480 C.ar      1 MOL     0.0392
     28 C          22.1728   -8.0921    9.7262 C.ar      1 MOL     0.0066
     29 O          26.6541   -3.8977   11.6764 O.2       1 MOL    -0.2658
     30 O          25.7095   -5.8127    2.1533 O.2       1 MOL    -0.2753
     31 O          19.9458   -8.6528    5.3041 O.2       1 MOL    -0.2699
     32 F          19.1760   -7.8412    7.6893 F         1 MOL    -0.2047
     33 H          28.4977   -3.9719    9.8917 H         1 MOL     0.0625
     34 H          29.6009   -4.9118    7.8895 H         1 MOL     0.0618
     35 H          28.6727   -6.9153    6.7770 H         1 MOL     0.0618
     36 H          26.6298   -7.9849    7.6552 H         1 MOL     0.0624
     37 H          24.6430   -9.2194    9.9106 H         1 MOL     0.0377
     38 H          25.1799   -8.6756    8.2668 H         1 MOL     0.0377
     39 H          23.5629   -8.3920    6.6499 H         1 MOL     0.0629
     40 H          21.0668   -6.7700    2.8097 H         1 MOL     0.0480
     41 H          20.7724   -8.5219    3.1171 H         1 MOL     0.0480
     42 H          22.6477   -8.0459    1.3563 H         1 MOL     0.0480
     43 H          23.2194   -9.0238    2.7596 H         1 MOL     0.0480
     44 H          24.8433   -5.9200    4.2421 H         1 MOL     0.0480
     45 H          24.6089   -7.6748    4.5850 H         1 MOL     0.0480
     46 H          22.4081   -5.4766    4.6099 H         1 MOL     0.0480
     47 H          22.9966   -6.4409    6.0166 H         1 MOL     0.0480
     48 H          25.3709   -7.7604    0.1270 H         1 MOL     0.0394
     49 H          25.0018   -5.8096   -1.4501 H         1 MOL     0.0273
     50 H          24.3941   -4.8261   -0.0020 H         1 MOL     0.0273
     51 H          23.1779   -7.4233   -1.1138 H         1 MOL     0.0273
     52 H          22.5759   -6.4554    0.3413 H         1 MOL     0.0273
     53 H          20.0751   -7.8575   10.1007 H         1 MOL     0.0646
     54 H          22.4363   -8.0719   10.7731 H         1 MOL     0.0621
     55 H          24.5514   -5.1194   12.2502 H         1 MOL     0.1921
@<TRIPOS>BOND
     1    1   18 1 
     2    1   21 1 
     3    1   17 am
     4    2   20 1 
     5    2   22 am
     6    2   19 1 
     7    3    4 ar
     8    3   12 ar
     9    4   55 1 
    10    4    5 ar
    11    5    6 ar
    12    5   29 2 
    13    6    7 ar
    14    6   11 ar
    15    7    8 ar
    16    7   33 1 
    17    8    9 ar
    18    8   34 1 
    19    9   10 ar
    20    9   35 1 
    21   10   11 ar
    22   10   36 1 
    23   11   12 ar
    24   12   13 1 
    25   13   14 1 
    26   13   37 1 
    27   13   38 1 
    28   14   15 ar
    29   14   28 ar
    30   15   16 ar
    31   15   39 1 
    32   16   17 1 
    33   16   26 ar
    34   17   31 2 
    35   18   19 1 
    36   18   40 1 
    37   18   41 1 
    38   19   42 1 
    39   19   43 1 
    40   20   21 1 
    41   20   44 1 
    42   20   45 1 
    43   21   46 1 
    44   21   47 1 
    45   22   23 1 
    46   22   30 2 
    47   23   24 1 
    48   23   25 1 
    49   23   48 1 
    50   24   25 1 
    51   24   49 1 
    52   24   50 1 
    53   25   51 1 
    54   25   52 1 
    55   26   27 ar
    56   26   32 1 
    57   27   28 ar
    58   27   53 1 
    59   28   54 1 
@<TRIPOS>SUBSTRUCTURE
1 MOL         1
@<TRIPOS>MOLECULE
query molecule
   55    59     1     0     0
SMALL
NO_CHARGE

@<TRIPOS>ATOM
      1 N          11.8572    9.0859   23.7160 N.am      1 MOL    -0.2945
      2 N          14.6260    9.1740   23.0282 N.am      1 MOL    -0.2983
      3 N          10.2291    2.9773   28.1642 N.ar      1 MOL    -0.1750
      4 N          10.9040    1.8369   28.2994 N.ar      1 MOL    -0.2425
      5 C          12.3170    1.8547   28.3330 C.ar      1 MOL     0.2725
      6 C          12.9781    3.0832   28.1117 C.ar      1 MOL     0.0496
      7 C          14.3701    3.1532   28.0753 C.ar      1 MOL     0.0138
      8 C          15.0135    4.3530   27.7597 C.ar      1 MOL     0.0008
      9 C          14.2668    5.4969   27.4998 C.ar      1 MOL     0.0007
     10 C          12.8840    5.4532   27.5864 C.ar      1 MOL     0.0103
     11 C          12.2105    4.2608   27.8884 C.ar      1 MOL     0.0106
     12 C          10.8096    4.1970   27.9633 C.ar      1 MOL     0.0736
     13 C           9.9428    5.4080   27.8316 C.3       1 MOL     0.0925
     14 C           9.7876    5.8746   26.4298 C.ar      1 MOL    -0.0406
     15 C          10.3157    7.1241   26.0710 C.ar      1 MOL     0.0196
     16 C          10.1831    7.6130   24.7613 C.ar      1 MOL     0.0723
     17 C          10.7354    8.9561   24.4639 C.2       1 MOL     0.2495
     18 C          12.5031   10.3887   23.5530 C.3       1 MOL     0.1268
     19 C          14.0642   10.3146   23.7202 C.3       1 MOL     0.1265
     20 C          13.9686    7.8979   23.2733 C.3       1 MOL     0.1265
     21 C          12.4524    7.9962   22.9842 C.3       1 MOL     0.1268
     22 C          15.7989    9.1232   22.3456 C.2       1 MOL     0.2187
     23 C          16.7110   10.2880   22.4304 C.3       1 MOL     0.0752
     24 C          18.1378    9.9488   22.1907 C.3       1 MOL     0.0134
     25 C          17.6370   10.1087   23.5960 C.3       1 MOL     0.0134
     26 C           9.5179    6.8336   23.8151 C.ar      1 MOL     0.1355
     27 C           8.9876    5.5867   24.1609 C.ar      1 MOL     0.0392
     28 C           9.1203    5.1091   25.4692 C.ar      1 MOL     0.0066
     29 O          12.9096    0.7784   28.5298 O.2       1 MOL    -0.2658
     30 O          16.1070    8.1353   21.6540 O.2       1 MOL    -0.2753
     31 O          10.1534    9.9089   24.9890 O.2       1 MOL    -0.2699
     32 F           9.3699    7.2793   22.5447 F         1 MOL    -0.2047
     33 H          14.9563    2.2647   28.2712 H         1 MOL     0.0625
     34 H          16.0923    4.3846   27.7068 H         1 MOL     0.0618
     35 H          14.7691    6.4173   27.2394 H         1 MOL     0.0618
     36 H          12.3133    6.3565   27.4095 H         1 MOL     0.0624
     37 H          10.4016    6.2271   28.4200 H         1 MOL     0.0377
     38 H           8.9409    5.1681   28.2347 H         1 MOL     0.0377
     39 H          10.8314    7.7199   26.8116 H         1 MOL     0.0629
     40 H          12.0570   11.1084   24.2768 H         1 MOL     0.0480
     41 H          12.2681   10.7523   22.5217 H         1 MOL     0.0480
     42 H          14.3067   10.2032   24.8056 H         1 MOL     0.0480
     43 H          14.5465   11.2485   23.3528 H         1 MOL     0.0480
     44 H          14.1477    7.6062   24.3327 H         1 MOL     0.0480
     45 H          14.4383    7.1263   22.6188 H         1 MOL     0.0480
     46 H          11.9459    7.0400   23.2772 H         1 MOL     0.0480
     47 H          12.2732    8.1508   21.8946 H         1 MOL     0.0480
     48 H          16.3004   11.2412   22.2216 H         1 MOL     0.0394
     49 H          18.7876   10.7374   21.8287 H         1 MOL     0.0273
     50 H          18.3440    8.9427   21.8506 H         1 MOL     0.0273
     51 H          17.9707   10.9939   24.1248 H         1 MOL     0.0273
     52 H          17.5355    9.1968   24.1740 H         1 MOL     0.0273
     53 H           8.4709    4.9919   23.4223 H         1 MOL     0.0646
     54 H           8.7088    4.1479   25.7406 H         1 MOL     0.0621
     55 H          10.4546    0.9368   28.3579 H         1 MOL     0.1921
@<TRIPOS>BOND
     1    1   18 1 
     2    1   21 1 
     3    1   17 am
     4    2   20 1 
     5    2   22 am
     6    2   19 1 
     7    3    4 ar
     8    3   12 ar
     9    4   55 1 
    10    4    5 ar
    11    5    6 ar
    12    5   29 2 
    13    6    7 ar
    14    6   11 ar
    15    7    8 ar
    16    7   33 1 
    17    8    9 ar
    18    8   34 1 
    19    9   10 ar
    20    9   35 1 
    21   10   11 ar
    22   10   36 1 
    23   11   12 ar
    24   12   13 1 
    25   13   14 1 
    26   13   37 1 
    27   13   38 1 
    28   14   15 ar
    29   14   28 ar
    30   15   16 ar
    31   15   39 1 
    32   16   17 1 
    33   16   26 ar
    34   17   31 2 
    35   18   19 1 
    36   18   40 1 
    37   18   41 1 
    38   19   42 1 
    39   19   43 1 
    40   20   21 1 
    41   20   44 1 
    42   20   45 1 
    43   21   46 1 
    44   21   47 1 
    45   22   23 1 
    46   22   30 2 
    47   23   24 1 
    48   23   25 1 
    49   23   48 1 
    50   24   25 1 
    51   24   49 1 
    52   24   50 1 
    53   25   51 1 
    54   25   52 1 
    55   26   27 ar
    56   26   32 1 
    57   27   28 ar
    58   27   53 1 
    59   28   54 1 
@<TRIPOS>SUBSTRUCTURE
1 MOL         1
@<TRIPOS>MOLECULE
query molecule
   55    59     1     0     0
SMALL
NO_CHARGE

@<TRIPOS>ATOM
      1 N          21.2280   -8.5156    4.9847 N.am      1 MOL    -0.2945
      2 N          19.4882  -10.2617    3.5668 N.am      1 MOL    -0.2983
      3 N          24.7843   -6.3026   11.1273 N.ar      1 MOL    -0.1750
      4 N          25.0499   -5.2523   11.8856 N.ar      1 MOL    -0.2425
      5 C          26.1795   -4.4596   11.6156 C.ar      1 MOL     0.2725
      6 C          26.9815   -4.7957   10.4979 C.ar      1 MOL     0.0496
      7 C          28.0851   -4.0166   10.1248 C.ar      1 MOL     0.0138
      8 C          28.8477   -4.3659    9.0058 C.ar      1 MOL     0.0008
      9 C          28.5218   -5.4986    8.2560 C.ar      1 MOL     0.0007
     10 C          27.4288   -6.2862    8.6149 C.ar      1 MOL     0.0103
     11 C          26.6374   -5.9496    9.7229 C.ar      1 MOL     0.0106
     12 C          25.5183   -6.7196   10.0674 C.ar      1 MOL     0.0736
     13 C          25.1021   -7.9550    9.3470 C.3       1 MOL     0.0925
     14 C          23.6727   -7.9450    8.9394 C.ar      1 MOL    -0.0406
     15 C          23.3661   -7.7273    7.5913 C.ar      1 MOL     0.0196
     16 C          22.0365   -7.7351    7.1549 C.ar      1 MOL     0.0723
     17 C          21.7971   -7.5271    5.7149 C.2       1 MOL     0.2495
     18 C          20.8976   -8.2317    3.5886 C.3       1 MOL     0.1268
     19 C          19.5421   -8.8681    3.1653 C.3       1 MOL     0.1265
     20 C          19.7410  -10.5283    4.9846 C.3       1 MOL     0.1265
     21 C          21.0717   -9.8839    5.4573 C.3       1 MOL     0.1268
     22 C          19.0388  -11.2837    2.7942 C.2       1 MOL     0.2187
     23 C          18.5893  -10.9954    1.4071 C.3       1 MOL     0.0752
     24 C          18.4425  -12.2549    0.6176 C.3       1 MOL     0.0134
     25 C          19.5919  -11.3254    0.3548 C.3       1 MOL     0.0134
     26 C          21.0024   -7.9247    8.0660 C.ar      1 MOL     0.1355
     27 C          21.3001   -8.1305    9.4056 C.ar      1 MOL     0.0392
     28 C          22.6295   -8.1443    9.8442 C.ar      1 MOL     0.0066
     29 O          26.4132   -3.5064   12.3789 O.2       1 MOL    -0.2658
     30 O          18.9546  -12.4449    3.2432 O.2       1 MOL    -0.2753
     31 O          22.1398   -6.4377    5.2503 O.2       1 MOL    -0.2699
     32 F          19.7100   -7.9235    7.6573 F         1 MOL    -0.2047
     33 H          28.3488   -3.1397   10.6976 H         1 MOL     0.0625
     34 H          29.6959   -3.7635    8.7152 H         1 MOL     0.0618
     35 H          29.1148   -5.7706    7.3951 H         1 MOL     0.0618
     36 H          27.1823   -7.1612    8.0271 H         1 MOL     0.0624
     37 H          25.2631   -8.8205   10.0171 H         1 MOL     0.0377
     38 H          25.7213   -8.0524    8.4351 H         1 MOL     0.0377
     39 H          24.1601   -7.5612    6.8817 H         1 MOL     0.0629
     40 H          21.7082   -8.6724    2.9576 H         1 MOL     0.0480
     41 H          20.9012   -7.1303    3.4311 H         1 MOL     0.0480
     42 H          19.3758   -8.7817    2.0698 H         1 MOL     0.0480
     43 H          18.7121   -8.3333    3.6884 H         1 MOL     0.0480
     44 H          19.7514  -11.6307    5.1500 H         1 MOL     0.0480
     45 H          18.8904  -10.1070    5.5713 H         1 MOL     0.0480
     46 H          21.9227  -10.4849    5.0509 H         1 MOL     0.0480
     47 H          21.1470   -9.9055    6.5693 H         1 MOL     0.0480
     48 H          17.9166  -10.1836    1.2858 H         1 MOL     0.0394
     49 H          17.6366  -12.3090   -0.0990 H         1 MOL     0.0273
     50 H          18.6787  -13.1628    1.1622 H         1 MOL     0.0273
     51 H          19.5296  -10.8096   -0.5994 H         1 MOL     0.0273
     52 H          20.5734  -11.6545    0.6730 H         1 MOL     0.0273
     53 H          20.4933   -8.2821   10.1147 H         1 MOL     0.0646
     54 H          22.8439   -8.3126   10.8888 H         1 MOL     0.0621
     55 H          24.4392   -5.0215   12.6487 H         1 MOL     0.1921
@<TRIPOS>BOND
     1    1   18 1 
     2    1   21 1 
     3    1   17 am
     4    2   20 1 
     5    2   22 am
     6    2   19 1 
     7    3    4 ar
     8    3   12 ar
     9    4   55 1 
    10    4    5 ar
    11    5    6 ar
    12    5   29 2 
    13    6    7 ar
    14    6   11 ar
    15    7    8 ar
    16    7   33 1 
    17    8    9 ar
    18    8   34 1 
    19    9   10 ar
    20    9   35 1 
    21   10   11 ar
    22   10   36 1 
    23   11   12 ar
    24   12   13 1 
    25   13   14 1 
    26   13   37 1 
    27   13   38 1 
    28   14   15 ar
    29   14   28 ar
    30   15   16 ar
    31   15   39 1 
    32   16   17 1 
    33   16   26 ar
    34   17   31 2 
    35   18   19 1 
    36   18   40 1 
    37   18   41 1 
    38   19   42 1 
    39   19   43 1 
    40   20   21 1 
    41   20   44 1 
    42   20   45 1 
    43   21   46 1 
    44   21   47 1 
    45   22   23 1 
    46   22   30 2 
    47   23   24 1 
    48   23   25 1 
    49   23   48 1 
    50   24   25 1 
    51   24   49 1 
    52   24   50 1 
    53   25   51 1 
    54   25   52 1 
    55   26   27 ar
    56   26   32 1 
    57   27   28 ar
    58   27   53 1 
    59   28   54 1 
@<TRIPOS>SUBSTRUCTURE
1 MOL         1
@<TRIPOS>MOLECULE
query molecule
   55    59     1     0     0
SMALL
NO_CHARGE

@<TRIPOS>ATOM
      1 N          37.4833  -14.8364    6.3997 N.am      1 MOL    -0.2945
      2 N          38.5138  -15.9372    8.8066 N.am      1 MOL    -0.2983
      3 N          33.0098  -18.8920    5.3770 N.ar      1 MOL    -0.1750
      4 N          32.3661  -19.0030    6.5362 N.ar      1 MOL    -0.2425
      5 C          33.0109  -19.3989    7.7266 C.ar      1 MOL     0.2725
      6 C          34.3947  -19.6310    7.6782 C.ar      1 MOL     0.0496
      7 C          35.0858  -20.0221    8.8262 C.ar      1 MOL     0.0138
      8 C          36.4619  -20.2437    8.7710 C.ar      1 MOL     0.0008
      9 C          37.1485  -20.0723    7.5686 C.ar      1 MOL     0.0007
     10 C          36.4612  -19.6869    6.4160 C.ar      1 MOL     0.0103
     11 C          35.0750  -19.4655    6.4394 C.ar      1 MOL     0.0106
     12 C          34.3566  -19.0958    5.2853 C.ar      1 MOL     0.0736
     13 C          35.0226  -18.9402    3.9552 C.3       1 MOL     0.0925
     14 C          35.3547  -17.5273    3.6377 C.ar      1 MOL    -0.0406
     15 C          36.2113  -16.7954    4.4633 C.ar      1 MOL     0.0196
     16 C          36.5656  -15.4712    4.1860 C.ar      1 MOL     0.0723
     17 C          37.4777  -14.7045    5.0606 C.2       1 MOL     0.2495
     18 C          38.5243  -14.1139    7.1402 C.3       1 MOL     0.1268
     19 C          39.3620  -15.1438    7.9462 C.3       1 MOL     0.1265
     20 C          37.4160  -16.6172    8.1154 C.3       1 MOL     0.1265
     21 C          36.5948  -15.5983    7.2497 C.3       1 MOL     0.1268
     22 C          38.6912  -16.1187   10.1363 C.2       1 MOL     0.2187
     23 C          39.6120  -15.2656   10.9021 C.3       1 MOL     0.0752
     24 C          41.0603  -15.3400   10.6697 C.3       1 MOL     0.0134
     25 C          40.4618  -16.1243   11.7884 C.3       1 MOL     0.0134
     26 C          36.0498  -14.8981    3.0124 C.ar      1 MOL     0.1355
     27 C          35.1885  -15.6109    2.1722 C.ar      1 MOL     0.0392
     28 C          34.8346  -16.9259    2.4866 C.ar      1 MOL     0.0066
     29 O          32.3215  -19.5329    8.7501 O.2       1 MOL    -0.2658
     30 O          38.0077  -16.9381   10.7772 O.2       1 MOL    -0.2753
     31 O          38.2690  -13.9478    4.4764 O.2       1 MOL    -0.2699
     32 F          36.3806  -13.6314    2.6630 F         1 MOL    -0.2047
     33 H          34.5549  -20.1543    9.7580 H         1 MOL     0.0625
     34 H          36.9934  -20.5492    9.6605 H         1 MOL     0.0618
     35 H          38.2140  -20.2410    7.5319 H         1 MOL     0.0618
     36 H          37.0069  -19.5577    5.4912 H         1 MOL     0.0624
     37 H          34.3460  -19.3299    3.1745 H         1 MOL     0.0377
     38 H          35.9657  -19.5185    3.9726 H         1 MOL     0.0377
     39 H          36.6131  -17.2728    5.3482 H         1 MOL     0.0629
     40 H          38.0437  -13.3792    7.8261 H         1 MOL     0.0480
     41 H          39.1710  -13.5563    6.4260 H         1 MOL     0.0480
     42 H          40.1458  -14.6594    8.5676 H         1 MOL     0.0480
     43 H          39.8551  -15.8430    7.2264 H         1 MOL     0.0480
     44 H          36.7829  -17.1502    8.8561 H         1 MOL     0.0480
     45 H          37.8589  -17.3870    7.4356 H         1 MOL     0.0480
     46 H          36.0641  -14.8872    7.9316 H         1 MOL     0.0480
     47 H          35.8323  -16.1196    6.6354 H         1 MOL     0.0480
     48 H          39.1407  -14.4043   11.3250 H         1 MOL     0.0394
     49 H          41.6253  -14.4640   10.9679 H         1 MOL     0.0273
     50 H          41.3768  -15.8875    9.7898 H         1 MOL     0.0273
     51 H          40.6561  -15.7753   12.7931 H         1 MOL     0.0273
     52 H          40.4210  -17.1955   11.6395 H         1 MOL     0.0273
     53 H          34.7975  -15.1494    1.2762 H         1 MOL     0.0646
     54 H          34.1677  -17.4767    1.8404 H         1 MOL     0.0621
     55 H          31.3840  -18.8032    6.6303 H         1 MOL     0.1921
@<TRIPOS>BOND
     1    1   18 1 
     2    1   21 1 
     3    1   17 am
     4    2   20 1 
     5    2   22 am
     6    2   19 1 
     7    3    4 ar
     8    3   12 ar
     9    4   55 1 
    10    4    5 ar
    11    5    6 ar
    12    5   29 2 
    13    6    7 ar
    14    6   11 ar
    15    7    8 ar
    16    7   33 1 
    17    8    9 ar
    18    8   34 1 
    19    9   10 ar
    20    9   35 1 
    21   10   11 ar
    22   10   36 1 
    23   11   12 ar
    24   12   13 1 
    25   13   14 1 
    26   13   37 1 
    27   13   38 1 
    28   14   15 ar
    29   14   28 ar
    30   15   16 ar
    31   15   39 1 
    32   16   17 1 
    33   16   26 ar
    34   17   31 2 
    35   18   19 1 
    36   18   40 1 
    37   18   41 1 
    38   19   42 1 
    39   19   43 1 
    40   20   21 1 
    41   20   44 1 
    42   20   45 1 
    43   21   46 1 
    44   21   47 1 
    45   22   23 1 
    46   22   30 2 
    47   23   24 1 
    48   23   25 1 
    49   23   48 1 
    50   24   25 1 
    51   24   49 1 
    52   24   50 1 
    53   25   51 1 
    54   25   52 1 
    55   26   27 ar
    56   26   32 1 
    57   27   28 ar
    58   27   53 1 
    59   28   54 1 
@<TRIPOS>SUBSTRUCTURE
1 MOL         1
@<TRIPOS>MOLECULE
query molecule
   55    59     1     0     0
SMALL
NO_CHARGE

@<TRIPOS>ATOM
      1 N          15.7502   11.5469   18.7250 N.am      1 MOL    -0.2945
      2 N          15.5066    9.9136   21.0450 N.am      1 MOL    -0.2983
      3 N          18.7360   11.5074   13.6337 N.ar      1 MOL    -0.1750
      4 N          18.3865   11.3693   12.3600 N.ar      1 MOL    -0.2425
      5 C          19.1682   11.9184   11.3217 C.ar      1 MOL     0.2725
      6 C          20.3520   12.5986   11.6818 C.ar      1 MOL     0.0496
      7 C          21.2006   13.1373   10.7127 C.ar      1 MOL     0.0138
      8 C          22.3652   13.8009   11.0968 C.ar      1 MOL     0.0008
      9 C          22.6980   13.9391   12.4435 C.ar      1 MOL     0.0007
     10 C          21.8635   13.4039   13.4207 C.ar      1 MOL     0.0103
     11 C          20.6900   12.7205   13.0646 C.ar      1 MOL     0.0106
     12 C          19.8677   12.1432   14.0456 C.ar      1 MOL     0.0736
     13 C          20.2309   12.1549   15.4965 C.3       1 MOL     0.0925
     14 C          19.2766   12.9255   16.3118 C.ar      1 MOL    -0.0406
     15 C          18.0432   12.3791   16.6804 C.ar      1 MOL     0.0196
     16 C          17.1566   13.1211   17.4673 C.ar      1 MOL     0.0723
     17 C          15.8393   12.5909   17.8691 C.2       1 MOL     0.2495
     18 C          14.4211   11.2307   19.2500 C.3       1 MOL     0.1268
     19 C          14.4625   10.8862   20.7673 C.3       1 MOL     0.1265
     20 C          16.8473   10.2207   20.5565 C.3       1 MOL     0.1265
     21 C          16.8578   10.6773   19.0800 C.3       1 MOL     0.1268
     22 C          15.3789    8.9132   21.9577 C.2       1 MOL     0.2187
     23 C          14.2795    9.0001   22.9475 C.3       1 MOL     0.0752
     24 C          14.8408    9.7323   24.1299 C.3       1 MOL     0.0134
     25 C          14.5307    8.2656   24.2114 C.3       1 MOL     0.0134
     26 C          17.5149   14.4122   17.8724 C.ar      1 MOL     0.1355
     27 C          18.7424   14.9609   17.4996 C.ar      1 MOL     0.0392
     28 C          19.6279   14.2141   16.7253 C.ar      1 MOL     0.0066
     29 O          18.7726   11.7680   10.1536 O.2       1 MOL    -0.2658
     30 O          16.1491    7.9448   21.9911 O.2       1 MOL    -0.2753
     31 O          14.8590   13.2133   17.4405 O.2       1 MOL    -0.2699
     32 F          16.6725   15.1457   18.6405 F         1 MOL    -0.2047
     33 H          20.9580   13.0393    9.6655 H         1 MOL     0.0625
     34 H          23.0221   14.2115   10.3431 H         1 MOL     0.0618
     35 H          23.6004   14.4589   12.7299 H         1 MOL     0.0618
     36 H          22.1234   13.5118   14.4651 H         1 MOL     0.0624
     37 H          21.2329   12.6104   15.6054 H         1 MOL     0.0377
     38 H          20.2436   11.1117   15.8642 H         1 MOL     0.0377
     39 H          17.7769   11.3835   16.3570 H         1 MOL     0.0629
     40 H          14.0242   10.3555   18.6798 H         1 MOL     0.0480
     41 H          13.7416   12.0947   19.0634 H         1 MOL     0.0480
     42 H          13.4806   10.4798   21.1026 H         1 MOL     0.0480
     43 H          14.6730   11.8082   21.3585 H         1 MOL     0.0480
     44 H          17.5011    9.3309   20.7009 H         1 MOL     0.0480
     45 H          17.2529   11.0512   21.1853 H         1 MOL     0.0480
     46 H          16.7693    9.7656   18.4349 H         1 MOL     0.0480
     47 H          17.8182   11.1780   18.8219 H         1 MOL     0.0480
     48 H          13.3169    9.2282   22.5813 H         1 MOL     0.0394
     49 H          14.1908   10.4009   24.6757 H         1 MOL     0.0273
     50 H          15.8928    9.9955   24.0743 H         1 MOL     0.0273
     51 H          13.6837    8.0115   24.8365 H         1 MOL     0.0273
     52 H          15.3709    7.5814   24.2130 H         1 MOL     0.0273
     53 H          19.0038   15.9550   17.8301 H         1 MOL     0.0646
     54 H          20.5830   14.6333   16.4503 H         1 MOL     0.0621
     55 H          17.5644   10.8595   12.0766 H         1 MOL     0.1921
@<TRIPOS>BOND
     1    1   18 1 
     2    1   21 1 
     3    1   17 am
     4    2   20 1 
     5    2   22 am
     6    2   19 1 
     7    3    4 ar
     8    3   12 ar
     9    4   55 1 
    10    4    5 ar
    11    5    6 ar
    12    5   29 2 
    13    6    7 ar
    14    6   11 ar
    15    7    8 ar
    16    7   33 1 
    17    8    9 ar
    18    8   34 1 
    19    9   10 ar
    20    9   35 1 
    21   10   11 ar
    22   10   36 1 
    23   11   12 ar
    24   12   13 1 
    25   13   14 1 
    26   13   37 1 
    27   13   38 1 
    28   14   15 ar
    29   14   28 ar
    30   15   16 ar
    31   15   39 1 
    32   16   17 1 
    33   16   26 ar
    34   17   31 2 
    35   18   19 1 
    36   18   40 1 
    37   18   41 1 
    38   19   42 1 
    39   19   43 1 
    40   20   21 1 
    41   20   44 1 
    42   20   45 1 
    43   21   46 1 
    44   21   47 1 
    45   22   23 1 
    46   22   30 2 
    47   23   24 1 
    48   23   25 1 
    49   23   48 1 
    50   24   25 1 
    51   24   49 1 
    52   24   50 1 
    53   25   51 1 
    54   25   52 1 
    55   26   27 ar
    56   26   32 1 
    57   27   28 ar
    58   27   53 1 
    59   28   54 1 
@<TRIPOS>SUBSTRUCTURE
1 MOL         1
@<TRIPOS>MOLECULE
query molecule
   55    59     1     0     0
SMALL
NO_CHARGE

@<TRIPOS>ATOM
      1 N          26.2932   -7.7004    6.7408 N.am      1 MOL    -0.2945
      2 N          26.0647   -6.7736    9.4528 N.am      1 MOL    -0.2983
      3 N          25.7834  -13.3642    5.2574 N.ar      1 MOL    -0.1750
      4 N          25.5627  -14.2293    6.2343 N.ar      1 MOL    -0.2425
      5 C          24.6934  -15.3264    6.0608 C.ar      1 MOL     0.2725
      6 C          23.9935  -15.4329    4.8378 C.ar      1 MOL     0.0496
      7 C          23.0777  -16.4649    4.6093 C.ar      1 MOL     0.0138
      8 C          22.3716  -16.5251    3.4059 C.ar      1 MOL     0.0008
      9 C          22.5810  -15.5605    2.4190 C.ar      1 MOL     0.0007
     10 C          23.5047  -14.5373    2.6283 C.ar      1 MOL     0.0103
     11 C          24.2261  -14.4541    3.8278 C.ar      1 MOL     0.0106
     12 C          25.1576  -13.4298    4.0499 C.ar      1 MOL     0.0736
     13 C          25.4773  -12.4050    3.0139 C.3       1 MOL     0.0925
     14 C          25.0805  -11.0625    3.4995 C.ar      1 MOL    -0.0406
     15 C          25.9718  -10.3330    4.2883 C.ar      1 MOL     0.0196
     16 C          25.6508   -9.0484    4.7628 C.ar      1 MOL     0.0723
     17 C          26.6413   -8.3967    5.6368 C.2       1 MOL     0.2495
     18 C          27.3109   -6.8140    7.3184 C.3       1 MOL     0.1268
     19 C          27.3794   -6.9478    8.8703 C.3       1 MOL     0.1265
     20 C          25.0570   -7.7084    8.9351 C.3       1 MOL     0.1265
     21 C          24.9906   -7.7216    7.3792 C.3       1 MOL     0.1268
     22 C          25.7459   -6.0254   10.5402 C.2       1 MOL     0.2187
     23 C          26.7750   -5.4410   11.4068 C.3       1 MOL     0.0752
     24 C          26.6919   -3.9495   11.3791 C.3       1 MOL     0.0134
     25 C          27.8929   -4.6668   10.8202 C.3       1 MOL     0.0134
     26 C          24.4428   -8.4852    4.3617 C.ar      1 MOL     0.1355
     27 C          23.5242   -9.2177    3.5982 C.ar      1 MOL     0.0392
     28 C          23.8311  -10.5203    3.1803 C.ar      1 MOL     0.0066
     29 O          24.6003  -16.1484    6.9877 O.2       1 MOL    -0.2658
     30 O          24.5689   -5.8771   10.9066 O.2       1 MOL    -0.2753
     31 O          27.8204   -8.5131    5.2744 O.2       1 MOL    -0.2699
     32 F          24.1321   -7.2086    4.6957 F         1 MOL    -0.2047
     33 H          22.9078  -17.2139    5.3691 H         1 MOL     0.0625
     34 H          21.6564  -17.3173    3.2381 H         1 MOL     0.0618
     35 H          22.0261  -15.6031    1.4934 H         1 MOL     0.0618
     36 H          23.6645  -13.7951    1.8581 H         1 MOL     0.0624
     37 H          24.9163  -12.6379    2.0941 H         1 MOL     0.0377
     38 H          26.5649  -12.4116    2.8298 H         1 MOL     0.0377
     39 H          26.9278  -10.7719    4.5437 H         1 MOL     0.0629
     40 H          27.0241   -5.7620    7.0640 H         1 MOL     0.0480
     41 H          28.2933   -7.0200    6.8394 H         1 MOL     0.0480
     42 H          28.0695   -6.1909    9.3057 H         1 MOL     0.0480
     43 H          27.7529   -7.9618    9.1446 H         1 MOL     0.0480
     44 H          24.0618   -7.4560    9.3680 H         1 MOL     0.0480
     45 H          25.3318   -8.7333    9.2884 H         1 MOL     0.0480
     46 H          24.4383   -6.8044    7.0488 H         1 MOL     0.0480
     47 H          24.4144   -8.6015    7.0135 H         1 MOL     0.0480
     48 H          26.8520   -5.9247   12.3596 H         1 MOL     0.0394
     49 H          26.8424   -3.4302   12.3169 H         1 MOL     0.0273
     50 H          26.0539   -3.4772   10.6452 H         1 MOL     0.0273
     51 H          28.7789   -4.6264   11.4200 H         1 MOL     0.0273
     52 H          28.0010   -4.7118    9.7489 H         1 MOL     0.0273
     53 H          22.5762   -8.7747    3.3282 H         1 MOL     0.0646
     54 H          23.1170  -11.0892    2.6053 H         1 MOL     0.0621
     55 H          26.0047  -14.1296    7.1341 H         1 MOL     0.1921
@<TRIPOS>BOND
     1    1   18 1 
     2    1   21 1 
     3    1   17 am
     4    2   20 1 
     5    2   22 am
     6    2   19 1 
     7    3    4 ar
     8    3   12 ar
     9    4   55 1 
    10    4    5 ar
    11    5    6 ar
    12    5   29 2 
    13    6    7 ar
    14    6   11 ar
    15    7    8 ar
    16    7   33 1 
    17    8    9 ar
    18    8   34 1 
    19    9   10 ar
    20    9   35 1 
    21   10   11 ar
    22   10   36 1 
    23   11   12 ar
    24   12   13 1 
    25   13   14 1 
    26   13   37 1 
    27   13   38 1 
    28   14   15 ar
    29   14   28 ar
    30   15   16 ar
    31   15   39 1 
    32   16   17 1 
    33   16   26 ar
    34   17   31 2 
    35   18   19 1 
    36   18   40 1 
    37   18   41 1 
    38   19   42 1 
    39   19   43 1 
    40   20   21 1 
    41   20   44 1 
    42   20   45 1 
    43   21   46 1 
    44   21   47 1 
    45   22   23 1 
    46   22   30 2 
    47   23   24 1 
    48   23   25 1 
    49   23   48 1 
    50   24   25 1 
    51   24   49 1 
    52   24   50 1 
    53   25   51 1 
    54   25   52 1 
    55   26   27 ar
    56   26   32 1 
    57   27   28 ar
    58   27   53 1 
    59   28   54 1 
@<TRIPOS>SUBSTRUCTURE
1 MOL         1
@<TRIPOS>MOLECULE
query molecule
   55    59     1     0     0
SMALL
NO_CHARGE

@<TRIPOS>ATOM
      1 N          13.3010    7.3309   25.7842 N.am      1 MOL    -0.2945
      2 N          13.4827    4.8936   27.3143 N.am      1 MOL    -0.2983
      3 N          16.7743   11.7039   27.7799 N.ar      1 MOL    -0.1750
      4 N          17.3460   11.4493   28.9459 N.ar      1 MOL    -0.2425
      5 C          18.7519   11.4073   29.0688 C.ar      1 MOL     0.2725
      6 C          19.5335   11.7001   27.9313 C.ar      1 MOL     0.0496
      7 C          20.9290   11.7519   27.9957 C.ar      1 MOL     0.0138
      8 C          21.6723   12.0529   26.8528 C.ar      1 MOL     0.0008
      9 C          21.0353   12.2758   25.6306 C.ar      1 MOL     0.0007
     10 C          19.6459   12.2284   25.5538 C.ar      1 MOL     0.0103
     11 C          18.8734   11.9655   26.6950 C.ar      1 MOL     0.0106
     12 C          17.4721   11.9681   26.6408 C.ar      1 MOL     0.0736
     13 C          16.7233   12.2635   25.3830 C.3       1 MOL     0.0925
     14 C          16.2045   11.0136   24.7834 C.ar      1 MOL    -0.0406
     15 C          15.0461   10.4093   25.2863 C.ar      1 MOL     0.0196
     16 C          14.5434    9.2131   24.7300 C.ar      1 MOL     0.0723
     17 C          13.3557    8.6239   25.3858 C.2       1 MOL     0.2495
     18 C          12.1552    6.8768   26.5824 C.3       1 MOL     0.1268
     19 C          12.5683    5.9294   27.7598 C.3       1 MOL     0.1265
     20 C          14.6493    5.3812   26.5958 C.3       1 MOL     0.1265
     21 C          14.2456    6.3016   25.4195 C.3       1 MOL     0.1268
     22 C          13.4340    3.5848   27.6669 C.2       1 MOL     0.2187
     23 C          12.4030    3.1672   28.6461 C.3       1 MOL     0.0752
     24 C          12.9181    2.1941   29.6487 C.3       1 MOL     0.0134
     25 C          12.0366    1.7316   28.5226 C.3       1 MOL     0.0134
     26 C          15.2033    8.7014   23.6223 C.ar      1 MOL     0.1355
     27 C          16.3687    9.2800   23.1126 C.ar      1 MOL     0.0392
     28 C          16.8776   10.4341   23.7024 C.ar      1 MOL     0.0066
     29 O          19.2162   11.0917   30.1748 O.2       1 MOL    -0.2658
     30 O          14.2142    2.7477   27.2086 O.2       1 MOL    -0.2753
     31 O          12.4430    9.4310   25.6199 O.2       1 MOL    -0.2699
     32 F          14.7528    7.6065   22.9858 F         1 MOL    -0.2047
     33 H          21.4335   11.5684   28.9322 H         1 MOL     0.0625
     34 H          22.7503   12.1061   26.9091 H         1 MOL     0.0618
     35 H          21.6161   12.4857   24.7460 H         1 MOL     0.0618
     36 H          19.1562   12.4046   24.6057 H         1 MOL     0.0624
     37 H          17.4064   12.7485   24.6653 H         1 MOL     0.0377
     38 H          15.8712   12.9235   25.6226 H         1 MOL     0.0377
     39 H          14.5346   10.8624   26.1245 H         1 MOL     0.0629
     40 H          11.4683    6.3148   25.9037 H         1 MOL     0.0480
     41 H          11.6032    7.7650   26.9654 H         1 MOL     0.0480
     42 H          11.6788    5.4590   28.2330 H         1 MOL     0.0480
     43 H          13.0939    6.5327   28.5429 H         1 MOL     0.0480
     44 H          15.2453    4.5120   26.2326 H         1 MOL     0.0480
     45 H          15.2849    5.9564   27.3117 H         1 MOL     0.0480
     46 H          13.7637    5.6680   24.6327 H         1 MOL     0.0480
     47 H          15.1422    6.7779   24.9619 H         1 MOL     0.0480
     48 H          11.6817    3.9047   28.9050 H         1 MOL     0.0394
     49 H          12.4733    2.2099   30.6350 H         1 MOL     0.0273
     50 H          13.9667    1.9307   29.5788 H         1 MOL     0.0273
     51 H          11.0256    1.4511   28.7849 H         1 MOL     0.0273
     52 H          12.5211    1.1724   27.7309 H         1 MOL     0.0273
     53 H          16.8738    8.8365   22.2684 H         1 MOL     0.0646
     54 H          17.7839   10.8855   23.3253 H         1 MOL     0.0621
     55 H          16.8115   11.2892   29.7821 H         1 MOL     0.1921
@<TRIPOS>BOND
     1    1   18 1 
     2    1   21 1 
     3    1   17 am
     4    2   20 1 
     5    2   22 am
     6    2   19 1 
     7    3    4 ar
     8    3   12 ar
     9    4   55 1 
    10    4    5 ar
    11    5    6 ar
    12    5   29 2 
    13    6    7 ar
    14    6   11 ar
    15    7    8 ar
    16    7   33 1 
    17    8    9 ar
    18    8   34 1 
    19    9   10 ar
    20    9   35 1 
    21   10   11 ar
    22   10   36 1 
    23   11   12 ar
    24   12   13 1 
    25   13   14 1 
    26   13   37 1 
    27   13   38 1 
    28   14   15 ar
    29   14   28 ar
    30   15   16 ar
    31   15   39 1 
    32   16   17 1 
    33   16   26 ar
    34   17   31 2 
    35   18   19 1 
    36   18   40 1 
    37   18   41 1 
    38   19   42 1 
    39   19   43 1 
    40   20   21 1 
    41   20   44 1 
    42   20   45 1 
    43   21   46 1 
    44   21   47 1 
    45   22   23 1 
    46   22   30 2 
    47   23   24 1 
    48   23   25 1 
    49   23   48 1 
    50   24   25 1 
    51   24   49 1 
    52   24   50 1 
    53   25   51 1 
    54   25   52 1 
    55   26   27 ar
    56   26   32 1 
    57   27   28 ar
    58   27   53 1 
    59   28   54 1 
@<TRIPOS>SUBSTRUCTURE
1 MOL         1
@<TRIPOS>MOLECULE
query molecule
   55    59     1     0     0
SMALL
NO_CHARGE

@<TRIPOS>ATOM
      1 N          35.3211  -18.8193    4.9677 N.am      1 MOL    -0.2945
      2 N          34.2599  -17.7045    2.5543 N.am      1 MOL    -0.2983
      3 N          39.7147  -14.8620    8.7068 N.ar      1 MOL    -0.1750
      4 N          40.2712  -13.7560    9.1895 N.ar      1 MOL    -0.2425
      5 C          40.8002  -13.7101   10.4935 C.ar      1 MOL     0.2725
      6 C          40.7368  -14.8764   11.2782 C.ar      1 MOL     0.0496
      7 C          41.2102  -14.8731   12.5933 C.ar      1 MOL     0.0138
      8 C          41.1448  -16.0324   13.3634 C.ar      1 MOL     0.0008
      9 C          40.6154  -17.2023   12.8162 C.ar      1 MOL     0.0007
     10 C          40.1385  -17.2138   11.5034 C.ar      1 MOL     0.0103
     11 C          40.1766  -16.0559   10.7118 C.ar      1 MOL     0.0106
     12 C          39.6836  -16.0366    9.3950 C.ar      1 MOL     0.0736
     13 C          39.1497  -17.2553    8.7273 C.3       1 MOL     0.0925
     14 C          37.6782  -17.3039    8.5482 C.ar      1 MOL    -0.0406
     15 C          37.1740  -18.1395    7.5297 C.ar      1 MOL     0.0196
     16 C          35.7942  -18.2695    7.3205 C.ar      1 MOL     0.0723
     17 C          35.2531  -19.1644    6.2718 C.2       1 MOL     0.2495
     18 C          34.7934  -19.7259    3.9474 C.3       1 MOL     0.1268
     19 C          33.7775  -19.0027    3.0067 C.3       1 MOL     0.1265
     20 C          34.9011  -16.8374    3.5516 C.3       1 MOL     0.1265
     21 C          35.9145  -17.5995    4.4527 C.3       1 MOL     0.1268
     22 C          33.8447  -17.0920    1.4026 C.2       1 MOL     0.2187
     23 C          32.7842  -17.7420    0.5920 C.3       1 MOL     0.0752
     24 C          32.8450  -17.4427   -0.8587 C.3       1 MOL     0.0134
     25 C          31.8570  -16.7217    0.0121 C.3       1 MOL     0.0134
     26 C          34.9156  -17.5570    8.1430 C.ar      1 MOL     0.1355
     27 C          35.4031  -16.7217    9.1505 C.ar      1 MOL     0.0392
     28 C          36.7809  -16.5916    9.3507 C.ar      1 MOL     0.0066
     29 O          41.2929  -12.6486   10.8957 O.2       1 MOL    -0.2658
     30 O          34.2909  -15.9873    1.0505 O.2       1 MOL    -0.2753
     31 O          34.7259  -20.2118    6.6697 O.2       1 MOL    -0.2699
     32 F          33.5775  -17.6779    7.9643 F         1 MOL    -0.2047
     33 H          41.6223  -13.9675   13.0135 H         1 MOL     0.0625
     34 H          41.5038  -16.0244   14.3823 H         1 MOL     0.0618
     35 H          40.5736  -18.1031   13.4112 H         1 MOL     0.0618
     36 H          39.7306  -18.1268   11.0904 H         1 MOL     0.0624
     37 H          39.4544  -18.1337    9.3311 H         1 MOL     0.0377
     38 H          39.6160  -17.3175    7.7224 H         1 MOL     0.0377
     39 H          37.8664  -18.6944    6.9106 H         1 MOL     0.0629
     40 H          34.3198  -20.6015    4.4468 H         1 MOL     0.0480
     41 H          35.6556  -20.1027    3.3448 H         1 MOL     0.0480
     42 H          32.8320  -18.8326    3.5803 H         1 MOL     0.0480
     43 H          33.5278  -19.6312    2.1228 H         1 MOL     0.0480
     44 H          34.0934  -16.4236    4.2072 H         1 MOL     0.0480
     45 H          35.3862  -15.9816    3.0298 H         1 MOL     0.0480
     46 H          36.2568  -16.9644    5.2993 H         1 MOL     0.0480
     47 H          36.8082  -17.8825    3.8436 H         1 MOL     0.0480
     48 H          32.4026  -18.6507    0.9755 H         1 MOL     0.0394
     49 H          32.4245  -18.1710   -1.5406 H         1 MOL     0.0273
     50 H          33.6979  -16.8728   -1.2048 H         1 MOL     0.0273
     51 H          30.8136  -16.9845   -0.0978 H         1 MOL     0.0273
     52 H          32.0900  -15.6811    0.2158 H         1 MOL     0.0273
     53 H          34.7139  -16.1759    9.7783 H         1 MOL     0.0646
     54 H          37.1530  -15.9419   10.1313 H         1 MOL     0.0621
     55 H          40.3416  -12.9241    8.6282 H         1 MOL     0.1921
@<TRIPOS>BOND
     1    1   18 1 
     2    1   21 1 
     3    1   17 am
     4    2   20 1 
     5    2   22 am
     6    2   19 1 
     7    3    4 ar
     8    3   12 ar
     9    4   55 1 
    10    4    5 ar
    11    5    6 ar
    12    5   29 2 
    13    6    7 ar
    14    6   11 ar
    15    7    8 ar
    16    7   33 1 
    17    8    9 ar
    18    8   34 1 
    19    9   10 ar
    20    9   35 1 
    21   10   11 ar
    22   10   36 1 
    23   11   12 ar
    24   12   13 1 
    25   13   14 1 
    26   13   37 1 
    27   13   38 1 
    28   14   15 ar
    29   14   28 ar
    30   15   16 ar
    31   15   39 1 
    32   16   17 1 
    33   16   26 ar
    34   17   31 2 
    35   18   19 1 
    36   18   40 1 
    37   18   41 1 
    38   19   42 1 
    39   19   43 1 
    40   20   21 1 
    41   20   44 1 
    42   20   45 1 
    43   21   46 1 
    44   21   47 1 
    45   22   23 1 
    46   22   30 2 
    47   23   24 1 
    48   23   25 1 
    49   23   48 1 
    50   24   25 1 
    51   24   49 1 
    52   24   50 1 
    53   25   51 1 
    54   25   52 1 
    55   26   27 ar
    56   26   32 1 
    57   27   28 ar
    58   27   53 1 
    59   28   54 1 
@<TRIPOS>SUBSTRUCTURE
1 MOL         1
@<TRIPOS>MOLECULE
query molecule
   55    59     1     0     0
SMALL
NO_CHARGE

@<TRIPOS>ATOM
      1 N          20.2042   12.8198   16.1988 N.am      1 MOL    -0.2945
      2 N          20.2203   12.7669   13.3375 N.am      1 MOL    -0.2983
      3 N          18.0019    9.7983   20.3535 N.ar      1 MOL    -0.1750
      4 N          18.5743    8.9603   21.2090 N.ar      1 MOL    -0.2425
      5 C          17.8115    8.3665   22.2299 C.ar      1 MOL     0.2725
      6 C          16.4842    8.7810   22.4182 C.ar      1 MOL     0.0496
      7 C          15.7323    8.2925   23.4871 C.ar      1 MOL     0.0138
      8 C          14.4349    8.7513   23.7034 C.ar      1 MOL     0.0008
      9 C          13.8738    9.6890   22.8357 C.ar      1 MOL     0.0007
     10 C          14.6095   10.1610   21.7461 C.ar      1 MOL     0.0103
     11 C          15.9245    9.7241   21.5182 C.ar      1 MOL     0.0106
     12 C          16.6967   10.1922   20.4383 C.ar      1 MOL     0.0736
     13 C          16.0930   11.0871   19.4058 C.3       1 MOL     0.0925
     14 C          16.8946   12.2886   19.1455 C.ar      1 MOL    -0.0406
     15 C          18.0840   12.2244   18.4127 C.ar      1 MOL     0.0196
     16 C          18.8213   13.3881   18.1657 C.ar      1 MOL     0.0723
     17 C          20.0943   13.3832   17.4185 C.2       1 MOL     0.2495
     18 C          21.4754   12.9770   15.4832 C.3       1 MOL     0.1268
     19 C          21.2389   13.5354   14.0433 C.3       1 MOL     0.1265
     20 C          18.9629   12.5498   14.0555 C.3       1 MOL     0.1265
     21 C          19.1866   12.0463   15.5126 C.3       1 MOL     0.1268
     22 C          20.2406   12.5211   11.9949 C.2       1 MOL     0.2187
     23 C          21.2941   13.1798   11.1827 C.3       1 MOL     0.0752
     24 C          20.6814   14.4444   10.6526 C.3       1 MOL     0.0134
     25 C          21.0000   13.3010    9.7359 C.3       1 MOL     0.0134
     26 C          18.3441   14.6092   18.6722 C.ar      1 MOL     0.1355
     27 C          17.1551   14.6750   19.3981 C.ar      1 MOL     0.0392
     28 C          16.4267   13.5111   19.6326 C.ar      1 MOL     0.0066
     29 O          18.3477    7.4754   22.9057 O.2       1 MOL    -0.2658
     30 O          19.4104   11.7840   11.4395 O.2       1 MOL    -0.2753
     31 O          21.0279   13.9838   17.9707 O.2       1 MOL    -0.2699
     32 F          19.0341   15.7571   18.4620 F         1 MOL    -0.2047
     33 H          16.1679    7.5662   24.1581 H         1 MOL     0.0625
     34 H          13.8704    8.3851   24.5482 H         1 MOL     0.0618
     35 H          12.8714   10.0511   23.0123 H         1 MOL     0.0618
     36 H          14.1600   10.8798   21.0743 H         1 MOL     0.0624
     37 H          15.0954   11.4069   19.7654 H         1 MOL     0.0377
     38 H          15.9899   10.5188   18.4622 H         1 MOL     0.0377
     39 H          18.4328   11.2715   18.0402 H         1 MOL     0.0629
     40 H          21.9693   11.9782   15.4224 H         1 MOL     0.0480
     41 H          22.1398   13.6536   16.0687 H         1 MOL     0.0480
     42 H          22.1802   13.5433   13.4507 H         1 MOL     0.0480
     43 H          20.8788   14.5910   14.1261 H         1 MOL     0.0480
     44 H          18.3206   11.8540   13.4718 H         1 MOL     0.0480
     45 H          18.4352   13.5365   14.1047 H         1 MOL     0.0480
     46 H          19.5205   10.9814   15.4829 H         1 MOL     0.0480
     47 H          18.2365   12.0931   16.0928 H         1 MOL     0.0480
     48 H          22.2673   13.2116   11.5961 H         1 MOL     0.0394
     49 H          21.3057   15.3248   10.5874 H         1 MOL     0.0273
     50 H          19.6282   14.5990   10.8667 H         1 MOL     0.0273
     51 H          21.8339   13.4757    9.0648 H         1 MOL     0.0273
     52 H          20.1714   12.7163    9.3582 H         1 MOL     0.0273
     53 H          16.7977   15.6205   19.7764 H         1 MOL     0.0646
     54 H          15.5014   13.5505   20.1880 H         1 MOL     0.0621
     55 H          19.5500    8.7111   21.1966 H         1 MOL     0.1921
@<TRIPOS>BOND
     1    1   18 1 
     2    1   21 1 
     3    1   17 am
     4    2   20 1 
     5    2   22 am
     6    2   19 1 
     7    3    4 ar
     8    3   12 ar
     9    4   55 1 
    10    4    5 ar
    11    5    6 ar
    12    5   29 2 
    13    6    7 ar
    14    6   11 ar
    15    7    8 ar
    16    7   33 1 
    17    8    9 ar
    18    8   34 1 
    19    9   10 ar
    20    9   35 1 
    21   10   11 ar
    22   10   36 1 
    23   11   12 ar
    24   12   13 1 
    25   13   14 1 
    26   13   37 1 
    27   13   38 1 
    28   14   15 ar
    29   14   28 ar
    30   15   16 ar
    31   15   39 1 
    32   16   17 1 
    33   16   26 ar
    34   17   31 2 
    35   18   19 1 
    36   18   40 1 
    37   18   41 1 
    38   19   42 1 
    39   19   43 1 
    40   20   21 1 
    41   20   44 1 
    42   20   45 1 
    43   21   46 1 
    44   21   47 1 
    45   22   23 1 
    46   22   30 2 
    47   23   24 1 
    48   23   25 1 
    49   23   48 1 
    50   24   25 1 
    51   24   49 1 
    52   24   50 1 
    53   25   51 1 
    54   25   52 1 
    55   26   27 ar
    56   26   32 1 
    57   27   28 ar
    58   27   53 1 
    59   28   54 1 
@<TRIPOS>SUBSTRUCTURE
1 MOL         1
@<TRIPOS>MOLECULE
query molecule
   55    59     1     0     0
SMALL
NO_CHARGE

@<TRIPOS>ATOM
      1 N          11.5337    7.1176   26.0372 N.am      1 MOL    -0.2945
      2 N          13.4279    5.2056   26.9793 N.am      1 MOL    -0.2983
      3 N          15.0574    8.5290   21.4854 N.ar      1 MOL    -0.1750
      4 N          16.2566    7.9719   21.5409 N.ar      1 MOL    -0.2425
      5 C          17.3331    8.6363   22.1589 C.ar      1 MOL     0.2725
      6 C          17.1070    9.9255   22.6814 C.ar      1 MOL     0.0496
      7 C          18.1319   10.6318   23.3173 C.ar      1 MOL     0.0138
      8 C          17.8928   11.9063   23.8307 C.ar      1 MOL     0.0008
      9 C          16.6317   12.4878   23.6981 C.ar      1 MOL     0.0007
     10 C          15.6079   11.7931   23.0578 C.ar      1 MOL     0.0103
     11 C          15.8080   10.5020   22.5510 C.ar      1 MOL     0.0106
     12 C          14.7758    9.7829   21.9317 C.ar      1 MOL     0.0736
     13 C          13.3913   10.2956   21.7112 C.3       1 MOL     0.0925
     14 C          12.5680   10.2809   22.9415 C.ar      1 MOL    -0.0406
     15 C          12.0531    9.0881   23.4565 C.ar      1 MOL     0.0196
     16 C          11.3088    9.1070   24.6425 C.ar      1 MOL     0.0723
     17 C          10.7806    7.8382   25.1777 C.2       1 MOL     0.2495
     18 C          11.0750    5.7888   26.4295 C.3       1 MOL     0.1268
     19 C          12.2246    4.7526   26.3076 C.3       1 MOL     0.1265
     20 C          13.8864    6.5336   26.5850 C.3       1 MOL     0.1265
     21 C          12.7543    7.5984   26.6637 C.3       1 MOL     0.1268
     22 C          14.2713    4.3786   27.6571 C.2       1 MOL     0.2187
     23 C          13.9142    2.9465   27.7953 C.3       1 MOL     0.0752
     24 C          12.8673    2.6535   28.8096 C.3       1 MOL     0.0134
     25 C          14.3094    2.3987   29.1242 C.3       1 MOL     0.0134
     26 C          11.0720   10.3131   25.3003 C.ar      1 MOL     0.1355
     27 C          11.5651   11.5094   24.7797 C.ar      1 MOL     0.0392
     28 C          12.3045   11.4928   23.5959 C.ar      1 MOL     0.0066
     29 O          18.4218    8.0471   22.2113 O.2       1 MOL    -0.2658
     30 O          15.3673    4.7649   28.0965 O.2       1 MOL    -0.2753
     31 O           9.6707    7.4831   24.7680 O.2       1 MOL    -0.2699
     32 F          10.3618   10.3384   26.4529 F         1 MOL    -0.2047
     33 H          19.1116   10.1891   23.4142 H         1 MOL     0.0625
     34 H          18.6813   12.4475   24.3317 H         1 MOL     0.0618
     35 H          16.4423   13.4755   24.0917 H         1 MOL     0.0618
     36 H          14.6335   12.2536   22.9569 H         1 MOL     0.0624
     37 H          12.8988    9.6445   20.9617 H         1 MOL     0.0377
     38 H          13.4479   11.3324   21.3345 H         1 MOL     0.0377
     39 H          12.2281    8.1532   22.9465 H         1 MOL     0.0629
     40 H          10.2044    5.5047   25.7976 H         1 MOL     0.0480
     41 H          10.7314    5.8403   27.4903 H         1 MOL     0.0480
     42 H          12.4688    4.6153   25.2240 H         1 MOL     0.0480
     43 H          11.9208    3.7629   26.7204 H         1 MOL     0.0480
     44 H          14.2456    6.4745   25.5295 H         1 MOL     0.0480
     45 H          14.7518    6.8259   27.2157 H         1 MOL     0.0480
     46 H          13.0660    8.5543   26.1843 H         1 MOL     0.0480
     47 H          12.5342    7.8119   27.7377 H         1 MOL     0.0480
     48 H          14.0157    2.3640   26.9120 H         1 MOL     0.0394
     49 H          12.2596    1.7725   28.6296 H         1 MOL     0.0273
     50 H          12.3973    3.4901   29.3094 H         1 MOL     0.0273
     51 H          14.6372    1.3664   29.1446 H         1 MOL     0.0273
     52 H          14.7684    3.0769   29.8313 H         1 MOL     0.0273
     53 H          11.3792   12.4431   25.2886 H         1 MOL     0.0646
     54 H          12.6846   12.4174   23.1855 H         1 MOL     0.0621
     55 H          16.4528    7.0669   21.1497 H         1 MOL     0.1921
@<TRIPOS>BOND
     1    1   18 1 
     2    1   21 1 
     3    1   17 am
     4    2   20 1 
     5    2   22 am
     6    2   19 1 
     7    3    4 ar
     8    3   12 ar
     9    4   55 1 
    10    4    5 ar
    11    5    6 ar
    12    5   29 2 
    13    6    7 ar
    14    6   11 ar
    15    7    8 ar
    16    7   33 1 
    17    8    9 ar
    18    8   34 1 
    19    9   10 ar
    20    9   35 1 
    21   10   11 ar
    22   10   36 1 
    23   11   12 ar
    24   12   13 1 
    25   13   14 1 
    26   13   37 1 
    27   13   38 1 
    28   14   15 ar
    29   14   28 ar
    30   15   16 ar
    31   15   39 1 
    32   16   17 1 
    33   16   26 ar
    34   17   31 2 
    35   18   19 1 
    36   18   40 1 
    37   18   41 1 
    38   19   42 1 
    39   19   43 1 
    40   20   21 1 
    41   20   44 1 
    42   20   45 1 
    43   21   46 1 
    44   21   47 1 
    45   22   23 1 
    46   22   30 2 
    47   23   24 1 
    48   23   25 1 
    49   23   48 1 
    50   24   25 1 
    51   24   49 1 
    52   24   50 1 
    53   25   51 1 
    54   25   52 1 
    55   26   27 ar
    56   26   32 1 
    57   27   28 ar
    58   27   53 1 
    59   28   54 1 
@<TRIPOS>SUBSTRUCTURE
1 MOL         1
@<TRIPOS>MOLECULE
query molecule
   55    59     1     0     0
SMALL
NO_CHARGE

@<TRIPOS>ATOM
      1 N          17.7049   10.0046   22.1167 N.am      1 MOL    -0.2945
      2 N          17.5340   10.6832   19.3611 N.am      1 MOL    -0.2983
      3 N          18.6671   11.4068   28.2415 N.ar      1 MOL    -0.1750
      4 N          19.7272   10.9392   28.8966 N.ar      1 MOL    -0.2425
      5 C          21.0320   11.4185   28.6350 C.ar      1 MOL     0.2725
      6 C          21.2019   12.4059   27.6427 C.ar      1 MOL     0.0496
      7 C          22.4724   12.8700   27.2876 C.ar      1 MOL     0.0138
      8 C          22.6158   13.8764   26.3308 C.ar      1 MOL     0.0008
      9 C          21.4877   14.4286   25.7268 C.ar      1 MOL     0.0007
     10 C          20.2166   13.9592   26.0592 C.ar      1 MOL     0.0103
     11 C          20.0467   12.9357   27.0062 C.ar      1 MOL     0.0106
     12 C          18.7740   12.4319   27.3434 C.ar      1 MOL     0.0736
     13 C          17.5493   13.0228   26.7182 C.3       1 MOL     0.0925
     14 C          16.7742   12.0413   25.9317 C.ar      1 MOL    -0.0406
     15 C          17.3775   11.2083   24.9858 C.ar      1 MOL     0.0196
     16 C          16.5980   10.3065   24.2557 C.ar      1 MOL     0.0723
     17 C          17.2206    9.4414   23.2393 C.2       1 MOL     0.2495
     18 C          18.3417    9.1392   21.1415 C.3       1 MOL     0.1268
     19 C          17.6411    9.2943   19.7705 C.3       1 MOL     0.1265
     20 C          16.9410   11.5757   20.3721 C.3       1 MOL     0.1265
     21 C          17.6237   11.4088   21.7666 C.3       1 MOL     0.1268
     22 C          17.7379   11.1755   18.1115 C.2       1 MOL     0.2187
     23 C          18.1668   10.3229   16.9899 C.3       1 MOL     0.0752
     24 C          19.2397    9.3258   17.1738 C.3       1 MOL     0.0134
     25 C          19.5818   10.6744   16.6381 C.3       1 MOL     0.0134
     26 C          15.2240   10.2263   24.4801 C.ar      1 MOL     0.1355
     27 C          14.6167   11.0536   25.4237 C.ar      1 MOL     0.0392
     28 C          15.3914   11.9647   26.1467 C.ar      1 MOL     0.0066
     29 O          21.9670   10.9704   29.3191 O.2       1 MOL    -0.2658
     30 O          17.5170   12.3743   17.8436 O.2       1 MOL    -0.2753
     31 O          17.2411    8.2253   23.4571 O.2       1 MOL    -0.2699
     32 F          14.4684    9.3507   23.7758 F         1 MOL    -0.2047
     33 H          23.3497   12.4494   27.7574 H         1 MOL     0.0625
     34 H          23.5986   14.2330   26.0587 H         1 MOL     0.0618
     35 H          21.5978   15.2205   24.9997 H         1 MOL     0.0618
     36 H          19.3480   14.3924   25.5804 H         1 MOL     0.0624
     37 H          17.8650   13.8404   26.0412 H         1 MOL     0.0377
     38 H          16.8977   13.4235   27.5170 H         1 MOL     0.0377
     39 H          18.4432   11.2634   24.8179 H         1 MOL     0.0629
     40 H          18.2808    8.0869   21.5026 H         1 MOL     0.0480
     41 H          19.4142    9.4263   21.0571 H         1 MOL     0.0480
     42 H          16.6063    8.8799   19.8559 H         1 MOL     0.0480
     43 H          18.1704    8.7106   18.9845 H         1 MOL     0.0480
     44 H          15.8598   11.3137   20.4863 H         1 MOL     0.0480
     45 H          16.9970   12.6299   20.0211 H         1 MOL     0.0480
     46 H          17.0791   11.9577   22.5676 H         1 MOL     0.0480
     47 H          18.6607   11.8195   21.7247 H         1 MOL     0.0480
     48 H          17.4419   10.2177   16.2118 H         1 MOL     0.0394
     49 H          19.2387    8.5017   16.4677 H         1 MOL     0.0273
     50 H          19.4909    9.0920   18.2011 H         1 MOL     0.0273
     51 H          19.8607   10.6916   15.5914 H         1 MOL     0.0273
     52 H          20.1188   11.3347   17.3072 H         1 MOL     0.0273
     53 H          13.5526   10.9951   25.5928 H         1 MOL     0.0646
     54 H          14.9265   12.6161   26.8722 H         1 MOL     0.0621
     55 H          19.6529   10.2302   29.6060 H         1 MOL     0.1921
@<TRIPOS>BOND
     1    1   18 1 
     2    1   21 1 
     3    1   17 am
     4    2   20 1 
     5    2   22 am
     6    2   19 1 
     7    3    4 ar
     8    3   12 ar
     9    4   55 1 
    10    4    5 ar
    11    5    6 ar
    12    5   29 2 
    13    6    7 ar
    14    6   11 ar
    15    7    8 ar
    16    7   33 1 
    17    8    9 ar
    18    8   34 1 
    19    9   10 ar
    20    9   35 1 
    21   10   11 ar
    22   10   36 1 
    23   11   12 ar
    24   12   13 1 
    25   13   14 1 
    26   13   37 1 
    27   13   38 1 
    28   14   15 ar
    29   14   28 ar
    30   15   16 ar
    31   15   39 1 
    32   16   17 1 
    33   16   26 ar
    34   17   31 2 
    35   18   19 1 
    36   18   40 1 
    37   18   41 1 
    38   19   42 1 
    39   19   43 1 
    40   20   21 1 
    41   20   44 1 
    42   20   45 1 
    43   21   46 1 
    44   21   47 1 
    45   22   23 1 
    46   22   30 2 
    47   23   24 1 
    48   23   25 1 
    49   23   48 1 
    50   24   25 1 
    51   24   49 1 
    52   24   50 1 
    53   25   51 1 
    54   25   52 1 
    55   26   27 ar
    56   26   32 1 
    57   27   28 ar
    58   27   53 1 
    59   28   54 1 
@<TRIPOS>SUBSTRUCTURE
1 MOL         1
@<TRIPOS>MOLECULE
query molecule
   55    59     1     0     0
SMALL
NO_CHARGE

@<TRIPOS>ATOM
      1 N          33.8245  -19.2833    8.6842 N.am      1 MOL    -0.2945
      2 N          32.8667  -20.1408   11.2525 N.am      1 MOL    -0.2983
      3 N          39.8474  -14.2876    8.9987 N.ar      1 MOL    -0.1750
      4 N          40.9042  -14.2031    9.7949 N.ar      1 MOL    -0.2425
      5 C          40.9625  -14.9473   10.9917 C.ar      1 MOL     0.2725
      6 C          39.8706  -15.7898   11.3040 C.ar      1 MOL     0.0496
      7 C          39.8900  -16.5887   12.4525 C.ar      1 MOL     0.0138
      8 C          38.7865  -17.3791   12.7778 C.ar      1 MOL     0.0008
      9 C          37.6542  -17.3710   11.9625 C.ar      1 MOL     0.0007
     10 C          37.6326  -16.5914   10.8094 C.ar      1 MOL     0.0103
     11 C          38.7373  -15.8121   10.4344 C.ar      1 MOL     0.0106
     12 C          38.7526  -15.0611    9.2480 C.ar      1 MOL     0.0736
     13 C          37.6469  -15.0181    8.2478 C.3       1 MOL     0.0925
     14 C          37.2417  -16.3376    7.7000 C.ar      1 MOL    -0.0406
     15 C          35.9138  -16.7697    7.8524 C.ar      1 MOL     0.0196
     16 C          35.5260  -18.0448    7.4143 C.ar      1 MOL     0.0723
     17 C          34.1286  -18.4909    7.6258 C.2       1 MOL     0.2495
     18 C          32.4745  -19.8285    8.7997 C.3       1 MOL     0.1268
     19 C          31.9095  -19.7205   10.2448 C.3       1 MOL     0.1265
     20 C          34.2285  -19.6111   11.1326 C.3       1 MOL     0.1265
     21 C          34.7936  -19.6858    9.6894 C.3       1 MOL     0.1268
     22 C          32.5389  -20.7312   12.4363 C.2       1 MOL     0.2187
     23 C          31.1195  -20.9738   12.7914 C.3       1 MOL     0.0752
     24 C          30.3521  -19.7877   13.2478 C.3       1 MOL     0.0134
     25 C          30.9426  -20.7134   14.2610 C.3       1 MOL     0.0134
     26 C          36.4640  -18.8675    6.7878 C.ar      1 MOL     0.1355
     27 C          37.7802  -18.4374    6.6068 C.ar      1 MOL     0.0392
     28 C          38.1654  -17.1724    7.0585 C.ar      1 MOL     0.0066
     29 O          41.9609  -14.8160   11.7174 O.2       1 MOL    -0.2658
     30 O          33.4094  -21.1225   13.2360 O.2       1 MOL    -0.2753
     31 O          33.2978  -18.1120    6.7937 O.2       1 MOL    -0.2699
     32 F          36.1045  -20.0970    6.3471 F         1 MOL    -0.2047
     33 H          40.7594  -16.5931   13.0935 H         1 MOL     0.0625
     34 H          38.8051  -17.9968   13.6640 H         1 MOL     0.0618
     35 H          36.7945  -17.9697   12.2246 H         1 MOL     0.0618
     36 H          36.7489  -16.5938   10.1845 H         1 MOL     0.0624
     37 H          37.9671  -14.3699    7.4090 H         1 MOL     0.0377
     38 H          36.7630  -14.5645    8.7410 H         1 MOL     0.0377
     39 H          35.1914  -16.1179    8.3206 H         1 MOL     0.0629
     40 H          32.4984  -20.8997    8.4879 H         1 MOL     0.0480
     41 H          31.8022  -19.2858    8.0928 H         1 MOL     0.0480
     42 H          30.9720  -20.3116   10.3573 H         1 MOL     0.0480
     43 H          31.6541  -18.6492   10.4465 H         1 MOL     0.0480
     44 H          34.8983  -20.1585   11.8373 H         1 MOL     0.0480
     45 H          34.2055  -18.5401   11.4526 H         1 MOL     0.0480
     46 H          35.1072  -20.7346    9.4691 H         1 MOL     0.0480
     47 H          35.6972  -19.0367    9.5972 H         1 MOL     0.0480
     48 H          30.6652  -21.8236   12.3484 H         1 MOL     0.0394
     49 H          29.2735  -19.8267   13.1444 H         1 MOL     0.0273
     50 H          30.8264  -18.8241   13.1091 H         1 MOL     0.0273
     51 H          30.2489  -21.3409   14.8053 H         1 MOL     0.0273
     52 H          31.8039  -20.3363   14.8010 H         1 MOL     0.0273
     53 H          38.5053  -19.0776    6.1226 H         1 MOL     0.0646
     54 H          39.1834  -16.8317    6.9289 H         1 MOL     0.0621
     55 H          41.6887  -13.6193    9.5649 H         1 MOL     0.1921
@<TRIPOS>BOND
     1    1   18 1 
     2    1   21 1 
     3    1   17 am
     4    2   20 1 
     5    2   22 am
     6    2   19 1 
     7    3    4 ar
     8    3   12 ar
     9    4   55 1 
    10    4    5 ar
    11    5    6 ar
    12    5   29 2 
    13    6    7 ar
    14    6   11 ar
    15    7    8 ar
    16    7   33 1 
    17    8    9 ar
    18    8   34 1 
    19    9   10 ar
    20    9   35 1 
    21   10   11 ar
    22   10   36 1 
    23   11   12 ar
    24   12   13 1 
    25   13   14 1 
    26   13   37 1 
    27   13   38 1 
    28   14   15 ar
    29   14   28 ar
    30   15   16 ar
    31   15   39 1 
    32   16   17 1 
    33   16   26 ar
    34   17   31 2 
    35   18   19 1 
    36   18   40 1 
    37   18   41 1 
    38   19   42 1 
    39   19   43 1 
    40   20   21 1 
    41   20   44 1 
    42   20   45 1 
    43   21   46 1 
    44   21   47 1 
    45   22   23 1 
    46   22   30 2 
    47   23   24 1 
    48   23   25 1 
    49   23   48 1 
    50   24   25 1 
    51   24   49 1 
    52   24   50 1 
    53   25   51 1 
    54   25   52 1 
    55   26   27 ar
    56   26   32 1 
    57   27   28 ar
    58   27   53 1 
    59   28   54 1 
@<TRIPOS>SUBSTRUCTURE
1 MOL         1
@<TRIPOS>MOLECULE
query molecule
   55    59     1     0     0
SMALL
NO_CHARGE

@<TRIPOS>ATOM
      1 N          20.2365    5.3478    4.8284 N.am      1 MOL    -0.2945
      2 N          18.3433    3.3231    5.4695 N.am      1 MOL    -0.2983
      3 N          24.3123    2.9801    3.7839 N.ar      1 MOL    -0.1750
      4 N          24.2577    2.0930    4.7702 N.ar      1 MOL    -0.2425
      5 C          25.3081    1.9911    5.7054 C.ar      1 MOL     0.2725
      6 C          26.4477    2.8033    5.5316 C.ar      1 MOL     0.0496
      7 C          27.5536    2.7004    6.3831 C.ar      1 MOL     0.0138
      8 C          28.6632    3.5278    6.2031 C.ar      1 MOL     0.0008
      9 C          28.6733    4.4648    5.1709 C.ar      1 MOL     0.0007
     10 C          27.5790    4.5781    4.3125 C.ar      1 MOL     0.0103
     11 C          26.4500    3.7569    4.4659 C.ar      1 MOL     0.0106
     12 C          25.3325    3.8688    3.6115 C.ar      1 MOL     0.0736
     13 C          25.2588    4.9088    2.5337 C.3       1 MOL     0.0925
     14 C          23.9161    5.5275    2.3317 C.ar      1 MOL    -0.0406
     15 C          23.0380    5.7699    3.4035 C.ar      1 MOL     0.0196
     16 C          21.7649    6.3014    3.1825 C.ar      1 MOL     0.0723
     17 C          20.7925    6.4639    4.2898 C.2       1 MOL     0.2495
     18 C          19.4395    5.4711    6.0450 C.3       1 MOL     0.1268
     19 C          18.0974    4.6785    5.9207 C.3       1 MOL     0.1265
     20 C          19.0626    3.2298    4.2022 C.3       1 MOL     0.1265
     21 C          20.4116    4.0069    4.2799 C.3       1 MOL     0.1268
     22 C          17.8703    2.1963    6.0648 C.2       1 MOL     0.2187
     23 C          17.0394    2.3501    7.2830 C.3       1 MOL     0.0752
     24 C          17.2779    1.2661    8.2744 C.3       1 MOL     0.0134
     25 C          16.0302    1.2739    7.4420 C.3       1 MOL     0.0134
     26 C          21.3871    6.6509    1.8920 C.ar      1 MOL     0.1355
     27 C          22.2563    6.4502    0.8127 C.ar      1 MOL     0.0392
     28 C          23.5176    5.8788    1.0183 C.ar      1 MOL     0.0066
     29 O          25.1402    1.2266    6.6737 O.2       1 MOL    -0.2658
     30 O          18.1135    1.0656    5.6138 O.2       1 MOL    -0.2753
     31 O          20.5246    7.6111    4.6693 O.2       1 MOL    -0.2699
     32 F          20.1663    7.1847    1.6577 F         1 MOL    -0.2047
     33 H          27.5506    1.9782    7.1866 H         1 MOL     0.0625
     34 H          29.5143    3.4451    6.8630 H         1 MOL     0.0618
     35 H          29.5311    5.1075    5.0334 H         1 MOL     0.0618
     36 H          27.5988    5.3097    3.5159 H         1 MOL     0.0624
     37 H          25.5610    4.4310    1.5800 H         1 MOL     0.0377
     38 H          25.9724    5.7174    2.7898 H         1 MOL     0.0377
     39 H          23.3431    5.5210    4.4109 H         1 MOL     0.0629
     40 H          19.2646    6.5473    6.2666 H         1 MOL     0.0480
     41 H          20.0315    5.0374    6.8882 H         1 MOL     0.0480
     42 H          17.4335    5.1794    5.1757 H         1 MOL     0.0480
     43 H          17.5580    4.6520    6.8944 H         1 MOL     0.0480
     44 H          18.4174    3.6828    3.4091 H         1 MOL     0.0480
     45 H          19.2188    2.1598    3.9431 H         1 MOL     0.0480
     46 H          20.8841    4.0807    3.2736 H         1 MOL     0.0480
     47 H          21.1077    3.4452    4.9482 H         1 MOL     0.0480
     48 H          16.8644    3.3466    7.6010 H         1 MOL     0.0394
     49 H          17.1549    1.5049    9.3238 H         1 MOL     0.0273
     50 H          18.0291    0.5266    8.0218 H         1 MOL     0.0273
     51 H          15.1137    1.5236    7.9607 H         1 MOL     0.0273
     52 H          15.9711    0.5398    6.6469 H         1 MOL     0.0273
     53 H          21.9489    6.7324   -0.1841 H         1 MOL     0.0646
     54 H          24.1816    5.7100    0.1849 H         1 MOL     0.0621
     55 H          23.4842    1.4631    4.8879 H         1 MOL     0.1921
@<TRIPOS>BOND
     1    1   18 1 
     2    1   21 1 
     3    1   17 am
     4    2   20 1 
     5    2   22 am
     6    2   19 1 
     7    3    4 ar
     8    3   12 ar
     9    4   55 1 
    10    4    5 ar
    11    5    6 ar
    12    5   29 2 
    13    6    7 ar
    14    6   11 ar
    15    7    8 ar
    16    7   33 1 
    17    8    9 ar
    18    8   34 1 
    19    9   10 ar
    20    9   35 1 
    21   10   11 ar
    22   10   36 1 
    23   11   12 ar
    24   12   13 1 
    25   13   14 1 
    26   13   37 1 
    27   13   38 1 
    28   14   15 ar
    29   14   28 ar
    30   15   16 ar
    31   15   39 1 
    32   16   17 1 
    33   16   26 ar
    34   17   31 2 
    35   18   19 1 
    36   18   40 1 
    37   18   41 1 
    38   19   42 1 
    39   19   43 1 
    40   20   21 1 
    41   20   44 1 
    42   20   45 1 
    43   21   46 1 
    44   21   47 1 
    45   22   23 1 
    46   22   30 2 
    47   23   24 1 
    48   23   25 1 
    49   23   48 1 
    50   24   25 1 
    51   24   49 1 
    52   24   50 1 
    53   25   51 1 
    54   25   52 1 
    55   26   27 ar
    56   26   32 1 
    57   27   28 ar
    58   27   53 1 
    59   28   54 1 
@<TRIPOS>SUBSTRUCTURE
1 MOL         1
@<TRIPOS>MOLECULE
query molecule
   55    59     1     0     0
SMALL
NO_CHARGE

@<TRIPOS>ATOM
      1 N           3.5431   -7.5878   17.4751 N.am      1 MOL    -0.2945
      2 N           5.3979   -5.6994   18.4996 N.am      1 MOL    -0.2983
      3 N           4.1391  -13.7537   19.1476 N.ar      1 MOL    -0.1750
      4 N           4.9702  -14.1707   20.0970 N.ar      1 MOL    -0.2425
      5 C           4.4729  -14.8381   21.2387 C.ar      1 MOL     0.2725
      6 C           3.0777  -15.0451   21.3391 C.ar      1 MOL     0.0496
      7 C           2.5006  -15.6763   22.4420 C.ar      1 MOL     0.0138
      8 C           1.1238  -15.9068   22.5012 C.ar      1 MOL     0.0008
      9 C           0.3054  -15.5214   21.4411 C.ar      1 MOL     0.0007
     10 C           0.8607  -14.8744   20.3401 C.ar      1 MOL     0.0103
     11 C           2.2374  -14.6025   20.2793 C.ar      1 MOL     0.0106
     12 C           2.7874  -13.9101   19.1890 C.ar      1 MOL     0.0736
     13 C           1.9169  -13.3869   18.0969 C.3       1 MOL     0.0925
     14 C           1.6345  -11.9393   18.2125 C.ar      1 MOL    -0.0406
     15 C           2.4747  -11.0175   17.5837 C.ar      1 MOL     0.0196
     16 C           2.1984   -9.6414   17.6258 C.ar      1 MOL     0.0723
     17 C           3.1257   -8.7412   16.9091 C.2       1 MOL     0.2495
     18 C           3.9764   -6.4906   16.6108 C.3       1 MOL     0.1268
     19 C           5.3534   -5.9196   17.0584 C.3       1 MOL     0.1265
     20 C           5.0031   -6.8306   19.3301 C.3       1 MOL     0.1265
     21 C           3.5999   -7.3537   18.9096 C.3       1 MOL     0.1268
     22 C           6.0102   -4.6329   19.0815 C.2       1 MOL     0.2187
     23 C           6.2274   -3.4277   18.2450 C.3       1 MOL     0.0752
     24 C           5.9895   -2.1451   18.9530 C.3       1 MOL     0.0134
     25 C           4.9124   -2.7256   18.0873 C.3       1 MOL     0.0134
     26 C           1.0621   -9.2045   18.3037 C.ar      1 MOL     0.1355
     27 C           0.2266  -10.1156   18.9559 C.ar      1 MOL     0.0392
     28 C           0.5132  -11.4835   18.9119 C.ar      1 MOL     0.0066
     29 O           5.2947  -15.2204   22.0879 O.2       1 MOL    -0.2658
     30 O           6.3900   -4.6390   20.2615 O.2       1 MOL    -0.2753
     31 O           3.4318   -9.0744   15.7559 O.2       1 MOL    -0.2699
     32 F           0.7315   -7.8911   18.3382 F         1 MOL    -0.2047
     33 H           3.1240  -15.9952   23.2650 H         1 MOL     0.0625
     34 H           0.6858  -16.3834   23.3663 H         1 MOL     0.0618
     35 H          -0.7577  -15.7104   21.4723 H         1 MOL     0.0618
     36 H           0.2232  -14.5698   19.5203 H         1 MOL     0.0624
     37 H           0.9535  -13.9311   18.1276 H         1 MOL     0.0377
     38 H           2.4249  -13.5648   17.1301 H         1 MOL     0.0377
     39 H           3.3465  -11.3681   17.0487 H         1 MOL     0.0629
     40 H           3.2131   -5.6773   16.6769 H         1 MOL     0.0480
     41 H           4.0097   -6.8430   15.5553 H         1 MOL     0.0480
     42 H           5.5974   -4.9726   16.5286 H         1 MOL     0.0480
     43 H           6.1472   -6.6664   16.8047 H         1 MOL     0.0480
     44 H           5.0144   -6.5240   20.3999 H         1 MOL     0.0480
     45 H           5.7576   -7.6429   19.1965 H         1 MOL     0.0480
     46 H           2.8310   -6.5852   19.1663 H         1 MOL     0.0480
     47 H           3.3393   -8.2934   19.4463 H         1 MOL     0.0480
     48 H           6.8816   -3.5330   17.4213 H         1 MOL     0.0394
     49 H           6.4881   -1.2671   18.5584 H         1 MOL     0.0273
     50 H           5.8519   -2.1988   20.0252 H         1 MOL     0.0273
     51 H           4.7180   -2.2357   17.1428 H         1 MOL     0.0273
     52 H           4.0641   -3.1502   18.6133 H         1 MOL     0.0273
     53 H          -0.6425   -9.7607   19.4912 H         1 MOL     0.0646
     54 H          -0.1369  -12.1849   19.4136 H         1 MOL     0.0621
     55 H           5.9665  -14.0194   20.0481 H         1 MOL     0.1921
@<TRIPOS>BOND
     1    1   18 1 
     2    1   21 1 
     3    1   17 am
     4    2   20 1 
     5    2   22 am
     6    2   19 1 
     7    3    4 ar
     8    3   12 ar
     9    4   55 1 
    10    4    5 ar
    11    5    6 ar
    12    5   29 2 
    13    6    7 ar
    14    6   11 ar
    15    7    8 ar
    16    7   33 1 
    17    8    9 ar
    18    8   34 1 
    19    9   10 ar
    20    9   35 1 
    21   10   11 ar
    22   10   36 1 
    23   11   12 ar
    24   12   13 1 
    25   13   14 1 
    26   13   37 1 
    27   13   38 1 
    28   14   15 ar
    29   14   28 ar
    30   15   16 ar
    31   15   39 1 
    32   16   17 1 
    33   16   26 ar
    34   17   31 2 
    35   18   19 1 
    36   18   40 1 
    37   18   41 1 
    38   19   42 1 
    39   19   43 1 
    40   20   21 1 
    41   20   44 1 
    42   20   45 1 
    43   21   46 1 
    44   21   47 1 
    45   22   23 1 
    46   22   30 2 
    47   23   24 1 
    48   23   25 1 
    49   23   48 1 
    50   24   25 1 
    51   24   49 1 
    52   24   50 1 
    53   25   51 1 
    54   25   52 1 
    55   26   27 ar
    56   26   32 1 
    57   27   28 ar
    58   27   53 1 
    59   28   54 1 
@<TRIPOS>SUBSTRUCTURE
1 MOL         1
@<TRIPOS>MOLECULE
query molecule
   55    59     1     0     0
SMALL
NO_CHARGE

@<TRIPOS>ATOM
      1 N          37.8356  -16.3442    9.3353 N.am      1 MOL    -0.2945
      2 N          40.3463  -16.7212   10.5402 N.am      1 MOL    -0.2983
      3 N          35.4326  -19.3446   13.5330 N.ar      1 MOL    -0.1750
      4 N          35.2792  -18.7746   14.7206 N.ar      1 MOL    -0.2425
      5 C          34.0353  -18.8592   15.3876 C.ar      1 MOL     0.2725
      6 C          32.9561  -19.4941   14.7265 C.ar      1 MOL     0.0496
      7 C          31.6887  -19.5679   15.3081 C.ar      1 MOL     0.0138
      8 C          30.6253  -20.1698   14.6351 C.ar      1 MOL     0.0008
      9 C          30.8250  -20.7220   13.3704 C.ar      1 MOL     0.0007
     10 C          32.0861  -20.6625   12.7772 C.ar      1 MOL     0.0103
     11 C          33.1654  -20.0477   13.4335 C.ar      1 MOL     0.0106
     12 C          34.4357  -19.9666   12.8370 C.ar      1 MOL     0.0736
     13 C          34.7012  -20.5478   11.4823 C.3       1 MOL     0.0925
     14 C          34.7685  -19.5337   10.3993 C.ar      1 MOL    -0.0406
     15 C          35.5686  -18.4023   10.5422 C.ar      1 MOL     0.0196
     16 C          35.6893  -17.4762    9.5055 C.ar      1 MOL     0.0723
     17 C          36.5735  -16.3448    9.7942 C.2       1 MOL     0.2495
     18 C          38.6924  -15.1722    9.4330 C.3       1 MOL     0.1268
     19 C          39.7199  -15.4076   10.5940 C.3       1 MOL     0.1265
     20 C          39.5285  -17.8702   10.1142 C.3       1 MOL     0.1265
     21 C          38.5564  -17.5410    8.9445 C.3       1 MOL     0.1268
     22 C          41.5117  -17.0623   11.1587 C.2       1 MOL     0.2187
     23 C          42.2487  -16.0887   11.9814 C.3       1 MOL     0.0752
     24 C          42.5867  -16.8041   13.2631 C.3       1 MOL     0.0134
     25 C          41.6688  -15.6254   13.2583 C.3       1 MOL     0.0134
     26 C          34.9991  -17.6592    8.3214 C.ar      1 MOL     0.1355
     27 C          34.1712  -18.7771    8.1633 C.ar      1 MOL     0.0392
     28 C          34.0574  -19.7139    9.2028 C.ar      1 MOL     0.0066
     29 O          33.9528  -18.3571   16.5181 O.2       1 MOL    -0.2658
     30 O          42.0171  -18.1936   11.0130 O.2       1 MOL    -0.2753
     31 O          36.1021  -15.4773   10.5297 O.2       1 MOL    -0.2699
     32 F          35.1175  -16.7680    7.3102 F         1 MOL    -0.2047
     33 H          31.5236  -19.1404   16.2879 H         1 MOL     0.0625
     34 H          29.6480  -20.2098   15.0931 H         1 MOL     0.0618
     35 H          30.0060  -21.1988   12.8526 H         1 MOL     0.0618
     36 H          32.2345  -21.0964   11.7976 H         1 MOL     0.0624
     37 H          33.8896  -21.2593   11.2387 H         1 MOL     0.0377
     38 H          35.6732  -21.0783   11.5162 H         1 MOL     0.0377
     39 H          36.1128  -18.2372   11.4615 H         1 MOL     0.0629
     40 H          38.0618  -14.2746    9.6272 H         1 MOL     0.0480
     41 H          39.2052  -15.0264    8.4548 H         1 MOL     0.0480
     42 H          39.1255  -15.3590   11.5431 H         1 MOL     0.0480
     43 H          40.4930  -14.6124   10.6373 H         1 MOL     0.0480
     44 H          38.8856  -18.1545   10.9877 H         1 MOL     0.0480
     45 H          40.1891  -18.7343    9.8895 H         1 MOL     0.0480
     46 H          37.8362  -18.3709    8.7744 H         1 MOL     0.0480
     47 H          39.1030  -17.3492    7.9955 H         1 MOL     0.0480
     48 H          43.0130  -15.5497   11.4739 H         1 MOL     0.0394
     49 H          43.5922  -16.6906   13.6402 H         1 MOL     0.0273
     50 H          42.1127  -17.7693   13.4142 H         1 MOL     0.0273
     51 H          42.1131  -14.7390   13.7058 H         1 MOL     0.0273
     52 H          40.6220  -15.8014   13.4508 H         1 MOL     0.0273
     53 H          33.6273  -18.9229    7.2419 H         1 MOL     0.0646
     54 H          33.4273  -20.5824    9.0791 H         1 MOL     0.0621
     55 H          36.0139  -18.2524   15.1766 H         1 MOL     0.1921
@<TRIPOS>BOND
     1    1   18 1 
     2    1   21 1 
     3    1   17 am
     4    2   20 1 
     5    2   22 am
     6    2   19 1 
     7    3    4 ar
     8    3   12 ar
     9    4   55 1 
    10    4    5 ar
    11    5    6 ar
    12    5   29 2 
    13    6    7 ar
    14    6   11 ar
    15    7    8 ar
    16    7   33 1 
    17    8    9 ar
    18    8   34 1 
    19    9   10 ar
    20    9   35 1 
    21   10   11 ar
    22   10   36 1 
    23   11   12 ar
    24   12   13 1 
    25   13   14 1 
    26   13   37 1 
    27   13   38 1 
    28   14   15 ar
    29   14   28 ar
    30   15   16 ar
    31   15   39 1 
    32   16   17 1 
    33   16   26 ar
    34   17   31 2 
    35   18   19 1 
    36   18   40 1 
    37   18   41 1 
    38   19   42 1 
    39   19   43 1 
    40   20   21 1 
    41   20   44 1 
    42   20   45 1 
    43   21   46 1 
    44   21   47 1 
    45   22   23 1 
    46   22   30 2 
    47   23   24 1 
    48   23   25 1 
    49   23   48 1 
    50   24   25 1 
    51   24   49 1 
    52   24   50 1 
    53   25   51 1 
    54   25   52 1 
    55   26   27 ar
    56   26   32 1 
    57   27   28 ar
    58   27   53 1 
    59   28   54 1 
@<TRIPOS>SUBSTRUCTURE
1 MOL         1
@<TRIPOS>MOLECULE
query molecule
   55    59     1     0     0
SMALL
NO_CHARGE

@<TRIPOS>ATOM
      1 N          37.7098  -16.1218    5.1501 N.am      1 MOL    -0.2945
      2 N          40.2412  -16.1369    3.8395 N.am      1 MOL    -0.2983
      3 N          39.9175  -15.2903    9.4873 N.ar      1 MOL    -0.1750
      4 N          40.5733  -14.1480    9.5862 N.ar      1 MOL    -0.2425
      5 C          41.0819  -13.7798   10.8436 C.ar      1 MOL     0.2725
      6 C          40.8964  -14.6568   11.9349 C.ar      1 MOL     0.0496
      7 C          41.4195  -14.3372   13.1851 C.ar      1 MOL     0.0138
      8 C          41.2523  -15.1906   14.2689 C.ar      1 MOL     0.0008
      9 C          40.5416  -16.3795   14.1096 C.ar      1 MOL     0.0007
     10 C          40.0100  -16.7161   12.8623 C.ar      1 MOL     0.0103
     11 C          40.1805  -15.8714   11.7527 C.ar      1 MOL     0.0106
     12 C          39.6734  -16.1896   10.4802 C.ar      1 MOL     0.0736
     13 C          38.9378  -17.4694   10.2421 C.3       1 MOL     0.0925
     14 C          37.7399  -17.3725    9.3721 C.ar      1 MOL    -0.0406
     15 C          37.7778  -16.6701    8.1644 C.ar      1 MOL     0.0196
     16 C          36.6712  -16.5794    7.3234 C.ar      1 MOL     0.0723
     17 C          36.7719  -15.8063    6.0688 C.2       1 MOL     0.2495
     18 C          37.9263  -15.2279    4.0150 C.3       1 MOL     0.1268
     19 C          39.4412  -14.9195    3.8460 C.3       1 MOL     0.1265
     20 C          39.9907  -17.0778    4.9377 C.3       1 MOL     0.1265
     21 C          38.4745  -17.3558    5.1411 C.3       1 MOL     0.1268
     22 C          41.3971  -16.3055    3.1390 C.2       1 MOL     0.2187
     23 C          41.9135  -15.2196    2.2833 C.3       1 MOL     0.0752
     24 C          41.0474  -14.7815    1.1626 C.3       1 MOL     0.0134
     25 C          42.1782  -15.7267    0.9032 C.3       1 MOL     0.0134
     26 C          35.4995  -17.2339    7.6970 C.ar      1 MOL     0.1355
     27 C          35.4301  -17.9521    8.8947 C.ar      1 MOL     0.0392
     28 C          36.5489  -18.0182    9.7366 C.ar      1 MOL     0.0066
     29 O          41.6668  -12.6909   10.9366 O.2       1 MOL    -0.2658
     30 O          42.0984  -17.3268    3.2551 O.2       1 MOL    -0.2753
     31 O          36.0139  -14.8486    5.9153 O.2       1 MOL    -0.2699
     32 F          34.4179  -17.1953    6.8845 F         1 MOL    -0.2047
     33 H          41.9681  -13.4119   13.3105 H         1 MOL     0.0625
     34 H          41.6736  -14.9302   15.2285 H         1 MOL     0.0618
     35 H          40.4063  -17.0376   14.9552 H         1 MOL     0.0618
     36 H          39.4623  -17.6424   12.7526 H         1 MOL     0.0624
     37 H          38.6158  -17.8637   11.2283 H         1 MOL     0.0377
     38 H          39.6432  -18.1892    9.7774 H         1 MOL     0.0377
     39 H          38.7039  -16.1835    7.8822 H         1 MOL     0.0629
     40 H          37.3277  -14.3007    4.1546 H         1 MOL     0.0480
     41 H          37.5485  -15.7464    3.0997 H         1 MOL     0.0480
     42 H          39.7792  -14.2825    4.6975 H         1 MOL     0.0480
     43 H          39.6229  -14.3576    2.9012 H         1 MOL     0.0480
     44 H          40.3972  -16.6245    5.8754 H         1 MOL     0.0480
     45 H          40.5514  -18.0219    4.7504 H         1 MOL     0.0480
     46 H          38.3082  -17.9000    6.0994 H         1 MOL     0.0480
     47 H          38.0904  -17.9973    4.3123 H         1 MOL     0.0480
     48 H          42.6060  -14.5668    2.7574 H         1 MOL     0.0394
     49 H          41.1920  -13.7611    0.8216 H         1 MOL     0.0273
     50 H          40.0406  -15.1750    1.1362 H         1 MOL     0.0273
     51 H          43.0457  -15.3236    0.3958 H         1 MOL     0.0273
     52 H          41.9000  -16.7507    0.6868 H         1 MOL     0.0273
     53 H          34.5189  -18.4631    9.1674 H         1 MOL     0.0646
     54 H          36.4965  -18.5766   10.6606 H         1 MOL     0.0621
     55 H          40.7339  -13.5360    8.8062 H         1 MOL     0.1921
@<TRIPOS>BOND
     1    1   18 1 
     2    1   21 1 
     3    1   17 am
     4    2   20 1 
     5    2   22 am
     6    2   19 1 
     7    3    4 ar
     8    3   12 ar
     9    4   55 1 
    10    4    5 ar
    11    5    6 ar
    12    5   29 2 
    13    6    7 ar
    14    6   11 ar
    15    7    8 ar
    16    7   33 1 
    17    8    9 ar
    18    8   34 1 
    19    9   10 ar
    20    9   35 1 
    21   10   11 ar
    22   10   36 1 
    23   11   12 ar
    24   12   13 1 
    25   13   14 1 
    26   13   37 1 
    27   13   38 1 
    28   14   15 ar
    29   14   28 ar
    30   15   16 ar
    31   15   39 1 
    32   16   17 1 
    33   16   26 ar
    34   17   31 2 
    35   18   19 1 
    36   18   40 1 
    37   18   41 1 
    38   19   42 1 
    39   19   43 1 
    40   20   21 1 
    41   20   44 1 
    42   20   45 1 
    43   21   46 1 
    44   21   47 1 
    45   22   23 1 
    46   22   30 2 
    47   23   24 1 
    48   23   25 1 
    49   23   48 1 
    50   24   25 1 
    51   24   49 1 
    52   24   50 1 
    53   25   51 1 
    54   25   52 1 
    55   26   27 ar
    56   26   32 1 
    57   27   28 ar
    58   27   53 1 
    59   28   54 1 
@<TRIPOS>SUBSTRUCTURE
1 MOL         1
@<TRIPOS>MOLECULE
query molecule
   55    59     1     0     0
SMALL
NO_CHARGE

@<TRIPOS>ATOM
      1 N          40.9934  -15.6489   12.4278 N.am      1 MOL    -0.2945
      2 N          40.4556  -15.7192   15.2688 N.am      1 MOL    -0.2983
      3 N          36.1218  -16.2979    6.1270 N.ar      1 MOL    -0.1750
      4 N          35.4175  -16.8509    5.1426 N.ar      1 MOL    -0.2425
      5 C          34.4405  -17.8374    5.4088 C.ar      1 MOL     0.2725
      6 C          34.2615  -18.2445    6.7508 C.ar      1 MOL     0.0496
      7 C          33.3440  -19.2466    7.0806 C.ar      1 MOL     0.0138
      8 C          33.1752  -19.6398    8.4083 C.ar      1 MOL     0.0008
      9 C          33.9237  -19.0319    9.4166 C.ar      1 MOL     0.0007
     10 C          34.8437  -18.0309    9.1019 C.ar      1 MOL     0.0103
     11 C          35.0376  -17.6195    7.7740 C.ar      1 MOL     0.0106
     12 C          35.9709  -16.6172    7.4456 C.ar      1 MOL     0.0736
     13 C          36.7657  -15.8840    8.4719 C.3       1 MOL     0.0925
     14 C          38.0735  -16.4460    8.8630 C.ar      1 MOL    -0.0406
     15 C          38.8845  -15.6874    9.7321 C.ar      1 MOL     0.0196
     16 C          40.1178  -16.1816   10.1881 C.ar      1 MOL     0.0723
     17 C          40.9227  -15.3492   11.1081 C.2       1 MOL     0.2495
     18 C          41.6359  -14.6825   13.3151 C.3       1 MOL     0.1268
     19 C          40.8621  -14.4711   14.6511 C.3       1 MOL     0.1265
     20 C          39.7932  -16.6743   14.3687 C.3       1 MOL     0.1265
     21 C          40.5541  -16.8954   13.0285 C.3       1 MOL     0.1268
     22 C          40.2516  -15.8797   16.6107 C.2       1 MOL     0.2187
     23 C          40.4157  -14.7377   17.5408 C.3       1 MOL     0.0752
     24 C          41.7922  -14.3225   17.8859 C.3       1 MOL     0.0134
     25 C          41.0376  -15.2189   18.8196 C.3       1 MOL     0.0134
     26 C          40.5441  -17.4320    9.7435 C.ar      1 MOL     0.1355
     27 C          39.7605  -18.1875    8.8676 C.ar      1 MOL     0.0392
     28 C          38.5299  -17.6932    8.4317 C.ar      1 MOL     0.0066
     29 O          33.7636  -18.2648    4.4553 O.2       1 MOL    -0.2658
     30 O          39.8362  -16.9554   17.0808 O.2       1 MOL    -0.2753
     31 O          41.4583  -14.3507   10.6078 O.2       1 MOL    -0.2699
     32 F          41.7355  -17.9349   10.1495 F         1 MOL    -0.2047
     33 H          32.7652  -19.7245    6.3031 H         1 MOL     0.0625
     34 H          32.4674  -20.4168    8.6574 H         1 MOL     0.0618
     35 H          33.7906  -19.3361   10.4449 H         1 MOL     0.0618
     36 H          35.4173  -17.5667    9.8930 H         1 MOL     0.0624
     37 H          36.1449  -15.8241    9.3921 H         1 MOL     0.0377
     38 H          36.9416  -14.8560    8.0898 H         1 MOL     0.0377
     39 H          38.5524  -14.7124   10.0612 H         1 MOL     0.0629
     40 H          41.7212  -13.7073   12.7770 H         1 MOL     0.0480
     41 H          42.6699  -15.0383   13.5355 H         1 MOL     0.0480
     42 H          39.9376  -13.8771   14.4424 H         1 MOL     0.0480
     43 H          41.4786  -13.8905   15.3734 H         1 MOL     0.0480
     44 H          38.7860  -16.2517   14.1193 H         1 MOL     0.0480
     45 H          39.6289  -17.6360   14.9041 H         1 MOL     0.0480
     46 H          39.9101  -17.4431   12.3017 H         1 MOL     0.0480
     47 H          41.4551  -17.5275   13.2219 H         1 MOL     0.0480
     48 H          39.5865  -14.0734   17.5921 H         1 MOL     0.0394
     49 H          41.9208  -13.3009   18.2332 H         1 MOL     0.0273
     50 H          42.6011  -14.7561   17.3167 H         1 MOL     0.0273
     51 H          40.6771  -14.7832   19.7421 H         1 MOL     0.0273
     52 H          41.3727  -16.2501   18.8528 H         1 MOL     0.0273
     53 H          40.0994  -19.1549    8.5265 H         1 MOL     0.0646
     54 H          37.9206  -18.2794    7.7579 H         1 MOL     0.0621
     55 H          35.5482  -16.5984    4.1783 H         1 MOL     0.1921
@<TRIPOS>BOND
     1    1   18 1 
     2    1   21 1 
     3    1   17 am
     4    2   20 1 
     5    2   22 am
     6    2   19 1 
     7    3    4 ar
     8    3   12 ar
     9    4   55 1 
    10    4    5 ar
    11    5    6 ar
    12    5   29 2 
    13    6    7 ar
    14    6   11 ar
    15    7    8 ar
    16    7   33 1 
    17    8    9 ar
    18    8   34 1 
    19    9   10 ar
    20    9   35 1 
    21   10   11 ar
    22   10   36 1 
    23   11   12 ar
    24   12   13 1 
    25   13   14 1 
    26   13   37 1 
    27   13   38 1 
    28   14   15 ar
    29   14   28 ar
    30   15   16 ar
    31   15   39 1 
    32   16   17 1 
    33   16   26 ar
    34   17   31 2 
    35   18   19 1 
    36   18   40 1 
    37   18   41 1 
    38   19   42 1 
    39   19   43 1 
    40   20   21 1 
    41   20   44 1 
    42   20   45 1 
    43   21   46 1 
    44   21   47 1 
    45   22   23 1 
    46   22   30 2 
    47   23   24 1 
    48   23   25 1 
    49   23   48 1 
    50   24   25 1 
    51   24   49 1 
    52   24   50 1 
    53   25   51 1 
    54   25   52 1 
    55   26   27 ar
    56   26   32 1 
    57   27   28 ar
    58   27   53 1 
    59   28   54 1 
@<TRIPOS>SUBSTRUCTURE
1 MOL         1
@<TRIPOS>MOLECULE
query molecule
   55    59     1     0     0
SMALL
NO_CHARGE

@<TRIPOS>ATOM
      1 N          17.5248  -18.5673   30.6275 N.am      1 MOL    -0.2945
      2 N          16.3058  -21.0772   30.0302 N.am      1 MOL    -0.2983
      3 N          23.9670  -19.2670   32.3011 N.ar      1 MOL    -0.1750
      4 N          24.9447  -20.1092   32.6256 N.ar      1 MOL    -0.2425
      5 C          26.0598  -19.6758   33.3783 C.ar      1 MOL     0.2725
      6 C          26.0292  -18.3473   33.8641 C.ar      1 MOL     0.0496
      7 C          27.0353  -17.8807   34.7102 C.ar      1 MOL     0.0138
      8 C          26.9961  -16.5771   35.2037 C.ar      1 MOL     0.0008
      9 C          25.9612  -15.7163   34.8279 C.ar      1 MOL     0.0007
     10 C          24.9502  -16.1663   33.9791 C.ar      1 MOL     0.0103
     11 C          24.9544  -17.4848   33.4978 C.ar      1 MOL     0.0106
     12 C          23.9195  -17.9550   32.6727 C.ar      1 MOL     0.0736
     13 C          22.8063  -17.0621   32.2165 C.3       1 MOL     0.0925
     14 C          21.4583  -17.4562   32.6939 C.ar      1 MOL    -0.0406
     15 C          20.3443  -17.2765   31.8533 C.ar      1 MOL     0.0196
     16 C          19.0709  -17.6612   32.2851 C.ar      1 MOL     0.0723
     17 C          17.8805  -17.5235   31.4139 C.2       1 MOL     0.2495
     18 C          16.2476  -18.5702   29.9197 C.3       1 MOL     0.1268
     19 C          15.4589  -19.8984   30.1642 C.3       1 MOL     0.1265
     20 C          17.6100  -21.0396   30.6977 C.3       1 MOL     0.1265
     21 C          18.3802  -19.7228   30.3995 C.3       1 MOL     0.1268
     22 C          15.8543  -22.3000   29.6151 C.2       1 MOL     0.2187
     23 C          14.4173  -22.4303   29.2768 C.3       1 MOL     0.0752
     24 C          13.8927  -23.7645   29.6950 C.3       1 MOL     0.0134
     25 C          14.1159  -23.4553   28.2418 C.3       1 MOL     0.0134
     26 C          18.9084  -18.2033   33.5623 C.ar      1 MOL     0.1355
     27 C          20.0034  -18.3729   34.4067 C.ar      1 MOL     0.0392
     28 C          21.2740  -17.9990   33.9718 C.ar      1 MOL     0.0066
     29 O          27.0071  -20.4630   33.5404 O.2       1 MOL    -0.2658
     30 O          16.5969  -23.2900   29.5302 O.2       1 MOL    -0.2753
     31 O          17.2234  -16.4864   31.5260 O.2       1 MOL    -0.2699
     32 F          17.6787  -18.5784   33.9912 F         1 MOL    -0.2047
     33 H          27.8463  -18.5391   34.9805 H         1 MOL     0.0625
     34 H          27.7753  -16.2334   35.8672 H         1 MOL     0.0618
     35 H          25.9474  -14.7003   35.1951 H         1 MOL     0.0618
     36 H          24.1530  -15.4929   33.6951 H         1 MOL     0.0624
     37 H          22.7896  -17.0748   31.1086 H         1 MOL     0.0377
     38 H          23.0117  -16.0370   32.5814 H         1 MOL     0.0377
     39 H          20.4693  -16.8514   30.8693 H         1 MOL     0.0629
     40 H          16.4651  -18.4780   28.8265 H         1 MOL     0.0480
     41 H          15.6557  -17.6800   30.2272 H         1 MOL     0.0480
     42 H          14.5958  -19.9819   29.4652 H         1 MOL     0.0480
     43 H          15.0539  -19.8853   31.2058 H         1 MOL     0.0480
     44 H          18.2033  -21.9336   30.4013 H         1 MOL     0.0480
     45 H          17.4289  -21.0984   31.7999 H         1 MOL     0.0480
     46 H          18.7016  -19.7179   29.3297 H         1 MOL     0.0480
     47 H          19.2937  -19.6398   31.0321 H         1 MOL     0.0480
     48 H          13.8301  -21.5549   29.3916 H         1 MOL     0.0394
     49 H          12.8681  -23.8178   30.0364 H         1 MOL     0.0273
     50 H          14.6060  -24.4455   30.1463 H         1 MOL     0.0273
     51 H          13.2270  -23.3048   27.6401 H         1 MOL     0.0273
     52 H          14.9653  -23.9244   27.7598 H         1 MOL     0.0273
     53 H          19.8740  -18.7943   35.3920 H         1 MOL     0.0646
     54 H          22.1269  -18.1333   34.6222 H         1 MOL     0.0621
     55 H          24.9333  -21.0789   32.3548 H         1 MOL     0.1921
@<TRIPOS>BOND
     1    1   18 1 
     2    1   21 1 
     3    1   17 am
     4    2   20 1 
     5    2   22 am
     6    2   19 1 
     7    3    4 ar
     8    3   12 ar
     9    4   55 1 
    10    4    5 ar
    11    5    6 ar
    12    5   29 2 
    13    6    7 ar
    14    6   11 ar
    15    7    8 ar
    16    7   33 1 
    17    8    9 ar
    18    8   34 1 
    19    9   10 ar
    20    9   35 1 
    21   10   11 ar
    22   10   36 1 
    23   11   12 ar
    24   12   13 1 
    25   13   14 1 
    26   13   37 1 
    27   13   38 1 
    28   14   15 ar
    29   14   28 ar
    30   15   16 ar
    31   15   39 1 
    32   16   17 1 
    33   16   26 ar
    34   17   31 2 
    35   18   19 1 
    36   18   40 1 
    37   18   41 1 
    38   19   42 1 
    39   19   43 1 
    40   20   21 1 
    41   20   44 1 
    42   20   45 1 
    43   21   46 1 
    44   21   47 1 
    45   22   23 1 
    46   22   30 2 
    47   23   24 1 
    48   23   25 1 
    49   23   48 1 
    50   24   25 1 
    51   24   49 1 
    52   24   50 1 
    53   25   51 1 
    54   25   52 1 
    55   26   27 ar
    56   26   32 1 
    57   27   28 ar
    58   27   53 1 
    59   28   54 1 
@<TRIPOS>SUBSTRUCTURE
1 MOL         1
@<TRIPOS>MOLECULE
query molecule
   55    59     1     0     0
SMALL
NO_CHARGE

@<TRIPOS>ATOM
      1 N          23.6174  -17.4353   34.1666 N.am      1 MOL    -0.2945
      2 N          26.2287  -18.5681   33.9841 N.am      1 MOL    -0.2983
      3 N          18.3248  -21.2192   31.8321 N.ar      1 MOL    -0.1750
      4 N          17.9500  -22.0948   30.9101 N.ar      1 MOL    -0.2425
      5 C          16.8700  -21.8156   30.0410 C.ar      1 MOL     0.2725
      6 C          16.2726  -20.5348   30.1134 C.ar      1 MOL     0.0496
      7 C          15.2754  -20.1400   29.2238 C.ar      1 MOL     0.0138
      8 C          14.7356  -18.8509   29.2804 C.ar      1 MOL     0.0008
      9 C          15.1583  -17.9542   30.2550 C.ar      1 MOL     0.0007
     10 C          16.1291  -18.3444   31.1721 C.ar      1 MOL     0.0103
     11 C          16.7213  -19.6170   31.1070 C.ar      1 MOL     0.0106
     12 C          17.7584  -19.9884   31.9792 C.ar      1 MOL     0.0736
     13 C          18.3008  -19.0842   33.0426 C.3       1 MOL     0.0925
     14 C          19.4121  -18.2197   32.5552 C.ar      1 MOL    -0.0406
     15 C          20.4641  -17.8721   33.4218 C.ar      1 MOL     0.0196
     16 C          21.5150  -17.0714   32.9640 C.ar      1 MOL     0.0723
     17 C          22.5912  -16.6164   33.8622 C.2       1 MOL     0.2495
     18 C          24.6727  -16.9376   35.0471 C.3       1 MOL     0.1268
     19 C          26.0760  -17.1855   34.4204 C.3       1 MOL     0.1265
     20 C          25.1587  -19.0922   33.1311 C.3       1 MOL     0.1265
     21 C          23.7419  -18.8115   33.7211 C.3       1 MOL     0.1268
     22 C          27.3890  -19.2746   34.0829 C.2       1 MOL     0.2187
     23 C          28.5195  -18.7250   34.8686 C.3       1 MOL     0.0752
     24 C          28.9307  -19.7209   35.9101 C.3       1 MOL     0.0134
     25 C          28.2604  -18.4440   36.3032 C.3       1 MOL     0.0134
     26 C          21.5296  -16.6631   31.6367 C.ar      1 MOL     0.1355
     27 C          20.4771  -16.9627   30.7829 C.ar      1 MOL     0.0392
     28 C          19.4250  -17.7338   31.2414 C.ar      1 MOL     0.0066
     29 O          16.4938  -22.7222   29.2847 O.2       1 MOL    -0.2658
     30 O          27.5626  -20.3542   33.4881 O.2       1 MOL    -0.2753
     31 O          22.4979  -15.4529   34.2719 O.2       1 MOL    -0.2699
     32 F          22.5879  -15.9691   31.1682 F         1 MOL    -0.2047
     33 H          14.9218  -20.8275   28.4664 H         1 MOL     0.0625
     34 H          13.9887  -18.5466   28.5586 H         1 MOL     0.0618
     35 H          14.7346  -16.9627   30.2983 H         1 MOL     0.0618
     36 H          16.4407  -17.6518   31.9408 H         1 MOL     0.0624
     37 H          18.6944  -19.7197   33.8602 H         1 MOL     0.0377
     38 H          17.4863  -18.4402   33.4169 H         1 MOL     0.0377
     39 H          20.4615  -18.2170   34.4461 H         1 MOL     0.0629
     40 H          24.5968  -17.4809   36.0208 H         1 MOL     0.0480
     41 H          24.5061  -15.8554   35.2488 H         1 MOL     0.0480
     42 H          26.8824  -16.9399   35.1489 H         1 MOL     0.0480
     43 H          26.2014  -16.5227   33.5311 H         1 MOL     0.0480
     44 H          25.3124  -20.1852   32.9807 H         1 MOL     0.0480
     45 H          25.2395  -18.5931   32.1351 H         1 MOL     0.0480
     46 H          23.5755  -19.4721   34.6076 H         1 MOL     0.0480
     47 H          22.9425  -19.0307   32.9782 H         1 MOL     0.0480
     48 H          29.2540  -18.2037   34.3064 H         1 MOL     0.0394
     49 H          29.9896  -19.8062   36.1187 H         1 MOL     0.0273
     50 H          28.3310  -20.6188   36.0026 H         1 MOL     0.0273
     51 H          28.8994  -17.7058   36.7769 H         1 MOL     0.0273
     52 H          27.2356  -18.5051   36.6439 H         1 MOL     0.0273
     53 H          20.4797  -16.6005   29.7655 H         1 MOL     0.0646
     54 H          18.6070  -17.9725   30.5771 H         1 MOL     0.0621
     55 H          18.4292  -22.9726   30.7915 H         1 MOL     0.1921
@<TRIPOS>BOND
     1    1   18 1 
     2    1   21 1 
     3    1   17 am
     4    2   20 1 
     5    2   22 am
     6    2   19 1 
     7    3    4 ar
     8    3   12 ar
     9    4   55 1 
    10    4    5 ar
    11    5    6 ar
    12    5   29 2 
    13    6    7 ar
    14    6   11 ar
    15    7    8 ar
    16    7   33 1 
    17    8    9 ar
    18    8   34 1 
    19    9   10 ar
    20    9   35 1 
    21   10   11 ar
    22   10   36 1 
    23   11   12 ar
    24   12   13 1 
    25   13   14 1 
    26   13   37 1 
    27   13   38 1 
    28   14   15 ar
    29   14   28 ar
    30   15   16 ar
    31   15   39 1 
    32   16   17 1 
    33   16   26 ar
    34   17   31 2 
    35   18   19 1 
    36   18   40 1 
    37   18   41 1 
    38   19   42 1 
    39   19   43 1 
    40   20   21 1 
    41   20   44 1 
    42   20   45 1 
    43   21   46 1 
    44   21   47 1 
    45   22   23 1 
    46   22   30 2 
    47   23   24 1 
    48   23   25 1 
    49   23   48 1 
    50   24   25 1 
    51   24   49 1 
    52   24   50 1 
    53   25   51 1 
    54   25   52 1 
    55   26   27 ar
    56   26   32 1 
    57   27   28 ar
    58   27   53 1 
    59   28   54 1 
@<TRIPOS>SUBSTRUCTURE
1 MOL         1
@<TRIPOS>MOLECULE
query molecule
   55    59     1     0     0
SMALL
NO_CHARGE

@<TRIPOS>ATOM
      1 N          12.1259   -8.2681   34.8604 N.am      1 MOL    -0.2945
      2 N          10.7057  -10.6246   35.5166 N.am      1 MOL    -0.2983
      3 N          11.2659   -0.6668   35.4259 N.ar      1 MOL    -0.1750
      4 N          11.6398    0.4888   34.9036 N.ar      1 MOL    -0.2425
      5 C          11.0598    0.9737   33.7210 C.ar      1 MOL     0.2725
      6 C          10.0715    0.1721   33.1130 C.ar      1 MOL     0.0496
      7 C           9.4165    0.5978   31.9581 C.ar      1 MOL     0.0138
      8 C           8.4303   -0.1996   31.3785 C.ar      1 MOL     0.0008
      9 C           8.0966   -1.4317   31.9420 C.ar      1 MOL     0.0007
     10 C           8.7433   -1.8745   33.0933 C.ar      1 MOL     0.0103
     11 C           9.7277   -1.0851   33.7035 C.ar      1 MOL     0.0106
     12 C          10.3524   -1.5065   34.8831 C.ar      1 MOL     0.0736
     13 C          10.0386   -2.7886   35.5776 C.3       1 MOL     0.0925
     14 C          11.2017   -3.7107   35.6434 C.ar      1 MOL    -0.0406
     15 C          11.1358   -4.9320   34.9624 C.ar      1 MOL     0.0196
     16 C          12.2190   -5.8226   34.9904 C.ar      1 MOL     0.0723
     17 C          12.1018   -7.0788   34.2308 C.2       1 MOL     0.2495
     18 C          12.3610   -9.4703   34.0668 C.3       1 MOL     0.1268
     19 C          11.1201  -10.4046   34.1373 C.3       1 MOL     0.1265
     20 C          10.6516   -9.4706   36.4256 C.3       1 MOL     0.1265
     21 C          11.8633   -8.5017   36.2646 C.3       1 MOL     0.1268
     22 C          10.0369  -11.7443   35.9352 C.2       1 MOL     0.2187
     23 C           9.5982  -12.7294   34.9076 C.3       1 MOL     0.0752
     24 C           9.3834  -14.0846   35.4978 C.3       1 MOL     0.0134
     25 C          10.5911  -13.8057   34.6477 C.3       1 MOL     0.0134
     26 C          13.3700   -5.4836   35.6996 C.ar      1 MOL     0.1355
     27 C          13.4428   -4.2737   36.3941 C.ar      1 MOL     0.0392
     28 C          12.3556   -3.3960   36.3719 C.ar      1 MOL     0.0066
     29 O          11.4476    2.0717   33.2922 O.2       1 MOL    -0.2658
     30 O           9.7580  -11.9180   37.1330 O.2       1 MOL    -0.2753
     31 O          12.0152   -6.9743   33.0007 O.2       1 MOL    -0.2699
     32 F          14.4359   -6.3196   35.7148 F         1 MOL    -0.2047
     33 H           9.6705    1.5516   31.5205 H         1 MOL     0.0625
     34 H           7.9201    0.1409   30.4900 H         1 MOL     0.0618
     35 H           7.3333   -2.0452   31.4865 H         1 MOL     0.0618
     36 H           8.4791   -2.8286   33.5278 H         1 MOL     0.0624
     37 H           9.2217   -3.2891   35.0264 H         1 MOL     0.0377
     38 H           9.7163   -2.5522   36.6092 H         1 MOL     0.0377
     39 H          10.2426   -5.1889   34.4116 H         1 MOL     0.0629
     40 H          13.2580   -9.9881   34.4789 H         1 MOL     0.0480
     41 H          12.5826   -9.1741   33.0197 H         1 MOL     0.0480
     42 H          11.3179  -11.3839   33.6485 H         1 MOL     0.0480
     43 H          10.2773   -9.9108   33.5934 H         1 MOL     0.0480
     44 H          10.5617   -9.8400   37.4734 H         1 MOL     0.0480
     45 H           9.7164   -8.8996   36.1965 H         1 MOL     0.0480
     46 H          12.7711   -8.9704   36.7170 H         1 MOL     0.0480
     47 H          11.6769   -7.5352   36.7842 H         1 MOL     0.0480
     48 H           8.9571  -12.3682   34.1427 H         1 MOL     0.0394
     49 H           8.6026  -14.7120   35.0889 H         1 MOL     0.0273
     50 H           9.5608  -14.1399   36.5671 H         1 MOL     0.0273
     51 H          10.5906  -14.2893   33.6784 H         1 MOL     0.0273
     52 H          11.5407  -13.7104   35.1589 H         1 MOL     0.0273
     53 H          14.3318   -4.0067   36.9459 H         1 MOL     0.0646
     54 H          12.4038   -2.4623   36.9151 H         1 MOL     0.0621
     55 H          12.3545    1.0470   35.3335 H         1 MOL     0.1921
@<TRIPOS>BOND
     1    1   18 1 
     2    1   21 1 
     3    1   17 am
     4    2   20 1 
     5    2   22 am
     6    2   19 1 
     7    3    4 ar
     8    3   12 ar
     9    4   55 1 
    10    4    5 ar
    11    5    6 ar
    12    5   29 2 
    13    6    7 ar
    14    6   11 ar
    15    7    8 ar
    16    7   33 1 
    17    8    9 ar
    18    8   34 1 
    19    9   10 ar
    20    9   35 1 
    21   10   11 ar
    22   10   36 1 
    23   11   12 ar
    24   12   13 1 
    25   13   14 1 
    26   13   37 1 
    27   13   38 1 
    28   14   15 ar
    29   14   28 ar
    30   15   16 ar
    31   15   39 1 
    32   16   17 1 
    33   16   26 ar
    34   17   31 2 
    35   18   19 1 
    36   18   40 1 
    37   18   41 1 
    38   19   42 1 
    39   19   43 1 
    40   20   21 1 
    41   20   44 1 
    42   20   45 1 
    43   21   46 1 
    44   21   47 1 
    45   22   23 1 
    46   22   30 2 
    47   23   24 1 
    48   23   25 1 
    49   23   48 1 
    50   24   25 1 
    51   24   49 1 
    52   24   50 1 
    53   25   51 1 
    54   25   52 1 
    55   26   27 ar
    56   26   32 1 
    57   27   28 ar
    58   27   53 1 
    59   28   54 1 
@<TRIPOS>SUBSTRUCTURE
1 MOL         1
@<TRIPOS>MOLECULE
query molecule
   55    59     1     0     0
SMALL
NO_CHARGE

@<TRIPOS>ATOM
      1 N          40.1320    4.4645   22.0878 N.am      1 MOL    -0.2945
      2 N          40.3818    4.9836   24.8950 N.am      1 MOL    -0.2983
      3 N          38.2822    6.1615   15.3892 N.ar      1 MOL    -0.1750
      4 N          38.5630    5.7794   14.1487 N.ar      1 MOL    -0.2425
      5 C          39.7224    6.1979   13.4639 C.ar      1 MOL     0.2725
      6 C          40.5945    7.0764   14.1298 C.ar      1 MOL     0.0496
      7 C          41.7749    7.5146   13.5280 C.ar      1 MOL     0.0138
      8 C          42.6158    8.4078   14.1921 C.ar      1 MOL     0.0008
      9 C          42.2792    8.8662   15.4659 C.ar      1 MOL     0.0007
     10 C          41.1070    8.4246   16.0795 C.ar      1 MOL     0.0103
     11 C          40.2462    7.5186   15.4371 C.ar      1 MOL     0.0106
     12 C          39.0646    7.0589   16.0574 C.ar      1 MOL     0.0736
     13 C          38.6694    7.5900   17.3954 C.3       1 MOL     0.0925
     14 C          38.2021    6.6012   18.3803 C.ar      1 MOL    -0.0406
     15 C          39.1443    5.8995   19.1370 C.ar      1 MOL     0.0196
     16 C          38.7305    5.0172   20.1419 C.ar      1 MOL     0.0723
     17 C          39.7621    4.2102   20.8161 C.2       1 MOL     0.2495
     18 C          40.3875    3.3517   23.0014 C.3       1 MOL     0.1268
     19 C          39.9459    3.6608   24.4669 C.3       1 MOL     0.1265
     20 C          40.1374    6.1074   23.9873 C.3       1 MOL     0.1265
     21 C          40.4966    5.8080   22.5103 C.3       1 MOL     0.1268
     22 C          40.6926    5.2953   26.1908 C.2       1 MOL     0.2187
     23 C          40.4602    4.2779   27.2511 C.3       1 MOL     0.0752
     24 C          39.2215    4.6527   28.0073 C.3       1 MOL     0.0134
     25 C          40.5748    4.7860   28.6457 C.3       1 MOL     0.0134
     26 C          37.3682    4.8714   20.4107 C.ar      1 MOL     0.1355
     27 C          36.4153    5.5347   19.6273 C.ar      1 MOL     0.0392
     28 C          36.8360    6.3926   18.6046 C.ar      1 MOL     0.0066
     29 O          39.9036    5.7782   12.3129 O.2       1 MOL    -0.2658
     30 O          41.1612    6.4030   26.5028 O.2       1 MOL    -0.2753
     31 O          40.1465    3.2269   20.1697 O.2       1 MOL    -0.2699
     32 F          36.9508    4.0592   21.4125 F         1 MOL    -0.2047
     33 H          42.0369    7.1666   12.5379 H         1 MOL     0.0625
     34 H          43.5281    8.7442   13.7222 H         1 MOL     0.0618
     35 H          42.9269    9.5594   15.9816 H         1 MOL     0.0618
     36 H          40.8537    8.7802   17.0684 H         1 MOL     0.0624
     37 H          37.8583    8.3309   17.2453 H         1 MOL     0.0377
     38 H          39.5590    8.0951   17.8292 H         1 MOL     0.0377
     39 H          40.1988    6.0381   18.9472 H         1 MOL     0.0629
     40 H          41.4894    3.1560   22.9983 H         1 MOL     0.0480
     41 H          39.8824    2.4332   22.6168 H         1 MOL     0.0480
     42 H          40.3739    2.8989   25.1634 H         1 MOL     0.0480
     43 H          38.8332    3.6204   24.5455 H         1 MOL     0.0480
     44 H          40.6971    7.0015   24.3494 H         1 MOL     0.0480
     45 H          39.0424    6.3464   24.0453 H         1 MOL     0.0480
     46 H          41.6078    5.9079   22.4056 H         1 MOL     0.0480
     47 H          40.0228    6.5478   21.8236 H         1 MOL     0.0480
     48 H          40.6559    3.2685   26.9982 H         1 MOL     0.0394
     49 H          38.5917    3.8558   28.3820 H         1 MOL     0.0273
     50 H          38.7377    5.5817   27.7304 H         1 MOL     0.0273
     51 H          40.7978    4.0726   29.4315 H         1 MOL     0.0273
     52 H          40.9641    5.7890   28.7748 H         1 MOL     0.0273
     53 H          35.3598    5.3859   19.8047 H         1 MOL     0.0646
     54 H          36.1061    6.9040   17.9927 H         1 MOL     0.0621
     55 H          37.9543    5.1662   13.6236 H         1 MOL     0.1921
@<TRIPOS>BOND
     1    1   18 1 
     2    1   21 1 
     3    1   17 am
     4    2   20 1 
     5    2   22 am
     6    2   19 1 
     7    3    4 ar
     8    3   12 ar
     9    4   55 1 
    10    4    5 ar
    11    5    6 ar
    12    5   29 2 
    13    6    7 ar
    14    6   11 ar
    15    7    8 ar
    16    7   33 1 
    17    8    9 ar
    18    8   34 1 
    19    9   10 ar
    20    9   35 1 
    21   10   11 ar
    22   10   36 1 
    23   11   12 ar
    24   12   13 1 
    25   13   14 1 
    26   13   37 1 
    27   13   38 1 
    28   14   15 ar
    29   14   28 ar
    30   15   16 ar
    31   15   39 1 
    32   16   17 1 
    33   16   26 ar
    34   17   31 2 
    35   18   19 1 
    36   18   40 1 
    37   18   41 1 
    38   19   42 1 
    39   19   43 1 
    40   20   21 1 
    41   20   44 1 
    42   20   45 1 
    43   21   46 1 
    44   21   47 1 
    45   22   23 1 
    46   22   30 2 
    47   23   24 1 
    48   23   25 1 
    49   23   48 1 
    50   24   25 1 
    51   24   49 1 
    52   24   50 1 
    53   25   51 1 
    54   25   52 1 
    55   26   27 ar
    56   26   32 1 
    57   27   28 ar
    58   27   53 1 
    59   28   54 1 
@<TRIPOS>SUBSTRUCTURE
1 MOL         1
@<TRIPOS>MOLECULE
query molecule
   55    59     1     0     0
SMALL
NO_CHARGE

@<TRIPOS>ATOM
      1 N          41.2843  -16.4603   10.9530 N.am      1 MOL    -0.2945
      2 N          42.2196  -15.9660   13.6114 N.am      1 MOL    -0.2983
      3 N          36.2406  -14.8455    5.4534 N.ar      1 MOL    -0.1750
      4 N          35.3761  -15.2323    4.5296 N.ar      1 MOL    -0.2425
      5 C          35.8330  -15.5218    3.2295 C.ar      1 MOL     0.2725
      6 C          37.2142  -15.3862    2.9608 C.ar      1 MOL     0.0496
      7 C          37.7206  -15.6601    1.6874 C.ar      1 MOL     0.0138
      8 C          39.0869  -15.5406    1.4317 C.ar      1 MOL     0.0008
      9 C          39.9581  -15.1517    2.4497 C.ar      1 MOL     0.0007
     10 C          39.4636  -14.8684    3.7241 C.ar      1 MOL     0.0103
     11 C          38.0937  -14.9715    4.0049 C.ar      1 MOL     0.0106
     12 C          37.5806  -14.6800    5.2782 C.ar      1 MOL     0.0736
     13 C          38.4448  -14.1854    6.3928 C.3       1 MOL     0.0925
     14 C          38.3664  -15.0036    7.6282 C.ar      1 MOL    -0.0406
     15 C          39.5161  -15.6002    8.1631 C.ar      1 MOL     0.0196
     16 C          39.4377  -16.3467    9.3481 C.ar      1 MOL     0.0723
     17 C          40.6447  -16.9954    9.8896 C.2       1 MOL     0.2495
     18 C          42.5375  -17.0672   11.3926 C.3       1 MOL     0.1268
     19 C          42.6466  -17.1838   12.9413 C.3       1 MOL     0.1265
     20 C          40.9268  -15.4242   13.1829 C.3       1 MOL     0.1265
     21 C          40.8499  -15.2543   11.6396 C.3       1 MOL     0.1268
     22 C          42.7149  -15.5240   14.8009 C.2       1 MOL     0.2187
     23 C          43.8448  -16.2379   15.4366 C.3       1 MOL     0.0752
     24 C          44.7694  -15.2880   16.1328 C.3       1 MOL     0.0134
     25 C          45.1760  -15.9440   14.8472 C.3       1 MOL     0.0134
     26 C          38.2143  -16.4928    9.9985 C.ar      1 MOL     0.1355
     27 C          37.0662  -15.9193    9.4693 C.ar      1 MOL     0.0392
     28 C          37.1491  -15.1784    8.2913 C.ar      1 MOL     0.0066
     29 O          34.9946  -15.8904    2.3915 O.2       1 MOL    -0.2658
     30 O          42.1979  -14.5768   15.4157 O.2       1 MOL    -0.2753
     31 O          41.0151  -18.0189    9.3047 O.2       1 MOL    -0.2699
     32 F          38.1294  -17.1967   11.1512 F         1 MOL    -0.2047
     33 H          37.0502  -15.9716    0.8996 H         1 MOL     0.0625
     34 H          39.4699  -15.7529    0.4443 H         1 MOL     0.0618
     35 H          41.0161  -15.0665    2.2486 H         1 MOL     0.0618
     36 H          40.1482  -14.5643    4.5043 H         1 MOL     0.0624
     37 H          38.1364  -13.1507    6.6417 H         1 MOL     0.0377
     38 H          39.4960  -14.1859    6.0401 H         1 MOL     0.0377
     39 H          40.4683  -15.4863    7.6643 H         1 MOL     0.0629
     40 H          43.3666  -16.4070   11.0323 H         1 MOL     0.0480
     41 H          42.6603  -18.0569   10.8973 H         1 MOL     0.0480
     42 H          43.6919  -17.4244   13.2423 H         1 MOL     0.0480
     43 H          41.9888  -18.0172   13.2873 H         1 MOL     0.0480
     44 H          40.7433  -14.4579   13.7042 H         1 MOL     0.0480
     45 H          40.1351  -16.1431   13.5112 H         1 MOL     0.0480
     46 H          41.5100  -14.4115   11.3256 H         1 MOL     0.0480
     47 H          39.8087  -15.0122   11.3248 H         1 MOL     0.0480
     48 H          43.6064  -17.1787   15.8654 H         1 MOL     0.0394
     49 H          45.2364  -15.6470   17.0425 H         1 MOL     0.0273
     50 H          44.5314  -14.2326   16.0816 H         1 MOL     0.0273
     51 H          45.9237  -16.7264   14.9377 H         1 MOL     0.0273
     52 H          45.2070  -15.3235   13.9629 H         1 MOL     0.0273
     53 H          36.1148  -16.0381    9.9645 H         1 MOL     0.0646
     54 H          36.2582  -14.7239    7.8790 H         1 MOL     0.0621
     55 H          34.3946  -15.3360    4.7043 H         1 MOL     0.1921
@<TRIPOS>BOND
     1    1   18 1 
     2    1   21 1 
     3    1   17 am
     4    2   20 1 
     5    2   22 am
     6    2   19 1 
     7    3    4 ar
     8    3   12 ar
     9    4   55 1 
    10    4    5 ar
    11    5    6 ar
    12    5   29 2 
    13    6    7 ar
    14    6   11 ar
    15    7    8 ar
    16    7   33 1 
    17    8    9 ar
    18    8   34 1 
    19    9   10 ar
    20    9   35 1 
    21   10   11 ar
    22   10   36 1 
    23   11   12 ar
    24   12   13 1 
    25   13   14 1 
    26   13   37 1 
    27   13   38 1 
    28   14   15 ar
    29   14   28 ar
    30   15   16 ar
    31   15   39 1 
    32   16   17 1 
    33   16   26 ar
    34   17   31 2 
    35   18   19 1 
    36   18   40 1 
    37   18   41 1 
    38   19   42 1 
    39   19   43 1 
    40   20   21 1 
    41   20   44 1 
    42   20   45 1 
    43   21   46 1 
    44   21   47 1 
    45   22   23 1 
    46   22   30 2 
    47   23   24 1 
    48   23   25 1 
    49   23   48 1 
    50   24   25 1 
    51   24   49 1 
    52   24   50 1 
    53   25   51 1 
    54   25   52 1 
    55   26   27 ar
    56   26   32 1 
    57   27   28 ar
    58   27   53 1 
    59   28   54 1 
@<TRIPOS>SUBSTRUCTURE
1 MOL         1
@<TRIPOS>MOLECULE
query molecule
   55    59     1     0     0
SMALL
NO_CHARGE

@<TRIPOS>ATOM
      1 N           8.2862  -17.1583   33.3680 N.am      1 MOL    -0.2945
      2 N           7.3896  -19.4448   31.9287 N.am      1 MOL    -0.2983
      3 N          13.4880  -18.3066   31.3195 N.ar      1 MOL    -0.1750
      4 N          13.8448  -18.4475   30.0481 N.ar      1 MOL    -0.2425
      5 C          15.1673  -18.2159   29.6270 C.ar      1 MOL     0.2725
      6 C          16.1292  -17.9189   30.6132 C.ar      1 MOL     0.0496
      7 C          17.4851  -17.8363   30.2974 C.ar      1 MOL     0.0138
      8 C          18.4332  -17.5378   31.2733 C.ar      1 MOL     0.0008
      9 C          18.0236  -17.3104   32.5868 C.ar      1 MOL     0.0007
     10 C          16.6701  -17.4005   32.9239 C.ar      1 MOL     0.0103
     11 C          15.7009  -17.7237   31.9585 C.ar      1 MOL     0.0106
     12 C          14.3390  -17.8704   32.2899 C.ar      1 MOL     0.0736
     13 C          13.8361  -17.6052   33.6706 C.3       1 MOL     0.0925
     14 C          12.7295  -16.6154   33.7433 C.ar      1 MOL    -0.0406
     15 C          11.4081  -17.0438   33.9557 C.ar      1 MOL     0.0196
     16 C          10.3731  -16.1099   34.1058 C.ar      1 MOL     0.0723
     17 C           8.9754  -16.5323   34.3445 C.2       1 MOL     0.2495
     18 C           6.9457  -17.6695   33.6389 C.3       1 MOL     0.1268
     19 C           6.8516  -19.1785   33.2593 C.3       1 MOL     0.1265
     20 C           8.6771  -18.8310   31.5980 C.3       1 MOL     0.1265
     21 C           8.7588  -17.3346   32.0053 C.3       1 MOL     0.1268
     22 C           6.9552  -20.4661   31.1314 C.2       1 MOL     0.2187
     23 C           5.7974  -21.2839   31.5669 C.3       1 MOL     0.0752
     24 C           4.9476  -21.6932   30.4068 C.3       1 MOL     0.0134
     25 C           4.4861  -20.6136   31.3394 C.3       1 MOL     0.0134
     26 C          10.6662  -14.7462   34.0459 C.ar      1 MOL     0.1355
     27 C          11.9660  -14.3092   33.7935 C.ar      1 MOL     0.0392
     28 C          12.9972  -15.2425   33.6421 C.ar      1 MOL     0.0066
     29 O          15.3960  -18.2487   28.4084 O.2       1 MOL    -0.2658
     30 O           7.5219  -20.7688   30.0678 O.2       1 MOL    -0.2753
     31 O           8.5056  -16.2870   35.4623 O.2       1 MOL    -0.2699
     32 F           9.6815  -13.8338   34.2322 F         1 MOL    -0.2047
     33 H          17.8036  -17.9979   29.2768 H         1 MOL     0.0625
     34 H          19.4794  -17.4812   31.0121 H         1 MOL     0.0618
     35 H          18.7555  -17.0700   33.3442 H         1 MOL     0.0618
     36 H          16.3674  -17.2296   33.9482 H         1 MOL     0.0624
     37 H          14.6827  -17.2084   34.2682 H         1 MOL     0.0377
     38 H          13.4827  -18.5579   34.1073 H         1 MOL     0.0377
     39 H          11.1912  -18.1009   34.0171 H         1 MOL     0.0629
     40 H           6.2225  -17.0848   33.0183 H         1 MOL     0.0480
     41 H           6.6915  -17.5043   34.7090 H         1 MOL     0.0480
     42 H           5.7980  -19.5375   33.3021 H         1 MOL     0.0480
     43 H           7.4429  -19.7716   33.9996 H         1 MOL     0.0480
     44 H           8.8860  -18.9708   30.5145 H         1 MOL     0.0480
     45 H           9.4676  -19.3816   32.1691 H         1 MOL     0.0480
     46 H           8.1145  -16.7243   31.3298 H         1 MOL     0.0480
     47 H           9.8026  -16.9554   31.9266 H         1 MOL     0.0480
     48 H           5.9713  -21.9291   32.3880 H         1 MOL     0.0394
     49 H           4.4483  -22.6496   30.4767 H         1 MOL     0.0273
     50 H           5.2879  -21.3704   29.4298 H         1 MOL     0.0273
     51 H           3.6756  -20.8746   32.0101 H         1 MOL     0.0273
     52 H           4.5218  -19.5961   30.9727 H         1 MOL     0.0273
     53 H          12.1718  -13.2518   33.7216 H         1 MOL     0.0646
     54 H          14.0036  -14.8999   33.4503 H         1 MOL     0.0621
     55 H          13.1917  -18.7223   29.3343 H         1 MOL     0.1921
@<TRIPOS>BOND
     1    1   18 1 
     2    1   21 1 
     3    1   17 am
     4    2   20 1 
     5    2   22 am
     6    2   19 1 
     7    3    4 ar
     8    3   12 ar
     9    4   55 1 
    10    4    5 ar
    11    5    6 ar
    12    5   29 2 
    13    6    7 ar
    14    6   11 ar
    15    7    8 ar
    16    7   33 1 
    17    8    9 ar
    18    8   34 1 
    19    9   10 ar
    20    9   35 1 
    21   10   11 ar
    22   10   36 1 
    23   11   12 ar
    24   12   13 1 
    25   13   14 1 
    26   13   37 1 
    27   13   38 1 
    28   14   15 ar
    29   14   28 ar
    30   15   16 ar
    31   15   39 1 
    32   16   17 1 
    33   16   26 ar
    34   17   31 2 
    35   18   19 1 
    36   18   40 1 
    37   18   41 1 
    38   19   42 1 
    39   19   43 1 
    40   20   21 1 
    41   20   44 1 
    42   20   45 1 
    43   21   46 1 
    44   21   47 1 
    45   22   23 1 
    46   22   30 2 
    47   23   24 1 
    48   23   25 1 
    49   23   48 1 
    50   24   25 1 
    51   24   49 1 
    52   24   50 1 
    53   25   51 1 
    54   25   52 1 
    55   26   27 ar
    56   26   32 1 
    57   27   28 ar
    58   27   53 1 
    59   28   54 1 
@<TRIPOS>SUBSTRUCTURE
1 MOL         1
@<TRIPOS>MOLECULE
query molecule
   55    59     1     0     0
SMALL
NO_CHARGE

@<TRIPOS>ATOM
      1 N           9.6589    3.5512   33.1315 N.am      1 MOL    -0.2945
      2 N          10.2213    0.7415   33.1579 N.am      1 MOL    -0.2983
      3 N          11.8841    5.8812   27.3230 N.ar      1 MOL    -0.1750
      4 N          13.2063    5.9730   27.2161 N.ar      1 MOL    -0.2425
      5 C          14.0413    4.9170   27.6436 C.ar      1 MOL     0.2725
      6 C          13.4326    3.7629   28.1824 C.ar      1 MOL     0.0496
      7 C          14.2030    2.6945   28.6461 C.ar      1 MOL     0.0138
      8 C          13.5817    1.5646   29.1741 C.ar      1 MOL     0.0008
      9 C          12.1931    1.4802   29.2363 C.ar      1 MOL     0.0007
     10 C          11.4168    2.5395   28.7729 C.ar      1 MOL     0.0103
     11 C          12.0106    3.7026   28.2566 C.ar      1 MOL     0.0106
     12 C          11.2342    4.7946   27.8309 C.ar      1 MOL     0.0736
     13 C           9.7384    4.8050   27.9137 C.3       1 MOL     0.0925
     14 C           9.2113    5.3754   29.1864 C.ar      1 MOL    -0.0406
     15 C           9.6192    4.8847   30.4307 C.ar      1 MOL     0.0196
     16 C           9.1207    5.4149   31.6300 C.ar      1 MOL     0.0723
     17 C           9.6341    4.8943   32.9252 C.2       1 MOL     0.2495
     18 C          10.5534    2.9989   34.1479 C.3       1 MOL     0.1268
     19 C          11.2127    1.6536   33.6961 C.3       1 MOL     0.1265
     20 C           9.4231    1.2940   32.0614 C.3       1 MOL     0.1265
     21 C           8.7311    2.6249   32.4872 C.3       1 MOL     0.1268
     22 C          10.1382   -0.5872   33.4402 C.2       1 MOL     0.2187
     23 C          11.1067   -1.1918   34.3905 C.3       1 MOL     0.0752
     24 C          10.5500   -2.4107   35.0529 C.3       1 MOL     0.0134
     25 C          10.6844   -1.1266   35.8156 C.3       1 MOL     0.0134
     26 C           8.1772    6.4399   31.5725 C.ar      1 MOL     0.1355
     27 C           7.7496    6.9422   30.3399 C.ar      1 MOL     0.0392
     28 C           8.2683    6.4141   29.1501 C.ar      1 MOL     0.0066
     29 O          15.2696    5.0563   27.5225 O.2       1 MOL    -0.2658
     30 O           9.3130   -1.3259   32.8756 O.2       1 MOL    -0.2753
     31 O          10.1229    5.7239   33.7101 O.2       1 MOL    -0.2699
     32 F           7.6569    6.9594   32.7105 F         1 MOL    -0.2047
     33 H          15.2805    2.7423   28.5971 H         1 MOL     0.0625
     34 H          14.1808    0.7429   29.5393 H         1 MOL     0.0618
     35 H          11.7173    0.6002   29.6418 H         1 MOL     0.0618
     36 H          10.3384    2.4709   28.8190 H         1 MOL     0.0624
     37 H           9.3732    3.7647   27.8211 H         1 MOL     0.0377
     38 H           9.3496    5.4181   27.0769 H         1 MOL     0.0377
     39 H          10.3404    4.0796   30.4720 H         1 MOL     0.0629
     40 H           9.9463    2.8026   35.0652 H         1 MOL     0.0480
     41 H          11.3243    3.7611   34.4049 H         1 MOL     0.0480
     42 H          11.7459    1.1705   34.5423 H         1 MOL     0.0480
     43 H          11.9596    1.8602   32.8888 H         1 MOL     0.0480
     44 H           8.6770    0.5388   31.7273 H         1 MOL     0.0480
     45 H          10.1115    1.4961   31.2042 H         1 MOL     0.0480
     46 H           7.9213    2.3842   33.2192 H         1 MOL     0.0480
     47 H           8.2575    3.1283   31.6130 H         1 MOL     0.0480
     48 H          12.1262   -1.1429   34.1040 H         1 MOL     0.0394
     49 H          11.2457   -3.2025   35.2965 H         1 MOL     0.0273
     50 H           9.5348   -2.7074   34.7854 H         1 MOL     0.0273
     51 H          11.4787   -1.1030   36.5547 H         1 MOL     0.0273
     52 H           9.7748   -0.5917   36.0454 H         1 MOL     0.0273
     53 H           7.0178    7.7366   30.3057 H         1 MOL     0.0646
     54 H           7.9344    6.8079   28.2009 H         1 MOL     0.0621
     55 H          13.6585    6.7843   26.8318 H         1 MOL     0.1921
@<TRIPOS>BOND
     1    1   18 1 
     2    1   21 1 
     3    1   17 am
     4    2   20 1 
     5    2   22 am
     6    2   19 1 
     7    3    4 ar
     8    3   12 ar
     9    4   55 1 
    10    4    5 ar
    11    5    6 ar
    12    5   29 2 
    13    6    7 ar
    14    6   11 ar
    15    7    8 ar
    16    7   33 1 
    17    8    9 ar
    18    8   34 1 
    19    9   10 ar
    20    9   35 1 
    21   10   11 ar
    22   10   36 1 
    23   11   12 ar
    24   12   13 1 
    25   13   14 1 
    26   13   37 1 
    27   13   38 1 
    28   14   15 ar
    29   14   28 ar
    30   15   16 ar
    31   15   39 1 
    32   16   17 1 
    33   16   26 ar
    34   17   31 2 
    35   18   19 1 
    36   18   40 1 
    37   18   41 1 
    38   19   42 1 
    39   19   43 1 
    40   20   21 1 
    41   20   44 1 
    42   20   45 1 
    43   21   46 1 
    44   21   47 1 
    45   22   23 1 
    46   22   30 2 
    47   23   24 1 
    48   23   25 1 
    49   23   48 1 
    50   24   25 1 
    51   24   49 1 
    52   24   50 1 
    53   25   51 1 
    54   25   52 1 
    55   26   27 ar
    56   26   32 1 
    57   27   28 ar
    58   27   53 1 
    59   28   54 1 
@<TRIPOS>SUBSTRUCTURE
1 MOL         1
@<TRIPOS>MOLECULE
query molecule
   55    59     1     0     0
SMALL
NO_CHARGE

@<TRIPOS>ATOM
      1 N          27.3477    1.1766    5.8279 N.am      1 MOL    -0.2945
      2 N          25.0917   -0.3802    5.0318 N.am      1 MOL    -0.2983
      3 N          31.0861   -1.0224    3.7948 N.ar      1 MOL    -0.1750
      4 N          30.8054   -2.3028    3.5863 N.ar      1 MOL    -0.2425
      5 C          31.5477   -3.0551    2.6544 C.ar      1 MOL     0.2725
      6 C          32.5968   -2.4131    1.9614 C.ar      1 MOL     0.0496
      7 C          33.3653   -3.1219    1.0318 C.ar      1 MOL     0.0138
      8 C          34.4333   -2.5017    0.3843 C.ar      1 MOL     0.0008
      9 C          34.7285   -1.1640    0.6505 C.ar      1 MOL     0.0007
     10 C          33.9479   -0.4378    1.5553 C.ar      1 MOL     0.0103
     11 C          32.8657   -1.0370    2.2270 C.ar      1 MOL     0.0106
     12 C          32.0597   -0.3252    3.1470 C.ar      1 MOL     0.0736
     13 C          32.3083    1.1136    3.4202 C.3       1 MOL     0.0925
     14 C          31.1662    1.9859    3.7397 C.ar      1 MOL    -0.0406
     15 C          30.2214    1.7340    4.7391 C.ar      1 MOL     0.0196
     16 C          29.1465    2.6153    4.9598 C.ar      1 MOL     0.0723
     17 C          28.0757    2.3162    5.9479 C.2       1 MOL     0.2495
     18 C          26.3308    0.8402    6.8260 C.3       1 MOL     0.1268
     19 C          24.9523    0.5317    6.1561 C.3       1 MOL     0.1265
     20 C          26.1300   -0.0564    4.0524 C.3       1 MOL     0.1265
     21 C          27.4951    0.2145    4.7445 C.3       1 MOL     0.1268
     22 C          24.2278   -1.3862    4.7268 C.2       1 MOL     0.2187
     23 C          23.0252   -1.5792    5.5731 C.3       1 MOL     0.0752
     24 C          22.0595   -2.5309    4.9582 C.3       1 MOL     0.0134
     25 C          21.7995   -1.0566    4.9049 C.3       1 MOL     0.0134
     26 C          29.0741    3.7943    4.2110 C.ar      1 MOL     0.1355
     27 C          30.0204    4.0682    3.2245 C.ar      1 MOL     0.0392
     28 C          31.0562    3.1661    2.9862 C.ar      1 MOL     0.0066
     29 O          31.2440   -4.2481    2.4907 O.2       1 MOL    -0.2658
     30 O          24.4352   -2.1729    3.7874 O.2       1 MOL    -0.2753
     31 O          27.8686    3.1593    6.8316 O.2       1 MOL    -0.2699
     32 F          28.0720    4.6831    4.4157 F         1 MOL    -0.2047
     33 H          33.1330   -4.1549    0.8186 H         1 MOL     0.0625
     34 H          35.0286   -3.0618   -0.3219 H         1 MOL     0.0618
     35 H          35.5626   -0.6936    0.1499 H         1 MOL     0.0618
     36 H          34.1867    0.6006    1.7405 H         1 MOL     0.0624
     37 H          32.8068    1.5395    2.5229 H         1 MOL     0.0377
     38 H          33.0173    1.1688    4.2768 H         1 MOL     0.0377
     39 H          30.3016    0.8422    5.3458 H         1 MOL     0.0629
     40 H          26.2518    1.6664    7.5676 H         1 MOL     0.0480
     41 H          26.6775   -0.0756    7.3678 H         1 MOL     0.0480
     42 H          24.5165    1.4869    5.7722 H         1 MOL     0.0480
     43 H          24.2372    0.1016    6.8923 H         1 MOL     0.0480
     44 H          25.8097    0.8653    3.5065 H         1 MOL     0.0480
     45 H          26.2060   -0.8818    3.3093 H         1 MOL     0.0480
     46 H          28.2394    0.5990    4.0098 H         1 MOL     0.0480
     47 H          27.8914   -0.7380    5.1699 H         1 MOL     0.0480
     48 H          23.1711   -1.5253    6.6192 H         1 MOL     0.0394
     49 H          21.4360   -3.1089    5.6277 H         1 MOL     0.0273
     50 H          22.3533   -2.9904    4.0205 H         1 MOL     0.0273
     51 H          21.0123   -0.6863    5.5520 H         1 MOL     0.0273
     52 H          21.9280   -0.5674    3.9485 H         1 MOL     0.0273
     53 H          29.9491    4.9749    2.6422 H         1 MOL     0.0646
     54 H          31.7854    3.3764    2.2159 H         1 MOL     0.0621
     55 H          30.0684   -2.7844    4.0698 H         1 MOL     0.1921
@<TRIPOS>BOND
     1    1   18 1 
     2    1   21 1 
     3    1   17 am
     4    2   20 1 
     5    2   22 am
     6    2   19 1 
     7    3    4 ar
     8    3   12 ar
     9    4   55 1 
    10    4    5 ar
    11    5    6 ar
    12    5   29 2 
    13    6    7 ar
    14    6   11 ar
    15    7    8 ar
    16    7   33 1 
    17    8    9 ar
    18    8   34 1 
    19    9   10 ar
    20    9   35 1 
    21   10   11 ar
    22   10   36 1 
    23   11   12 ar
    24   12   13 1 
    25   13   14 1 
    26   13   37 1 
    27   13   38 1 
    28   14   15 ar
    29   14   28 ar
    30   15   16 ar
    31   15   39 1 
    32   16   17 1 
    33   16   26 ar
    34   17   31 2 
    35   18   19 1 
    36   18   40 1 
    37   18   41 1 
    38   19   42 1 
    39   19   43 1 
    40   20   21 1 
    41   20   44 1 
    42   20   45 1 
    43   21   46 1 
    44   21   47 1 
    45   22   23 1 
    46   22   30 2 
    47   23   24 1 
    48   23   25 1 
    49   23   48 1 
    50   24   25 1 
    51   24   49 1 
    52   24   50 1 
    53   25   51 1 
    54   25   52 1 
    55   26   27 ar
    56   26   32 1 
    57   27   28 ar
    58   27   53 1 
    59   28   54 1 
@<TRIPOS>SUBSTRUCTURE
1 MOL         1
@<TRIPOS>MOLECULE
query molecule
   55    59     1     0     0
SMALL
NO_CHARGE

@<TRIPOS>ATOM
      1 N          35.1905  -19.4330    6.4747 N.am      1 MOL    -0.2945
      2 N          36.2488  -16.9464    5.5599 N.am      1 MOL    -0.2983
      3 N          35.3901  -19.7374   13.5365 N.ar      1 MOL    -0.1750
      4 N          35.2920  -18.9095   14.5730 N.ar      1 MOL    -0.2425
      5 C          34.1528  -18.9526   15.4083 C.ar      1 MOL     0.2725
      6 C          33.1057  -19.8379   15.0704 C.ar      1 MOL     0.0496
      7 C          31.9069  -19.8409   15.7799 C.ar      1 MOL     0.0138
      8 C          30.8728  -20.7145   15.4452 C.ar      1 MOL     0.0008
      9 C          31.0456  -21.6290   14.4102 C.ar      1 MOL     0.0007
     10 C          32.2411  -21.6418   13.6971 C.ar      1 MOL     0.0103
     11 C          33.2715  -20.7284   13.9773 C.ar      1 MOL     0.0106
     12 C          34.4412  -20.6603   13.2002 C.ar      1 MOL     0.0736
     13 C          34.6610  -21.5576   12.0248 C.3       1 MOL     0.0925
     14 C          34.0071  -21.0824   10.7751 C.ar      1 MOL    -0.0406
     15 C          34.7719  -21.0118    9.6046 C.ar      1 MOL     0.0196
     16 C          34.1901  -20.6002    8.3942 C.ar      1 MOL     0.0723
     17 C          35.0551  -20.5627    7.2018 C.2       1 MOL     0.2495
     18 C          36.1894  -19.4297    5.4049 C.3       1 MOL     0.1268
     19 C          37.0673  -18.1371    5.4478 C.3       1 MOL     0.1265
     20 C          35.2453  -16.9482    6.6224 C.3       1 MOL     0.1265
     21 C          34.3906  -18.2336    6.6235 C.3       1 MOL     0.1268
     22 C          36.5690  -15.7203    5.0660 C.2       1 MOL     0.2187
     23 C          37.9735  -15.4247    4.6972 C.3       1 MOL     0.0752
     24 C          38.8371  -15.2511    5.9057 C.3       1 MOL     0.0134
     25 C          38.3734  -14.0533    5.1353 C.3       1 MOL     0.0134
     26 C          32.8382  -20.2744    8.3670 C.ar      1 MOL     0.1355
     27 C          32.0638  -20.3275    9.5213 C.ar      1 MOL     0.0392
     28 C          32.6537  -20.7319   10.7145 C.ar      1 MOL     0.0066
     29 O          34.1372  -18.2329   16.4143 O.2       1 MOL    -0.2658
     30 O          35.7052  -14.8452    4.9065 O.2       1 MOL    -0.2753
     31 O          35.6819  -21.6037    6.9631 O.2       1 MOL    -0.2699
     32 F          32.2539  -19.9051    7.2041 F         1 MOL    -0.2047
     33 H          31.7754  -19.1515   16.6025 H         1 MOL     0.0625
     34 H          29.9420  -20.6879   15.9918 H         1 MOL     0.0618
     35 H          30.2571  -22.3216   14.1577 H         1 MOL     0.0618
     36 H          32.3699  -22.3547   12.8930 H         1 MOL     0.0624
     37 H          34.2575  -22.5595   12.2706 H         1 MOL     0.0377
     38 H          35.7509  -21.6301   11.8400 H         1 MOL     0.0377
     39 H          35.8190  -21.2806    9.6329 H         1 MOL     0.0629
     40 H          35.6507  -19.5053    4.4306 H         1 MOL     0.0480
     41 H          36.8315  -20.3359    5.5119 H         1 MOL     0.0480
     42 H          37.7133  -18.0633    4.5459 H         1 MOL     0.0480
     43 H          37.7289  -18.1813    6.3454 H         1 MOL     0.0480
     44 H          34.5961  -16.0489    6.5123 H         1 MOL     0.0480
     45 H          35.7853  -16.8614    7.5969 H         1 MOL     0.0480
     46 H          33.6666  -18.1962    5.7734 H         1 MOL     0.0480
     47 H          33.8001  -18.3045    7.5676 H         1 MOL     0.0480
     48 H          38.3361  -15.8645    3.8088 H         1 MOL     0.0394
     49 H          39.8798  -15.5306    5.8100 H         1 MOL     0.0273
     50 H          38.3644  -15.4355    6.8615 H         1 MOL     0.0273
     51 H          39.1462  -13.5424    4.5735 H         1 MOL     0.0273
     52 H          37.6140  -13.4407    5.6084 H         1 MOL     0.0273
     53 H          31.0185  -20.0644    9.4935 H         1 MOL     0.0646
     54 H          32.0558  -20.7842   11.6148 H         1 MOL     0.0621
     55 H          35.9971  -18.2207   14.7961 H         1 MOL     0.1921
@<TRIPOS>BOND
     1    1   18 1 
     2    1   21 1 
     3    1   17 am
     4    2   20 1 
     5    2   22 am
     6    2   19 1 
     7    3    4 ar
     8    3   12 ar
     9    4   55 1 
    10    4    5 ar
    11    5    6 ar
    12    5   29 2 
    13    6    7 ar
    14    6   11 ar
    15    7    8 ar
    16    7   33 1 
    17    8    9 ar
    18    8   34 1 
    19    9   10 ar
    20    9   35 1 
    21   10   11 ar
    22   10   36 1 
    23   11   12 ar
    24   12   13 1 
    25   13   14 1 
    26   13   37 1 
    27   13   38 1 
    28   14   15 ar
    29   14   28 ar
    30   15   16 ar
    31   15   39 1 
    32   16   17 1 
    33   16   26 ar
    34   17   31 2 
    35   18   19 1 
    36   18   40 1 
    37   18   41 1 
    38   19   42 1 
    39   19   43 1 
    40   20   21 1 
    41   20   44 1 
    42   20   45 1 
    43   21   46 1 
    44   21   47 1 
    45   22   23 1 
    46   22   30 2 
    47   23   24 1 
    48   23   25 1 
    49   23   48 1 
    50   24   25 1 
    51   24   49 1 
    52   24   50 1 
    53   25   51 1 
    54   25   52 1 
    55   26   27 ar
    56   26   32 1 
    57   27   28 ar
    58   27   53 1 
    59   28   54 1 
@<TRIPOS>SUBSTRUCTURE
1 MOL         1
@<TRIPOS>MOLECULE
query molecule
   55    59     1     0     0
SMALL
NO_CHARGE

@<TRIPOS>ATOM
      1 N          31.4230    1.0163    3.5922 N.am      1 MOL    -0.2945
      2 N          32.9216   -1.1900    2.6072 N.am      1 MOL    -0.2983
      3 N          24.9816    2.0389    5.5477 N.ar      1 MOL    -0.1750
      4 N          23.9840    2.4833    4.7896 N.ar      1 MOL    -0.2425
      5 C          23.4534    1.6965    3.7435 C.ar      1 MOL     0.2725
      6 C          24.0049    0.4161    3.5191 C.ar      1 MOL     0.0496
      7 C          23.5293   -0.4158    2.4999 C.ar      1 MOL     0.0138
      8 C          24.0860   -1.6821    2.3042 C.ar      1 MOL     0.0008
      9 C          25.1198   -2.1299    3.1288 C.ar      1 MOL     0.0007
     10 C          25.6078   -1.3051    4.1408 C.ar      1 MOL     0.0103
     11 C          25.0733   -0.0245    4.3501 C.ar      1 MOL     0.0106
     12 C          25.5727    0.8307    5.3427 C.ar      1 MOL     0.0736
     13 C          26.7504    0.4475    6.1669 C.3       1 MOL     0.0925
     14 C          27.8141    1.4739    6.0426 C.ar      1 MOL    -0.0406
     15 C          28.8934    1.3465    5.1641 C.ar      1 MOL     0.0196
     16 C          29.9656    2.2613    5.1660 C.ar      1 MOL     0.0723
     17 C          31.1478    2.1634    4.2643 C.2       1 MOL     0.2495
     18 C          32.0712    1.1072    2.2781 C.3       1 MOL     0.1268
     19 C          33.2973    0.1448    2.1654 C.3       1 MOL     0.1265
     20 C          32.3506   -1.2654    3.9529 C.3       1 MOL     0.1265
     21 C          31.1290   -0.3216    4.0842 C.3       1 MOL     0.1268
     22 C          32.9911   -2.3197    1.8585 C.2       1 MOL     0.2187
     23 C          33.4855   -2.2234    0.4650 C.3       1 MOL     0.0752
     24 C          34.0584   -3.5053   -0.0371 C.3       1 MOL     0.0134
     25 C          34.9636   -2.3866    0.3978 C.3       1 MOL     0.0134
     26 C          29.8896    3.3240    6.0762 C.ar      1 MOL     0.1355
     27 C          28.7807    3.4987    6.8911 C.ar      1 MOL     0.0392
     28 C          27.7391    2.5895    6.8711 C.ar      1 MOL     0.0066
     29 O          22.5237    2.1765    3.0711 O.2       1 MOL    -0.2658
     30 O          32.5973   -3.4178    2.2804 O.2       1 MOL    -0.2753
     31 O          31.8212    3.1951    4.0876 O.2       1 MOL    -0.2699
     32 F          30.8942    4.2148    6.2011 F         1 MOL    -0.2047
     33 H          22.7289   -0.0761    1.8588 H         1 MOL     0.0625
     34 H          23.7174   -2.3177    1.5125 H         1 MOL     0.0618
     35 H          25.5442   -3.1118    2.9824 H         1 MOL     0.0618
     36 H          26.4118   -1.6556    4.7740 H         1 MOL     0.0624
     37 H          27.1385   -0.5232    5.8182 H         1 MOL     0.0377
     38 H          26.4362    0.3902    7.2246 H         1 MOL     0.0377
     39 H          28.9126    0.5106    4.4747 H         1 MOL     0.0629
     40 H          32.3473    2.1648    2.0739 H         1 MOL     0.0480
     41 H          31.3203    0.7994    1.5072 H         1 MOL     0.0480
     42 H          34.1060    0.5190    2.8395 H         1 MOL     0.0480
     43 H          33.6946    0.1051    1.1271 H         1 MOL     0.0480
     44 H          33.1351   -0.9442    4.6816 H         1 MOL     0.0480
     45 H          32.0813   -2.3183    4.1855 H         1 MOL     0.0480
     46 H          30.7768   -0.2542    5.1387 H         1 MOL     0.0480
     47 H          30.2925   -0.7390    3.4712 H         1 MOL     0.0480
     48 H          32.9747   -1.5478   -0.1718 H         1 MOL     0.0394
     49 H          33.9771   -3.7037   -1.1010 H         1 MOL     0.0273
     50 H          33.9811   -4.3661    0.6176 H         1 MOL     0.0273
     51 H          35.4853   -1.8817   -0.4077 H         1 MOL     0.0273
     52 H          35.5034   -2.5456    1.3249 H         1 MOL     0.0273
     53 H          28.7407    4.3461    7.5581 H         1 MOL     0.0646
     54 H          26.8882    2.7330    7.5186 H         1 MOL     0.0621
     55 H          23.5683    3.3906    4.9228 H         1 MOL     0.1921
@<TRIPOS>BOND
     1    1   18 1 
     2    1   21 1 
     3    1   17 am
     4    2   20 1 
     5    2   22 am
     6    2   19 1 
     7    3    4 ar
     8    3   12 ar
     9    4   55 1 
    10    4    5 ar
    11    5    6 ar
    12    5   29 2 
    13    6    7 ar
    14    6   11 ar
    15    7    8 ar
    16    7   33 1 
    17    8    9 ar
    18    8   34 1 
    19    9   10 ar
    20    9   35 1 
    21   10   11 ar
    22   10   36 1 
    23   11   12 ar
    24   12   13 1 
    25   13   14 1 
    26   13   37 1 
    27   13   38 1 
    28   14   15 ar
    29   14   28 ar
    30   15   16 ar
    31   15   39 1 
    32   16   17 1 
    33   16   26 ar
    34   17   31 2 
    35   18   19 1 
    36   18   40 1 
    37   18   41 1 
    38   19   42 1 
    39   19   43 1 
    40   20   21 1 
    41   20   44 1 
    42   20   45 1 
    43   21   46 1 
    44   21   47 1 
    45   22   23 1 
    46   22   30 2 
    47   23   24 1 
    48   23   25 1 
    49   23   48 1 
    50   24   25 1 
    51   24   49 1 
    52   24   50 1 
    53   25   51 1 
    54   25   52 1 
    55   26   27 ar
    56   26   32 1 
    57   27   28 ar
    58   27   53 1 
    59   28   54 1 
@<TRIPOS>SUBSTRUCTURE
1 MOL         1
@<TRIPOS>MOLECULE
query molecule
   55    59     1     0     0
SMALL
NO_CHARGE

@<TRIPOS>ATOM
      1 N           5.8974   -4.7509   17.9415 N.am      1 MOL    -0.2945
      2 N           5.0306   -3.1619   20.1269 N.am      1 MOL    -0.2983
      3 N           8.6031   -6.9695   12.5682 N.ar      1 MOL    -0.1750
      4 N           8.7702   -8.0406   11.8012 N.ar      1 MOL    -0.2425
      5 C           9.8912   -8.1652   10.9496 C.ar      1 MOL     0.2725
      6 C          10.8163   -7.0979   10.9025 C.ar      1 MOL     0.0496
      7 C          11.9449   -7.1596   10.0767 C.ar      1 MOL     0.0138
      8 C          12.8524   -6.1003   10.0449 C.ar      1 MOL     0.0008
      9 C          12.6359   -4.9700   10.8300 C.ar      1 MOL     0.0007
     10 C          11.5108   -4.8989   11.6534 C.ar      1 MOL     0.0103
     11 C          10.5842   -5.9536   11.7200 C.ar      1 MOL     0.0106
     12 C           9.4652   -5.9148   12.5833 C.ar      1 MOL     0.0736
     13 C           9.2644   -4.7648   13.4988 C.3       1 MOL     0.0925
     14 C           7.8905   -4.4501   13.9049 C.ar      1 MOL    -0.0406
     15 C           7.3811   -5.0544   15.0487 C.ar      1 MOL     0.0196
     16 C           6.1069   -4.7284   15.5165 C.ar      1 MOL     0.0723
     17 C           5.6528   -5.3664   16.7645 C.2       1 MOL     0.2495
     18 C           5.5458   -5.4295   19.1826 C.3       1 MOL     0.1268
     19 C           4.5667   -4.5401   19.9915 C.3       1 MOL     0.1265
     20 C           5.5918   -2.5045   18.9406 C.3       1 MOL     0.1265
     21 C           6.5069   -3.4426   18.0995 C.3       1 MOL     0.1268
     22 C           4.6996   -2.3591   21.1842 C.2       1 MOL     0.2187
     23 C           3.7504   -2.8465   22.2010 C.3       1 MOL     0.0752
     24 C           2.3223   -2.8506   21.7815 C.3       1 MOL     0.0134
     25 C           2.8293   -1.7906   22.7089 C.3       1 MOL     0.0134
     26 C           5.3220   -3.8225   14.8121 C.ar      1 MOL     0.1355
     27 C           5.8120   -3.2216   13.6506 C.ar      1 MOL     0.0392
     28 C           7.1005   -3.5307   13.2082 C.ar      1 MOL     0.0066
     29 O          10.0135   -9.2135   10.2975 O.2       1 MOL    -0.2658
     30 O           5.2412   -1.2552   21.3709 O.2       1 MOL    -0.2753
     31 O           5.1041   -6.4681   16.6645 O.2       1 MOL    -0.2699
     32 F           4.0779   -3.5126   15.2466 F         1 MOL    -0.2047
     33 H          12.1168   -8.0337    9.4647 H         1 MOL     0.0625
     34 H          13.7265   -6.1582    9.4131 H         1 MOL     0.0618
     35 H          13.3384   -4.1503   10.8073 H         1 MOL     0.0618
     36 H          11.3511   -4.0165   12.2542 H         1 MOL     0.0624
     37 H           9.6808   -3.8641   13.0010 H         1 MOL     0.0377
     38 H           9.8431   -4.9695   14.4251 H         1 MOL     0.0377
     39 H           7.9820   -5.7693   15.5936 H         1 MOL     0.0629
     40 H           6.4817   -5.6131   19.7599 H         1 MOL     0.0480
     41 H           5.0838   -6.4134   18.9430 H         1 MOL     0.0480
     42 H           4.3762   -4.9639   21.0033 H         1 MOL     0.0480
     43 H           3.5909   -4.5145   19.4454 H         1 MOL     0.0480
     44 H           6.1321   -1.5808   19.2505 H         1 MOL     0.0480
     45 H           4.7334   -2.1899   18.2947 H         1 MOL     0.0480
     46 H           7.4840   -3.5756   18.6243 H         1 MOL     0.0480
     47 H           6.7122   -3.0037   17.0969 H         1 MOL     0.0480
     48 H           4.1343   -3.5918   22.8577 H         1 MOL     0.0394
     49 H           1.7013   -3.6302   22.2068 H         1 MOL     0.0273
     50 H           2.1181   -2.5627   20.7586 H         1 MOL     0.0273
     51 H           2.4828   -1.8799   23.7332 H         1 MOL     0.0273
     52 H           2.9126   -0.7954   22.2918 H         1 MOL     0.0273
     53 H           5.2010   -2.5230   13.0992 H         1 MOL     0.0646
     54 H           7.4885   -3.0589   12.3163 H         1 MOL     0.0621
     55 H           8.1138   -8.8030   11.7907 H         1 MOL     0.1921
@<TRIPOS>BOND
     1    1   18 1 
     2    1   21 1 
     3    1   17 am
     4    2   20 1 
     5    2   22 am
     6    2   19 1 
     7    3    4 ar
     8    3   12 ar
     9    4   55 1 
    10    4    5 ar
    11    5    6 ar
    12    5   29 2 
    13    6    7 ar
    14    6   11 ar
    15    7    8 ar
    16    7   33 1 
    17    8    9 ar
    18    8   34 1 
    19    9   10 ar
    20    9   35 1 
    21   10   11 ar
    22   10   36 1 
    23   11   12 ar
    24   12   13 1 
    25   13   14 1 
    26   13   37 1 
    27   13   38 1 
    28   14   15 ar
    29   14   28 ar
    30   15   16 ar
    31   15   39 1 
    32   16   17 1 
    33   16   26 ar
    34   17   31 2 
    35   18   19 1 
    36   18   40 1 
    37   18   41 1 
    38   19   42 1 
    39   19   43 1 
    40   20   21 1 
    41   20   44 1 
    42   20   45 1 
    43   21   46 1 
    44   21   47 1 
    45   22   23 1 
    46   22   30 2 
    47   23   24 1 
    48   23   25 1 
    49   23   48 1 
    50   24   25 1 
    51   24   49 1 
    52   24   50 1 
    53   25   51 1 
    54   25   52 1 
    55   26   27 ar
    56   26   32 1 
    57   27   28 ar
    58   27   53 1 
    59   28   54 1 
@<TRIPOS>SUBSTRUCTURE
1 MOL         1
@<TRIPOS>MOLECULE
query molecule
   55    59     1     0     0
SMALL
NO_CHARGE

@<TRIPOS>ATOM
      1 N          24.1938  -13.2503    4.9606 N.am      1 MOL    -0.2945
      2 N          25.2488  -10.6706    5.5752 N.am      1 MOL    -0.2983
      3 N          23.0186  -16.8128   11.0864 N.ar      1 MOL    -0.1750
      4 N          22.2936  -16.6681   12.1936 N.ar      1 MOL    -0.2425
      5 C          22.5743  -15.6275   13.1005 C.ar      1 MOL     0.2725
      6 C          23.5788  -14.7008   12.7701 C.ar      1 MOL     0.0496
      7 C          23.8849  -13.6272   13.6081 C.ar      1 MOL     0.0138
      8 C          24.8615  -12.7004   13.2405 C.ar      1 MOL     0.0008
      9 C          25.5437  -12.8372   12.0330 C.ar      1 MOL     0.0007
     10 C          25.2625  -13.9143   11.1928 C.ar      1 MOL     0.0103
     11 C          24.2921  -14.8680   11.5405 C.ar      1 MOL     0.0106
     12 C          24.0203  -15.9729   10.7128 C.ar      1 MOL     0.0736
     13 C          24.8182  -16.2447    9.4797 C.3       1 MOL     0.0925
     14 C          24.0449  -16.2873    8.2150 C.ar      1 MOL    -0.0406
     15 C          24.3814  -15.4109    7.1673 C.ar      1 MOL     0.0196
     16 C          23.6993  -15.4604    5.9420 C.ar      1 MOL     0.0723
     17 C          24.0647  -14.5859    4.8046 C.2       1 MOL     0.2495
     18 C          24.8366  -12.4654    3.9021 C.3       1 MOL     0.1268
     19 C          25.8427  -11.4243    4.4811 C.3       1 MOL     0.1265
     20 C          24.5839  -11.4469    6.6268 C.3       1 MOL     0.1265
     21 C          23.5968  -12.4958    6.0510 C.3       1 MOL     0.1268
     22 C          25.5149   -9.3624    5.8560 C.2       1 MOL     0.2187
     23 C          26.4994   -8.6403    5.0138 C.3       1 MOL     0.0752
     24 C          26.4002   -7.1621    5.2006 C.3       1 MOL     0.0134
     25 C          25.8770   -7.8088    3.9481 C.3       1 MOL     0.0134
     26 C          22.6588  -16.3865    5.7863 C.ar      1 MOL     0.1355
     27 C          22.3112  -17.2562    6.8198 C.ar      1 MOL     0.0392
     28 C          23.0094  -17.2099    8.0268 C.ar      1 MOL     0.0066
     29 O          21.9173  -15.5973   14.1690 O.2       1 MOL    -0.2658
     30 O          25.0059   -8.7861    6.8331 O.2       1 MOL    -0.2753
     31 O          24.2765  -15.1586    3.7260 O.2       1 MOL    -0.2699
     32 F          21.9653  -16.4498    4.6229 F         1 MOL    -0.2047
     33 H          23.3577  -13.5126   14.5443 H         1 MOL     0.0625
     34 H          25.0897  -11.8724   13.8951 H         1 MOL     0.0618
     35 H          26.2941  -12.1140   11.7505 H         1 MOL     0.0618
     36 H          25.8022  -14.0206   10.2615 H         1 MOL     0.0624
     37 H          25.3165  -17.2273    9.6070 H         1 MOL     0.0377
     38 H          25.5836  -15.4487    9.3840 H         1 MOL     0.0377
     39 H          25.1814  -14.6971    7.3036 H         1 MOL     0.0629
     40 H          24.0321  -11.9159    3.3525 H         1 MOL     0.0480
     41 H          25.3296  -13.1563    3.1825 H         1 MOL     0.0480
     42 H          26.2139  -10.7254    3.7003 H         1 MOL     0.0480
     43 H          26.7227  -11.9810    4.8882 H         1 MOL     0.0480
     44 H          24.0677  -10.7480    7.3237 H         1 MOL     0.0480
     45 H          25.3761  -11.9824    7.2064 H         1 MOL     0.0480
     46 H          22.6985  -11.9642    5.6520 H         1 MOL     0.0480
     47 H          23.2541  -13.1966    6.8447 H         1 MOL     0.0480
     48 H          27.4343   -9.1177    4.8727 H         1 MOL     0.0394
     49 H          27.3128   -6.5893    5.1212 H         1 MOL     0.0273
     50 H          25.6475   -6.8122    5.8970 H         1 MOL     0.0273
     51 H          26.4596   -7.6006    3.0577 H         1 MOL     0.0273
     52 H          24.8023   -7.8481    3.8346 H         1 MOL     0.0273
     53 H          21.5052  -17.9629    6.6877 H         1 MOL     0.0646
     54 H          22.7467  -17.8924    8.8229 H         1 MOL     0.0621
     55 H          21.5333  -17.2828   12.4145 H         1 MOL     0.1921
@<TRIPOS>BOND
     1    1   18 1 
     2    1   21 1 
     3    1   17 am
     4    2   20 1 
     5    2   22 am
     6    2   19 1 
     7    3    4 ar
     8    3   12 ar
     9    4   55 1 
    10    4    5 ar
    11    5    6 ar
    12    5   29 2 
    13    6    7 ar
    14    6   11 ar
    15    7    8 ar
    16    7   33 1 
    17    8    9 ar
    18    8   34 1 
    19    9   10 ar
    20    9   35 1 
    21   10   11 ar
    22   10   36 1 
    23   11   12 ar
    24   12   13 1 
    25   13   14 1 
    26   13   37 1 
    27   13   38 1 
    28   14   15 ar
    29   14   28 ar
    30   15   16 ar
    31   15   39 1 
    32   16   17 1 
    33   16   26 ar
    34   17   31 2 
    35   18   19 1 
    36   18   40 1 
    37   18   41 1 
    38   19   42 1 
    39   19   43 1 
    40   20   21 1 
    41   20   44 1 
    42   20   45 1 
    43   21   46 1 
    44   21   47 1 
    45   22   23 1 
    46   22   30 2 
    47   23   24 1 
    48   23   25 1 
    49   23   48 1 
    50   24   25 1 
    51   24   49 1 
    52   24   50 1 
    53   25   51 1 
    54   25   52 1 
    55   26   27 ar
    56   26   32 1 
    57   27   28 ar
    58   27   53 1 
    59   28   54 1 
@<TRIPOS>SUBSTRUCTURE
1 MOL         1
@<TRIPOS>MOLECULE
query molecule
   55    59     1     0     0
SMALL
NO_CHARGE

@<TRIPOS>ATOM
      1 N          38.2010  -14.8168    4.3184 N.am      1 MOL    -0.2945
      2 N          40.1792  -15.6112    2.4328 N.am      1 MOL    -0.2983
      3 N          35.3955  -18.3627    7.1208 N.ar      1 MOL    -0.1750
      4 N          34.3387  -18.7228    6.4270 N.ar      1 MOL    -0.2425
      5 C          33.2368  -19.2457    7.1144 C.ar      1 MOL     0.2725
      6 C          33.2918  -19.3676    8.5142 C.ar      1 MOL     0.0496
      7 C          32.2480  -19.9687    9.2250 C.ar      1 MOL     0.0138
      8 C          32.3163  -20.0905   10.6122 C.ar      1 MOL     0.0008
      9 C          33.4296  -19.6018   11.2995 C.ar      1 MOL     0.0007
     10 C          34.4806  -18.9990   10.6022 C.ar      1 MOL     0.0103
     11 C          34.4445  -18.8833    9.2043 C.ar      1 MOL     0.0106
     12 C          35.5093  -18.3256    8.4774 C.ar      1 MOL     0.0736
     13 C          36.7348  -17.7666    9.1257 C.3       1 MOL     0.0925
     14 C          37.2748  -16.5066    8.5437 C.ar      1 MOL    -0.0406
     15 C          37.0424  -16.1285    7.2228 C.ar      1 MOL     0.0196
     16 C          37.5300  -14.9548    6.6675 C.ar      1 MOL     0.0723
     17 C          37.2089  -14.7540    5.2407 C.2       1 MOL     0.2495
     18 C          37.8323  -14.9581    2.9124 C.3       1 MOL     0.1268
     19 C          38.7888  -15.9161    2.1439 C.3       1 MOL     0.1265
     20 C          40.5458  -15.5520    3.8424 C.3       1 MOL     0.1265
     21 C          39.5991  -14.6376    4.6443 C.3       1 MOL     0.1268
     22 C          41.2140  -15.7526    1.5639 C.2       1 MOL     0.2187
     23 C          40.9860  -16.4618    0.2796 C.3       1 MOL     0.0752
     24 C          41.0615  -17.9417    0.5109 C.3       1 MOL     0.0134
     25 C          42.2100  -17.2259   -0.1255 C.3       1 MOL     0.0134
     26 C          38.2664  -14.1046    7.4696 C.ar      1 MOL     0.1355
     27 C          38.5765  -14.4702    8.7848 C.ar      1 MOL     0.0392
     28 C          38.0735  -15.6585    9.3279 C.ar      1 MOL     0.0066
     29 O          32.2647  -19.5757    6.4252 O.2       1 MOL    -0.2658
     30 O          42.3432  -15.2836    1.7875 O.2       1 MOL    -0.2753
     31 O          36.0156  -14.6637    4.9339 O.2       1 MOL    -0.2699
     32 F          38.7038  -12.9168    6.9926 F         1 MOL    -0.2047
     33 H          31.3827  -20.3431    8.6960 H         1 MOL     0.0625
     34 H          31.5080  -20.5584   11.1544 H         1 MOL     0.0618
     35 H          33.4770  -19.6888   12.3755 H         1 MOL     0.0618
     36 H          35.3362  -18.6240   11.1460 H         1 MOL     0.0624
     37 H          37.5300  -18.5385    9.0530 H         1 MOL     0.0377
     38 H          36.5006  -17.5806   10.1930 H         1 MOL     0.0377
     39 H          36.4499  -16.7884    6.5965 H         1 MOL     0.0629
     40 H          37.8701  -13.9460    2.4452 H         1 MOL     0.0480
     41 H          36.7833  -15.3244    2.8506 H         1 MOL     0.0480
     42 H          38.6172  -15.8571    1.0443 H         1 MOL     0.0480
     43 H          38.5973  -16.9709    2.4640 H         1 MOL     0.0480
     44 H          41.5989  -15.1961    3.9270 H         1 MOL     0.0480
     45 H          40.5005  -16.5888    4.2529 H         1 MOL     0.0480
     46 H          39.8619  -13.5714    4.4286 H         1 MOL     0.0480
     47 H          39.7443  -14.8018    5.7377 H         1 MOL     0.0480
     48 H          40.3118  -16.0481   -0.4203 H         1 MOL     0.0394
     49 H          40.4921  -18.5946   -0.1370 H         1 MOL     0.0273
     50 H          41.1946  -18.2640    1.5381 H         1 MOL     0.0273
     51 H          42.3671  -17.4038   -1.1826 H         1 MOL     0.0273
     52 H          43.0883  -17.0563    0.4910 H         1 MOL     0.0273
     53 H          39.1934  -13.8225    9.3963 H         1 MOL     0.0646
     54 H          38.2976  -15.9260   10.3507 H         1 MOL     0.0621
     55 H          34.2742  -18.6512    5.4302 H         1 MOL     0.1921
@<TRIPOS>BOND
     1    1   18 1 
     2    1   21 1 
     3    1   17 am
     4    2   20 1 
     5    2   22 am
     6    2   19 1 
     7    3    4 ar
     8    3   12 ar
     9    4   55 1 
    10    4    5 ar
    11    5    6 ar
    12    5   29 2 
    13    6    7 ar
    14    6   11 ar
    15    7    8 ar
    16    7   33 1 
    17    8    9 ar
    18    8   34 1 
    19    9   10 ar
    20    9   35 1 
    21   10   11 ar
    22   10   36 1 
    23   11   12 ar
    24   12   13 1 
    25   13   14 1 
    26   13   37 1 
    27   13   38 1 
    28   14   15 ar
    29   14   28 ar
    30   15   16 ar
    31   15   39 1 
    32   16   17 1 
    33   16   26 ar
    34   17   31 2 
    35   18   19 1 
    36   18   40 1 
    37   18   41 1 
    38   19   42 1 
    39   19   43 1 
    40   20   21 1 
    41   20   44 1 
    42   20   45 1 
    43   21   46 1 
    44   21   47 1 
    45   22   23 1 
    46   22   30 2 
    47   23   24 1 
    48   23   25 1 
    49   23   48 1 
    50   24   25 1 
    51   24   49 1 
    52   24   50 1 
    53   25   51 1 
    54   25   52 1 
    55   26   27 ar
    56   26   32 1 
    57   27   28 ar
    58   27   53 1 
    59   28   54 1 
@<TRIPOS>SUBSTRUCTURE
1 MOL         1
@<TRIPOS>MOLECULE
query molecule
   55    59     1     0     0
SMALL
NO_CHARGE

@<TRIPOS>ATOM
      1 N           0.4206  -18.2517   28.4856 N.am      1 MOL    -0.2945
      2 N           2.0150  -18.9000   30.7869 N.am      1 MOL    -0.2983
      3 N          -0.0757  -14.8868   21.2950 N.ar      1 MOL    -0.1750
      4 N           0.1066  -13.9370   20.3845 N.ar      1 MOL    -0.2425
      5 C           1.4052  -13.5027   20.0421 C.ar      1 MOL     0.2725
      6 C           2.4988  -14.1138   20.6878 C.ar      1 MOL     0.0496
      7 C           3.8073  -13.7348   20.3808 C.ar      1 MOL     0.0138
      8 C           4.8873  -14.2765   21.0689 C.ar      1 MOL     0.0008
      9 C           4.6565  -15.2208   22.0530 C.ar      1 MOL     0.0007
     10 C           3.3582  -15.6573   22.3213 C.ar      1 MOL     0.0103
     11 C           2.2501  -15.1121   21.6709 C.ar      1 MOL     0.0106
     12 C           0.9362  -15.5135   21.9649 C.ar      1 MOL     0.0736
     13 C           0.5901  -16.5910   22.9438 C.3       1 MOL     0.0925
     14 C           0.1573  -16.1553   24.3028 C.ar      1 MOL    -0.0406
     15 C           0.0298  -17.1094   25.3395 C.ar      1 MOL     0.0196
     16 C          -0.3299  -16.7519   26.6453 C.ar      1 MOL     0.0723
     17 C          -0.5536  -17.7431   27.7088 C.2       1 MOL     0.2495
     18 C           0.0680  -19.3973   29.3378 C.3       1 MOL     0.1268
     19 C           0.6043  -19.2420   30.7917 C.3       1 MOL     0.1265
     20 C           2.4121  -17.7884   29.9320 C.3       1 MOL     0.1265
     21 C           1.8068  -17.8456   28.5086 C.3       1 MOL     0.1268
     22 C           2.9123  -19.3753   31.6949 C.2       1 MOL     0.2187
     23 C           2.4084  -20.0902   32.8967 C.3       1 MOL     0.0752
     24 C           1.8188  -19.1306   33.8807 C.3       1 MOL     0.0134
     25 C           3.1727  -19.7280   34.1270 C.3       1 MOL     0.0134
     26 C          -0.5614  -15.3992   26.9080 C.ar      1 MOL     0.1355
     27 C          -0.4773  -14.4415   25.8993 C.ar      1 MOL     0.0392
     28 C          -0.1298  -14.8219   24.6044 C.ar      1 MOL     0.0066
     29 O           1.5154  -12.5959   19.2022 O.2       1 MOL    -0.2658
     30 O           4.1385  -19.2609   31.5458 O.2       1 MOL    -0.2753
     31 O          -1.7415  -18.0756   27.8342 O.2       1 MOL    -0.2699
     32 F          -0.8946  -15.0020   28.1550 F         1 MOL    -0.2047
     33 H           3.9842  -12.9843   19.6249 H         1 MOL     0.0625
     34 H           5.8932  -13.9566   20.8485 H         1 MOL     0.0618
     35 H           5.4860  -15.6455   22.6002 H         1 MOL     0.0618
     36 H           3.2042  -16.4284   23.0666 H         1 MOL     0.0624
     37 H           1.4807  -17.2420   23.0611 H         1 MOL     0.0377
     38 H          -0.2407  -17.1836   22.5035 H         1 MOL     0.0377
     39 H           0.2247  -18.1513   25.1160 H         1 MOL     0.0629
     40 H           0.5035  -20.3223   28.8878 H         1 MOL     0.0480
     41 H          -1.0398  -19.5145   29.3480 H         1 MOL     0.0480
     42 H           0.4541  -20.1717   31.3858 H         1 MOL     0.0480
     43 H           0.0513  -18.4176   31.3057 H         1 MOL     0.0480
     44 H           3.5246  -17.7442   29.8862 H         1 MOL     0.0480
     45 H           2.0594  -16.8455   30.4233 H         1 MOL     0.0480
     46 H           2.3894  -18.6170   27.9404 H         1 MOL     0.0480
     47 H           1.9203  -16.8774   27.9692 H         1 MOL     0.0480
     48 H           2.0122  -21.0591   32.7474 H         1 MOL     0.0394
     49 H           1.0217  -19.4908   34.5198 H         1 MOL     0.0273
     50 H           1.7998  -18.0847   33.6004 H         1 MOL     0.0273
     51 H           3.2404  -20.4768   34.9073 H         1 MOL     0.0273
     52 H           4.0268  -19.0751   33.9953 H         1 MOL     0.0273
     53 H          -0.6856  -13.4045   26.1156 H         1 MOL     0.0646
     54 H          -0.0714  -14.0769   23.8231 H         1 MOL     0.0621
     55 H          -0.6567  -13.4951   19.9026 H         1 MOL     0.1921
@<TRIPOS>BOND
     1    1   18 1 
     2    1   21 1 
     3    1   17 am
     4    2   20 1 
     5    2   22 am
     6    2   19 1 
     7    3    4 ar
     8    3   12 ar
     9    4   55 1 
    10    4    5 ar
    11    5    6 ar
    12    5   29 2 
    13    6    7 ar
    14    6   11 ar
    15    7    8 ar
    16    7   33 1 
    17    8    9 ar
    18    8   34 1 
    19    9   10 ar
    20    9   35 1 
    21   10   11 ar
    22   10   36 1 
    23   11   12 ar
    24   12   13 1 
    25   13   14 1 
    26   13   37 1 
    27   13   38 1 
    28   14   15 ar
    29   14   28 ar
    30   15   16 ar
    31   15   39 1 
    32   16   17 1 
    33   16   26 ar
    34   17   31 2 
    35   18   19 1 
    36   18   40 1 
    37   18   41 1 
    38   19   42 1 
    39   19   43 1 
    40   20   21 1 
    41   20   44 1 
    42   20   45 1 
    43   21   46 1 
    44   21   47 1 
    45   22   23 1 
    46   22   30 2 
    47   23   24 1 
    48   23   25 1 
    49   23   48 1 
    50   24   25 1 
    51   24   49 1 
    52   24   50 1 
    53   25   51 1 
    54   25   52 1 
    55   26   27 ar
    56   26   32 1 
    57   27   28 ar
    58   27   53 1 
    59   28   54 1 
@<TRIPOS>SUBSTRUCTURE
1 MOL         1
@<TRIPOS>MOLECULE
query molecule
   55    59     1     0     0
SMALL
NO_CHARGE

@<TRIPOS>ATOM
      1 N          11.4289    1.2600   29.9110 N.am      1 MOL    -0.2945
      2 N           9.2572    1.0150   31.7916 N.am      1 MOL    -0.2983
      3 N          12.5006    7.6363   26.0790 N.ar      1 MOL    -0.1750
      4 N          12.8391    8.2410   24.9476 N.ar      1 MOL    -0.2425
      5 C          12.0762    8.0860   23.7721 C.ar      1 MOL     0.2725
      6 C          10.9203    7.2800   23.8443 C.ar      1 MOL     0.0496
      7 C          10.0929    7.1119   22.7313 C.ar      1 MOL     0.0138
      8 C           8.9449    6.3239   22.8278 C.ar      1 MOL     0.0008
      9 C           8.6202    5.6977   24.0330 C.ar      1 MOL     0.0007
     10 C           9.4422    5.8557   25.1484 C.ar      1 MOL     0.0103
     11 C          10.5991    6.6440   25.0793 C.ar      1 MOL     0.0106
     12 C          11.4251    6.8165   26.1982 C.ar      1 MOL     0.0736
     13 C          11.1662    6.1637   27.5127 C.3       1 MOL     0.0925
     14 C          12.1497    5.0923   27.8202 C.ar      1 MOL    -0.0406
     15 C          11.7418    3.8155   28.2330 C.ar      1 MOL     0.0196
     16 C          12.6953    2.8377   28.5300 C.ar      1 MOL     0.0723
     17 C          12.3139    1.4695   28.9154 C.2       1 MOL     0.2495
     18 C          10.5181    0.1347   29.8279 C.3       1 MOL     0.1268
     19 C           9.1413    0.3806   30.4895 C.3       1 MOL     0.1265
     20 C          10.1358    2.1819   31.8542 C.3       1 MOL     0.1265
     21 C          11.5042    1.9691   31.1696 C.3       1 MOL     0.1268
     22 C           8.3146    0.9102   32.7823 C.2       1 MOL     0.2187
     23 C           7.0508    0.1838   32.4947 C.3       1 MOL     0.0752
     24 C           6.5298   -0.5709   33.6708 C.3       1 MOL     0.0134
     25 C           7.1947   -1.2959   32.5387 C.3       1 MOL     0.0134
     26 C          14.0552    3.1462   28.4369 C.ar      1 MOL     0.1355
     27 C          14.4704    4.4056   28.0162 C.ar      1 MOL     0.0392
     28 C          13.5182    5.3795   27.7068 C.ar      1 MOL     0.0066
     29 O          12.4651    8.6553   22.7437 O.2       1 MOL    -0.2658
     30 O           8.4359    1.4805   33.8768 O.2       1 MOL    -0.2753
     31 O          12.7632    0.5554   28.2348 O.2       1 MOL    -0.2699
     32 F          14.9784    2.2097   28.7654 F         1 MOL    -0.2047
     33 H          10.3394    7.5977   21.7982 H         1 MOL     0.0625
     34 H           8.3038    6.2009   21.9672 H         1 MOL     0.0618
     35 H           7.7297    5.0912   24.1049 H         1 MOL     0.0618
     36 H           9.1865    5.3712   26.0806 H         1 MOL     0.0624
     37 H          10.1515    5.7281   27.4981 H         1 MOL     0.0377
     38 H          11.2369    6.9414   28.2983 H         1 MOL     0.0377
     39 H          10.6868    3.5954   28.3087 H         1 MOL     0.0629
     40 H          10.9687   -0.7195   30.3987 H         1 MOL     0.0480
     41 H          10.4572   -0.1881   28.7697 H         1 MOL     0.0480
     42 H           8.6157   -0.5925   30.6337 H         1 MOL     0.0480
     43 H           8.4977    1.0067   29.8347 H         1 MOL     0.0480
     44 H          10.2664    2.4619   32.9226 H         1 MOL     0.0480
     45 H           9.6104    3.0307   31.3555 H         1 MOL     0.0480
     46 H          12.1239    1.3686   31.8791 H         1 MOL     0.0480
     47 H          12.0356    2.9311   31.0188 H         1 MOL     0.0480
     48 H           6.3866    0.6753   31.8289 H         1 MOL     0.0394
     49 H           5.4522   -0.6619   33.7541 H         1 MOL     0.0273
     50 H           7.0827   -0.4755   34.5967 H         1 MOL     0.0273
     51 H           6.5514   -1.8536   31.8669 H         1 MOL     0.0273
     52 H           8.1953   -1.6737   32.7042 H         1 MOL     0.0273
     53 H          15.5226    4.6279   27.9325 H         1 MOL     0.0646
     54 H          13.8391    6.3597   27.3848 H         1 MOL     0.0621
     55 H          13.6558    8.8251   24.8815 H         1 MOL     0.1921
@<TRIPOS>BOND
     1    1   18 1 
     2    1   21 1 
     3    1   17 am
     4    2   20 1 
     5    2   22 am
     6    2   19 1 
     7    3    4 ar
     8    3   12 ar
     9    4   55 1 
    10    4    5 ar
    11    5    6 ar
    12    5   29 2 
    13    6    7 ar
    14    6   11 ar
    15    7    8 ar
    16    7   33 1 
    17    8    9 ar
    18    8   34 1 
    19    9   10 ar
    20    9   35 1 
    21   10   11 ar
    22   10   36 1 
    23   11   12 ar
    24   12   13 1 
    25   13   14 1 
    26   13   37 1 
    27   13   38 1 
    28   14   15 ar
    29   14   28 ar
    30   15   16 ar
    31   15   39 1 
    32   16   17 1 
    33   16   26 ar
    34   17   31 2 
    35   18   19 1 
    36   18   40 1 
    37   18   41 1 
    38   19   42 1 
    39   19   43 1 
    40   20   21 1 
    41   20   44 1 
    42   20   45 1 
    43   21   46 1 
    44   21   47 1 
    45   22   23 1 
    46   22   30 2 
    47   23   24 1 
    48   23   25 1 
    49   23   48 1 
    50   24   25 1 
    51   24   49 1 
    52   24   50 1 
    53   25   51 1 
    54   25   52 1 
    55   26   27 ar
    56   26   32 1 
    57   27   28 ar
    58   27   53 1 
    59   28   54 1 
@<TRIPOS>SUBSTRUCTURE
1 MOL         1
@<TRIPOS>MOLECULE
query molecule
   55    59     1     0     0
SMALL
NO_CHARGE

@<TRIPOS>ATOM
      1 N          33.4892  -20.1607    9.5166 N.am      1 MOL    -0.2945
      2 N          31.1409  -21.3726   10.4733 N.am      1 MOL    -0.2983
      3 N          35.8502  -15.5870    6.6051 N.ar      1 MOL    -0.1750
      4 N          36.7051  -14.7517    7.1835 N.ar      1 MOL    -0.2425
      5 C          37.8932  -14.3742    6.5268 C.ar      1 MOL     0.2725
      6 C          38.1478  -14.9295    5.2538 C.ar      1 MOL     0.0496
      7 C          39.3055  -14.6135    4.5414 C.ar      1 MOL     0.0138
      8 C          39.5439  -15.1772    3.2887 C.ar      1 MOL     0.0008
      9 C          38.6236  -16.0666    2.7338 C.ar      1 MOL     0.0007
     10 C          37.4622  -16.3905    3.4311 C.ar      1 MOL     0.0103
     11 C          37.2026  -15.8352    4.6910 C.ar      1 MOL     0.0106
     12 C          36.0382  -16.1681    5.3923 C.ar      1 MOL     0.0736
     13 C          35.0190  -17.1221    4.8606 C.3       1 MOL     0.0925
     14 C          35.0551  -18.4368    5.5488 C.ar      1 MOL    -0.0406
     15 C          34.8636  -18.5285    6.9306 C.ar      1 MOL     0.0196
     16 C          34.8916  -19.7702    7.5648 C.ar      1 MOL     0.0723
     17 C          34.7019  -19.8165    9.0258 C.2       1 MOL     0.2495
     18 C          33.3883  -20.5000   10.9345 C.3       1 MOL     0.1268
     19 C          32.3680  -21.6492   11.1905 C.3       1 MOL     0.1265
     20 C          31.3021  -21.2604    9.0340 C.3       1 MOL     0.1265
     21 C          32.2746  -20.0928    8.7133 C.3       1 MOL     0.1268
     22 C          29.9301  -21.1285   11.0284 C.2       1 MOL     0.2187
     23 C          29.8459  -21.0653   12.5080 C.3       1 MOL     0.0752
     24 C          28.8014  -20.1223   12.9852 C.3       1 MOL     0.0134
     25 C          30.2465  -19.7170   13.0128 C.3       1 MOL     0.0134
     26 C          35.0990  -20.9291    6.8241 C.ar      1 MOL     0.1355
     27 C          35.2969  -20.8529    5.4445 C.ar      1 MOL     0.0392
     28 C          35.2740  -19.6065    4.8064 C.ar      1 MOL     0.0066
     29 O          38.6420  -13.5690    7.0996 O.2       1 MOL    -0.2658
     30 O          28.9065  -20.9751   10.3431 O.2       1 MOL    -0.2753
     31 O          35.6926  -19.5851    9.7255 O.2       1 MOL    -0.2699
     32 F          35.1137  -22.1374    7.4347 F         1 MOL    -0.2047
     33 H          40.0221  -13.9273    4.9657 H         1 MOL     0.0625
     34 H          40.4436  -14.9294    2.7456 H         1 MOL     0.0618
     35 H          38.8059  -16.5096    1.7659 H         1 MOL     0.0618
     36 H          36.7490  -17.0816    3.0029 H         1 MOL     0.0624
     37 H          35.2077  -17.2832    3.7842 H         1 MOL     0.0377
     38 H          34.0168  -16.6801    5.0164 H         1 MOL     0.0377
     39 H          34.6974  -17.6355    7.5147 H         1 MOL     0.0629
     40 H          33.0358  -19.5926   11.4815 H         1 MOL     0.0480
     41 H          34.3990  -20.7637   11.3215 H         1 MOL     0.0480
     42 H          32.1542  -21.7804   12.2725 H         1 MOL     0.0480
     43 H          32.7824  -22.6133   10.8041 H         1 MOL     0.0480
     44 H          30.3079  -21.0979    8.5595 H         1 MOL     0.0480
     45 H          31.7158  -22.2226    8.6479 H         1 MOL     0.0480
     46 H          31.7584  -19.1287    8.9532 H         1 MOL     0.0480
     47 H          32.5455  -20.0709    7.6330 H         1 MOL     0.0480
     48 H          30.1246  -21.9410   13.0315 H         1 MOL     0.0394
     49 H          28.3424  -20.3276   13.9437 H         1 MOL     0.0273
     50 H          28.1840  -19.6627   12.2216 H         1 MOL     0.0273
     51 H          30.7085  -19.6531   13.9892 H         1 MOL     0.0273
     52 H          30.5474  -18.9819   12.2736 H         1 MOL     0.0273
     53 H          35.4698  -21.7546    4.8761 H         1 MOL     0.0646
     54 H          35.4281  -19.5487    3.7389 H         1 MOL     0.0621
     55 H          36.5351  -14.3655    8.0983 H         1 MOL     0.1921
@<TRIPOS>BOND
     1    1   18 1 
     2    1   21 1 
     3    1   17 am
     4    2   20 1 
     5    2   22 am
     6    2   19 1 
     7    3    4 ar
     8    3   12 ar
     9    4   55 1 
    10    4    5 ar
    11    5    6 ar
    12    5   29 2 
    13    6    7 ar
    14    6   11 ar
    15    7    8 ar
    16    7   33 1 
    17    8    9 ar
    18    8   34 1 
    19    9   10 ar
    20    9   35 1 
    21   10   11 ar
    22   10   36 1 
    23   11   12 ar
    24   12   13 1 
    25   13   14 1 
    26   13   37 1 
    27   13   38 1 
    28   14   15 ar
    29   14   28 ar
    30   15   16 ar
    31   15   39 1 
    32   16   17 1 
    33   16   26 ar
    34   17   31 2 
    35   18   19 1 
    36   18   40 1 
    37   18   41 1 
    38   19   42 1 
    39   19   43 1 
    40   20   21 1 
    41   20   44 1 
    42   20   45 1 
    43   21   46 1 
    44   21   47 1 
    45   22   23 1 
    46   22   30 2 
    47   23   24 1 
    48   23   25 1 
    49   23   48 1 
    50   24   25 1 
    51   24   49 1 
    52   24   50 1 
    53   25   51 1 
    54   25   52 1 
    55   26   27 ar
    56   26   32 1 
    57   27   28 ar
    58   27   53 1 
    59   28   54 1 
@<TRIPOS>SUBSTRUCTURE
1 MOL         1
@<TRIPOS>MOLECULE
query molecule
   55    59     1     0     0
SMALL
NO_CHARGE

@<TRIPOS>ATOM
      1 N          44.0289  -15.5273   24.7371 N.am      1 MOL    -0.2945
      2 N          43.2161  -13.3805   26.4668 N.am      1 MOL    -0.2983
      3 N          45.2873  -14.8426   17.0271 N.ar      1 MOL    -0.1750
      4 N          45.3216  -15.1253   15.7278 N.ar      1 MOL    -0.2425
      5 C          44.1311  -15.1962   14.9703 C.ar      1 MOL     0.2725
      6 C          42.9087  -14.9431   15.6339 C.ar      1 MOL     0.0496
      7 C          41.6951  -15.0082   14.9426 C.ar      1 MOL     0.0138
      8 C          40.4910  -14.7616   15.6058 C.ar      1 MOL     0.0008
      9 C          40.4909  -14.4241   16.9549 C.ar      1 MOL     0.0007
     10 C          41.6927  -14.3410   17.6523 C.ar      1 MOL     0.0103
     11 C          42.9189  -14.6093   17.0187 C.ar      1 MOL     0.0106
     12 C          44.1408  -14.5663   17.7164 C.ar      1 MOL     0.0736
     13 C          44.2223  -14.2160   19.1691 C.3       1 MOL     0.0925
     14 C          43.8489  -15.2969   20.1227 C.ar      1 MOL    -0.0406
     15 C          44.3811  -15.2343   21.4260 C.ar      1 MOL     0.0196
     16 C          44.0638  -16.2116   22.3793 C.ar      1 MOL     0.0723
     17 C          44.6751  -16.1471   23.7251 C.2       1 MOL     0.2495
     18 C          44.6896  -15.3550   26.0308 C.3       1 MOL     0.1268
     19 C          44.5832  -13.8726   26.5180 C.3       1 MOL     0.1265
     20 C          42.5052  -13.6168   25.2137 C.3       1 MOL     0.1265
     21 C          42.6549  -15.0676   24.6756 C.3       1 MOL     0.1268
     22 C          42.7034  -12.4047   27.2776 C.2       1 MOL     0.2187
     23 C          43.5282  -11.8147   28.3471 C.3       1 MOL     0.0752
     24 C          43.9774  -12.7176   29.4295 C.3       1 MOL     0.0134
     25 C          42.7674  -11.8655   29.6370 C.3       1 MOL     0.0134
     26 C          43.1990  -17.2492   22.0341 C.ar      1 MOL     0.1355
     27 C          42.6654  -17.3308   20.7479 C.ar      1 MOL     0.0392
     28 C          42.9952  -16.3578   19.8014 C.ar      1 MOL     0.0066
     29 O          44.2187  -15.4566   13.7594 O.2       1 MOL    -0.2658
     30 O          41.5671  -11.9372   27.1003 O.2       1 MOL    -0.2753
     31 O          45.7954  -16.6604   23.8355 O.2       1 MOL    -0.2699
     32 F          42.8730  -18.1988   22.9428 F         1 MOL    -0.2047
     33 H          41.6955  -15.2452   13.8887 H         1 MOL     0.0625
     34 H          39.5620  -14.8299   15.0604 H         1 MOL     0.0618
     35 H          39.5595  -14.2323   17.4603 H         1 MOL     0.0618
     36 H          41.6845  -14.0874   18.7019 H         1 MOL     0.0624
     37 H          43.5526  -13.3486   19.3488 H         1 MOL     0.0377
     38 H          45.2709  -13.9206   19.3865 H         1 MOL     0.0377
     39 H          45.0454  -14.4256   21.6930 H         1 MOL     0.0629
     40 H          45.7500  -15.6859   25.9525 H         1 MOL     0.0480
     41 H          44.1777  -16.0232   26.7669 H         1 MOL     0.0480
     42 H          45.2089  -13.2353   25.8454 H         1 MOL     0.0480
     43 H          44.9793  -13.7680   27.5546 H         1 MOL     0.0480
     44 H          42.9431  -12.9228   24.4475 H         1 MOL     0.0480
     45 H          41.4336  -13.3475   25.3371 H         1 MOL     0.0480
     46 H          42.2997  -15.1384   23.6220 H         1 MOL     0.0480
     47 H          42.0374  -15.7575   25.2986 H         1 MOL     0.0480
     48 H          44.0577  -10.9344   28.0749 H         1 MOL     0.0394
     49 H          44.8694  -12.4111   29.9647 H         1 MOL     0.0273
     50 H          43.8231  -13.7775   29.2850 H         1 MOL     0.0273
     51 H          42.8670  -11.0099   30.2949 H         1 MOL     0.0273
     52 H          41.8165  -12.3860   29.6370 H         1 MOL     0.0273
     53 H          42.0060  -18.1410   20.4814 H         1 MOL     0.0646
     54 H          42.5811  -16.4249   18.8046 H         1 MOL     0.0621
     55 H          46.1784  -15.2936   15.2262 H         1 MOL     0.1921
@<TRIPOS>BOND
     1    1   18 1 
     2    1   21 1 
     3    1   17 am
     4    2   20 1 
     5    2   22 am
     6    2   19 1 
     7    3    4 ar
     8    3   12 ar
     9    4   55 1 
    10    4    5 ar
    11    5    6 ar
    12    5   29 2 
    13    6    7 ar
    14    6   11 ar
    15    7    8 ar
    16    7   33 1 
    17    8    9 ar
    18    8   34 1 
    19    9   10 ar
    20    9   35 1 
    21   10   11 ar
    22   10   36 1 
    23   11   12 ar
    24   12   13 1 
    25   13   14 1 
    26   13   37 1 
    27   13   38 1 
    28   14   15 ar
    29   14   28 ar
    30   15   16 ar
    31   15   39 1 
    32   16   17 1 
    33   16   26 ar
    34   17   31 2 
    35   18   19 1 
    36   18   40 1 
    37   18   41 1 
    38   19   42 1 
    39   19   43 1 
    40   20   21 1 
    41   20   44 1 
    42   20   45 1 
    43   21   46 1 
    44   21   47 1 
    45   22   23 1 
    46   22   30 2 
    47   23   24 1 
    48   23   25 1 
    49   23   48 1 
    50   24   25 1 
    51   24   49 1 
    52   24   50 1 
    53   25   51 1 
    54   25   52 1 
    55   26   27 ar
    56   26   32 1 
    57   27   28 ar
    58   27   53 1 
    59   28   54 1 
@<TRIPOS>SUBSTRUCTURE
1 MOL         1
@<TRIPOS>MOLECULE
query molecule
   55    59     1     0     0
SMALL
NO_CHARGE

@<TRIPOS>ATOM
      1 N          42.1489  -15.9726   14.9254 N.am      1 MOL    -0.2945
      2 N          40.7411  -15.9807   12.4631 N.am      1 MOL    -0.2983
      3 N          42.5519  -16.3093   22.2790 N.ar      1 MOL    -0.1750
      4 N          42.5087  -15.9797   23.5646 N.ar      1 MOL    -0.2425
      5 C          41.6406  -16.6551   24.4490 C.ar      1 MOL     0.2725
      6 C          40.8238  -17.6818   23.9261 C.ar      1 MOL     0.0496
      7 C          39.9510  -18.3951   24.7417 C.ar      1 MOL     0.0138
      8 C          39.1356  -19.3986   24.2250 C.ar      1 MOL     0.0008
      9 C          39.1882  -19.7013   22.8668 C.ar      1 MOL     0.0007
     10 C          40.0577  -18.9998   22.0317 C.ar      1 MOL     0.0103
     11 C          40.8922  -17.9912   22.5395 C.ar      1 MOL     0.0106
     12 C          41.7856  -17.2875   21.7175 C.ar      1 MOL     0.0736
     13 C          41.9150  -17.6005   20.2623 C.3       1 MOL     0.0925
     14 C          41.6248  -16.4516   19.3784 C.ar      1 MOL    -0.0406
     15 C          42.2528  -16.3835   18.1270 C.ar      1 MOL     0.0196
     16 C          41.9965  -15.3118   17.2602 C.ar      1 MOL     0.0723
     17 C          42.6764  -15.2786   15.9541 C.2       1 MOL     0.2495
     18 C          42.9147  -16.1509   13.6997 C.3       1 MOL     0.1268
     19 C          42.1312  -15.5455   12.5002 C.3       1 MOL     0.1265
     20 C          40.0074  -16.0021   13.7275 C.3       1 MOL     0.1265
     21 C          40.8257  -16.5684   14.9141 C.3       1 MOL     0.1268
     22 C          39.9921  -15.9740   11.3179 C.2       1 MOL     0.2187
     23 C          40.6366  -15.5155   10.0628 C.3       1 MOL     0.0752
     24 C          40.5172  -14.0245    9.9895 C.3       1 MOL     0.0134
     25 C          39.7103  -14.9022    9.0789 C.3       1 MOL     0.0134
     26 C          41.1155  -14.3156   17.6471 C.ar      1 MOL     0.1355
     27 C          40.5152  -14.3768   18.8931 C.ar      1 MOL     0.0392
     28 C          40.7435  -15.4386   19.7492 C.ar      1 MOL     0.0066
     29 O          41.6381  -16.3088   25.6413 O.2       1 MOL    -0.2658
     30 O          38.8065  -16.3403   11.2918 O.2       1 MOL    -0.2753
     31 O          43.7330  -14.6428   15.8856 O.2       1 MOL    -0.2699
     32 F          40.8006  -13.2840   16.8378 F         1 MOL    -0.2047
     33 H          39.8994  -18.1608   25.7952 H         1 MOL     0.0625
     34 H          38.4658  -19.9392   24.8772 H         1 MOL     0.0618
     35 H          38.5576  -20.4795   22.4652 H         1 MOL     0.0618
     36 H          40.0895  -19.2377   20.9783 H         1 MOL     0.0624
     37 H          41.2108  -18.4169   20.0147 H         1 MOL     0.0377
     38 H          42.9560  -17.9242   20.0728 H         1 MOL     0.0377
     39 H          42.9411  -17.1575   17.8244 H         1 MOL     0.0629
     40 H          43.0691  -17.2459   13.5453 H         1 MOL     0.0480
     41 H          43.9131  -15.6754   13.8158 H         1 MOL     0.0480
     42 H          42.6213  -15.7931   11.5317 H         1 MOL     0.0480
     43 H          42.1390  -14.4332   12.6137 H         1 MOL     0.0480
     44 H          39.0434  -16.5365   13.5875 H         1 MOL     0.0480
     45 H          39.7603  -14.9368   13.9768 H         1 MOL     0.0480
     46 H          40.9332  -17.6729   14.8021 H         1 MOL     0.0480
     47 H          40.3160  -16.3652   15.8825 H         1 MOL     0.0480
     48 H          41.5389  -15.9976    9.7912 H         1 MOL     0.0394
     49 H          41.3426  -13.4810    9.5493 H         1 MOL     0.0273
     50 H          39.9738  -13.5417   10.7945 H         1 MOL     0.0273
     51 H          40.0187  -14.9116    8.0399 H         1 MOL     0.0273
     52 H          38.6524  -15.0009    9.2842 H         1 MOL     0.0273
     53 H          39.8349  -13.5926   19.1977 H         1 MOL     0.0646
     54 H          40.2414  -15.4825   20.7031 H         1 MOL     0.0621
     55 H          43.0806  -15.2521   23.9553 H         1 MOL     0.1921
@<TRIPOS>BOND
     1    1   18 1 
     2    1   21 1 
     3    1   17 am
     4    2   20 1 
     5    2   22 am
     6    2   19 1 
     7    3    4 ar
     8    3   12 ar
     9    4   55 1 
    10    4    5 ar
    11    5    6 ar
    12    5   29 2 
    13    6    7 ar
    14    6   11 ar
    15    7    8 ar
    16    7   33 1 
    17    8    9 ar
    18    8   34 1 
    19    9   10 ar
    20    9   35 1 
    21   10   11 ar
    22   10   36 1 
    23   11   12 ar
    24   12   13 1 
    25   13   14 1 
    26   13   37 1 
    27   13   38 1 
    28   14   15 ar
    29   14   28 ar
    30   15   16 ar
    31   15   39 1 
    32   16   17 1 
    33   16   26 ar
    34   17   31 2 
    35   18   19 1 
    36   18   40 1 
    37   18   41 1 
    38   19   42 1 
    39   19   43 1 
    40   20   21 1 
    41   20   44 1 
    42   20   45 1 
    43   21   46 1 
    44   21   47 1 
    45   22   23 1 
    46   22   30 2 
    47   23   24 1 
    48   23   25 1 
    49   23   48 1 
    50   24   25 1 
    51   24   49 1 
    52   24   50 1 
    53   25   51 1 
    54   25   52 1 
    55   26   27 ar
    56   26   32 1 
    57   27   28 ar
    58   27   53 1 
    59   28   54 1 
@<TRIPOS>SUBSTRUCTURE
1 MOL         1
@<TRIPOS>MOLECULE
query molecule
   55    59     1     0     0
SMALL
NO_CHARGE

@<TRIPOS>ATOM
      1 N          21.7350  -14.2452   35.3189 N.am      1 MOL    -0.2945
      2 N          21.9061  -11.3603   35.3637 N.am      1 MOL    -0.2983
      3 N          16.4702  -16.7363   31.4698 N.ar      1 MOL    -0.1750
      4 N          15.7029  -16.6421   30.3929 N.ar      1 MOL    -0.2425
      5 C          15.4717  -17.7525   29.5586 C.ar      1 MOL     0.2725
      6 C          15.9908  -19.0023   29.9635 C.ar      1 MOL     0.0496
      7 C          15.7047  -20.1597   29.2392 C.ar      1 MOL     0.0138
      8 C          16.2146  -21.3891   29.6448 C.ar      1 MOL     0.0008
      9 C          17.0241  -21.4666   30.7763 C.ar      1 MOL     0.0007
     10 C          17.3185  -20.3146   31.5093 C.ar      1 MOL     0.0103
     11 C          16.8052  -19.0649   31.1298 C.ar      1 MOL     0.0106
     12 C          17.0677  -17.8944   31.8656 C.ar      1 MOL     0.0736
     13 C          17.9464  -17.8840   33.0745 C.3       1 MOL     0.0925
     14 C          19.2918  -17.2791   32.8827 C.ar      1 MOL    -0.0406
     15 C          19.9276  -16.6624   33.9822 C.ar      1 MOL     0.0196
     16 C          21.2415  -16.1823   33.8738 C.ar      1 MOL     0.0723
     17 C          21.9422  -15.5503   35.0179 C.2       1 MOL     0.2495
     18 C          22.5408  -13.5805   36.3432 C.3       1 MOL     0.1268
     19 C          23.0014  -12.1579   35.9035 C.3       1 MOL     0.1265
     20 C          21.1016  -12.0282   34.3392 C.3       1 MOL     0.1265
     21 C          20.6563  -13.4550   34.7519 C.3       1 MOL     0.1268
     22 C          21.8268   -9.9950   35.4091 C.2       1 MOL     0.2187
     23 C          22.8404   -9.2433   36.1884 C.3       1 MOL     0.0752
     24 C          23.3164   -8.0019   35.5037 C.3       1 MOL     0.0134
     25 C          24.1506   -9.2432   35.4537 C.3       1 MOL     0.0134
     26 C          21.9148  -16.3367   32.6591 C.ar      1 MOL     0.1355
     27 C          21.2726  -16.8756   31.5476 C.ar      1 MOL     0.0392
     28 C          19.9660  -17.3450   31.6584 C.ar      1 MOL     0.0066
     29 O          14.8808  -17.5759   28.4790 O.2       1 MOL    -0.2658
     30 O          20.9293   -9.3635   34.8437 O.2       1 MOL    -0.2753
     31 O          22.7495  -16.2681   35.6201 O.2       1 MOL    -0.2699
     32 F          23.2124  -15.9731   32.5584 F         1 MOL    -0.2047
     33 H          15.0796  -20.0989   28.3538 H         1 MOL     0.0625
     34 H          15.9855  -22.2829   29.0789 H         1 MOL     0.0618
     35 H          17.4211  -22.4216   31.0898 H         1 MOL     0.0618
     36 H          17.9473  -20.3892   32.3867 H         1 MOL     0.0624
     37 H          18.0953  -18.9382   33.3915 H         1 MOL     0.0377
     38 H          17.4251  -17.3273   33.8761 H         1 MOL     0.0377
     39 H          19.4054  -16.5756   34.9249 H         1 MOL     0.0629
     40 H          23.4089  -14.2262   36.6071 H         1 MOL     0.0480
     41 H          21.9054  -13.4774   37.2590 H         1 MOL     0.0480
     42 H          23.7784  -12.2557   35.1005 H         1 MOL     0.0480
     43 H          23.4661  -11.6073   36.7544 H         1 MOL     0.0480
     44 H          21.7283  -12.1026   33.4174 H         1 MOL     0.0480
     45 H          20.2188  -11.3921   34.0971 H         1 MOL     0.0480
     46 H          20.2344  -14.0008   33.8812 H         1 MOL     0.0480
     47 H          19.8607  -13.3692   35.5294 H         1 MOL     0.0480
     48 H          22.8051   -9.3288   37.2359 H         1 MOL     0.0394
     49 H          23.6886   -7.2081   36.1445 H         1 MOL     0.0273
     50 H          22.8174   -7.7064   34.5903 H         1 MOL     0.0273
     51 H          25.0477   -9.2583   36.0618 H         1 MOL     0.0273
     52 H          24.1884   -9.7525   34.4982 H         1 MOL     0.0273
     53 H          21.7922  -16.9437   30.6045 H         1 MOL     0.0646
     54 H          19.4729  -17.7794   30.7997 H         1 MOL     0.0621
     55 H          15.2658  -15.7634   30.1309 H         1 MOL     0.1921
@<TRIPOS>BOND
     1    1   18 1 
     2    1   21 1 
     3    1   17 am
     4    2   20 1 
     5    2   22 am
     6    2   19 1 
     7    3    4 ar
     8    3   12 ar
     9    4   55 1 
    10    4    5 ar
    11    5    6 ar
    12    5   29 2 
    13    6    7 ar
    14    6   11 ar
    15    7    8 ar
    16    7   33 1 
    17    8    9 ar
    18    8   34 1 
    19    9   10 ar
    20    9   35 1 
    21   10   11 ar
    22   10   36 1 
    23   11   12 ar
    24   12   13 1 
    25   13   14 1 
    26   13   37 1 
    27   13   38 1 
    28   14   15 ar
    29   14   28 ar
    30   15   16 ar
    31   15   39 1 
    32   16   17 1 
    33   16   26 ar
    34   17   31 2 
    35   18   19 1 
    36   18   40 1 
    37   18   41 1 
    38   19   42 1 
    39   19   43 1 
    40   20   21 1 
    41   20   44 1 
    42   20   45 1 
    43   21   46 1 
    44   21   47 1 
    45   22   23 1 
    46   22   30 2 
    47   23   24 1 
    48   23   25 1 
    49   23   48 1 
    50   24   25 1 
    51   24   49 1 
    52   24   50 1 
    53   25   51 1 
    54   25   52 1 
    55   26   27 ar
    56   26   32 1 
    57   27   28 ar
    58   27   53 1 
    59   28   54 1 
@<TRIPOS>SUBSTRUCTURE
1 MOL         1
@<TRIPOS>MOLECULE
query molecule
   55    59     1     0     0
SMALL
NO_CHARGE

@<TRIPOS>ATOM
      1 N          32.6612  -19.8331   14.8685 N.am      1 MOL    -0.2945
      2 N          35.0389  -20.5187   16.3152 N.am      1 MOL    -0.2983
      3 N          34.7971  -17.6879    9.3051 N.ar      1 MOL    -0.1750
      4 N          35.5072  -16.5787    9.4682 N.ar      1 MOL    -0.2425
      5 C          36.5632  -16.5248   10.4036 C.ar      1 MOL     0.2725
      6 C          36.7975  -17.6549   11.2151 C.ar      1 MOL     0.0496
      7 C          37.7736  -17.6251   12.2152 C.ar      1 MOL     0.0138
      8 C          38.0028  -18.7490   13.0089 C.ar      1 MOL     0.0008
      9 C          37.2657  -19.9149   12.7998 C.ar      1 MOL     0.0007
     10 C          36.2870  -19.9521   11.8055 C.ar      1 MOL     0.0103
     11 C          36.0198  -18.8281   11.0061 C.ar      1 MOL     0.0106
     12 C          35.0148  -18.8311   10.0188 C.ar      1 MOL     0.0736
     13 C          34.1796  -20.0423    9.7367 C.3       1 MOL     0.0925
     14 C          32.9149  -20.0655   10.5175 C.ar      1 MOL    -0.0406
     15 C          32.8937  -19.7172   11.8740 C.ar      1 MOL     0.0196
     16 C          31.7088  -19.7539   12.6110 C.ar      1 MOL     0.0723
     17 C          31.6872  -19.3754   14.0436 C.2       1 MOL     0.2495
     18 C          33.0165  -19.1033   16.0775 C.3       1 MOL     0.1268
     19 C          34.5380  -19.1607   16.4151 C.3       1 MOL     0.1265
     20 C          34.7682  -21.1801   15.0404 C.3       1 MOL     0.1265
     21 C          33.2499  -21.1596   14.7092 C.3       1 MOL     0.1268
     22 C          35.8929  -21.1090   17.1940 C.2       1 MOL     0.2187
     23 C          36.3281  -20.3478   18.3897 C.3       1 MOL     0.0752
     24 C          36.6671  -21.2384   19.5381 C.3       1 MOL     0.0134
     25 C          35.3828  -20.4637   19.5345 C.3       1 MOL     0.0134
     26 C          30.5309  -20.1453   11.9729 C.ar      1 MOL     0.1355
     27 C          30.5335  -20.5060   10.6248 C.ar      1 MOL     0.0392
     28 C          31.7246  -20.4641    9.8948 C.ar      1 MOL     0.0066
     29 O          37.2524  -15.4997   10.4446 O.2       1 MOL    -0.2658
     30 O          36.3596  -22.2438   16.9984 O.2       1 MOL    -0.2753
     31 O          30.7957  -18.5937   14.3880 O.2       1 MOL    -0.2699
     32 F          29.3658  -20.1854   12.6624 F         1 MOL    -0.2047
     33 H          38.3496  -16.7260   12.3777 H         1 MOL     0.0625
     34 H          38.7526  -18.7185   13.7852 H         1 MOL     0.0618
     35 H          37.4530  -20.7873   13.4089 H         1 MOL     0.0618
     36 H          35.7232  -20.8630   11.6547 H         1 MOL     0.0624
     37 H          34.7696  -20.9406   10.0047 H         1 MOL     0.0377
     38 H          33.9291  -20.0590    8.6601 H         1 MOL     0.0377
     39 H          33.8169  -19.4090   12.3509 H         1 MOL     0.0629
     40 H          32.4656  -19.5808   16.9279 H         1 MOL     0.0480
     41 H          32.6586  -18.0509   15.9975 H         1 MOL     0.0480
     42 H          34.7398  -18.7711   17.4388 H         1 MOL     0.0480
     43 H          35.1053  -18.5286   15.6903 H         1 MOL     0.0480
     44 H          35.1586  -22.2219   15.0778 H         1 MOL     0.0480
     45 H          35.3277  -20.6313   14.2439 H         1 MOL     0.0480
     46 H          32.7242  -21.8484   15.4162 H         1 MOL     0.0480
     47 H          33.0618  -21.5247   13.6748 H         1 MOL     0.0480
     48 H          36.8872  -19.4684   18.1976 H         1 MOL     0.0394
     49 H          37.4488  -20.8990   20.2065 H         1 MOL     0.0273
     50 H          36.5824  -22.3070   19.3752 H         1 MOL     0.0273
     51 H          35.3448  -19.6341   20.2346 H         1 MOL     0.0273
     52 H          34.4776  -21.0361   19.3909 H         1 MOL     0.0273
     53 H          29.6142  -20.8187   10.1528 H         1 MOL     0.0646
     54 H          31.7277  -20.7443    8.8518 H         1 MOL     0.0621
     55 H          35.3332  -15.7299    8.9531 H         1 MOL     0.1921
@<TRIPOS>BOND
     1    1   18 1 
     2    1   21 1 
     3    1   17 am
     4    2   20 1 
     5    2   22 am
     6    2   19 1 
     7    3    4 ar
     8    3   12 ar
     9    4   55 1 
    10    4    5 ar
    11    5    6 ar
    12    5   29 2 
    13    6    7 ar
    14    6   11 ar
    15    7    8 ar
    16    7   33 1 
    17    8    9 ar
    18    8   34 1 
    19    9   10 ar
    20    9   35 1 
    21   10   11 ar
    22   10   36 1 
    23   11   12 ar
    24   12   13 1 
    25   13   14 1 
    26   13   37 1 
    27   13   38 1 
    28   14   15 ar
    29   14   28 ar
    30   15   16 ar
    31   15   39 1 
    32   16   17 1 
    33   16   26 ar
    34   17   31 2 
    35   18   19 1 
    36   18   40 1 
    37   18   41 1 
    38   19   42 1 
    39   19   43 1 
    40   20   21 1 
    41   20   44 1 
    42   20   45 1 
    43   21   46 1 
    44   21   47 1 
    45   22   23 1 
    46   22   30 2 
    47   23   24 1 
    48   23   25 1 
    49   23   48 1 
    50   24   25 1 
    51   24   49 1 
    52   24   50 1 
    53   25   51 1 
    54   25   52 1 
    55   26   27 ar
    56   26   32 1 
    57   27   28 ar
    58   27   53 1 
    59   28   54 1 
@<TRIPOS>SUBSTRUCTURE
1 MOL         1
@<TRIPOS>MOLECULE
query molecule
   55    59     1     0     0
SMALL
NO_CHARGE

@<TRIPOS>ATOM
      1 N          23.2669  -16.6988    3.8660 N.am      1 MOL    -0.2945
      2 N          23.0122  -18.5390    1.6904 N.am      1 MOL    -0.2983
      3 N          23.9412  -15.8676   11.4639 N.ar      1 MOL    -0.1750
      4 N          23.5820  -15.3400   12.6305 N.ar      1 MOL    -0.2425
      5 C          24.2073  -14.1657   13.0872 C.ar      1 MOL     0.2725
      6 C          25.1523  -13.5411   12.2535 C.ar      1 MOL     0.0496
      7 C          25.7809  -12.3639   12.6672 C.ar      1 MOL     0.0138
      8 C          26.7586  -11.7722   11.8716 C.ar      1 MOL     0.0008
      9 C          27.1018  -12.3405   10.6440 C.ar      1 MOL     0.0007
     10 C          26.4658  -13.5057   10.2042 C.ar      1 MOL     0.0103
     11 C          25.4881  -14.1363   10.9957 C.ar      1 MOL     0.0106
     12 C          24.8574  -15.3347   10.6071 C.ar      1 MOL     0.0736
     13 C          25.1950  -16.0259    9.3278 C.3       1 MOL     0.0925
     14 C          24.0460  -16.3526    8.4512 C.ar      1 MOL    -0.0406
     15 C          24.0578  -15.9427    7.1080 C.ar      1 MOL     0.0196
     16 C          22.9839  -16.2586    6.2614 C.ar      1 MOL     0.0723
     17 C          23.0088  -15.8117    4.8542 C.2       1 MOL     0.2495
     18 C          23.3728  -16.2064    2.4935 C.3       1 MOL     0.1268
     19 C          22.6762  -17.1421    1.4621 C.3       1 MOL     0.1265
     20 C          22.8372  -19.0171    3.0642 C.3       1 MOL     0.1265
     21 C          23.5633  -18.1062    4.0914 C.3       1 MOL     0.1268
     22 C          23.1578  -19.4763    0.7121 C.2       1 MOL     0.2187
     23 C          22.9830  -19.0822   -0.7069 C.3       1 MOL     0.0752
     24 C          24.0254  -19.7058   -1.5767 C.3       1 MOL     0.0134
     25 C          24.0826  -18.2434   -1.2504 C.3       1 MOL     0.0134
     26 C          21.8988  -16.9771    6.7631 C.ar      1 MOL     0.1355
     27 C          21.8806  -17.3936    8.0922 C.ar      1 MOL     0.0392
     28 C          22.9555  -17.0893    8.9268 C.ar      1 MOL     0.0066
     29 O          23.9311  -13.7680   14.2397 O.2       1 MOL    -0.2658
     30 O          23.3638  -20.6747    0.9720 O.2       1 MOL    -0.2753
     31 O          22.7957  -14.6092    4.6618 O.2       1 MOL    -0.2699
     32 F          20.8471  -17.2761    5.9628 F         1 MOL    -0.2047
     33 H          25.5052  -11.9230   13.6135 H         1 MOL     0.0625
     34 H          27.2463  -10.8708   12.2104 H         1 MOL     0.0618
     35 H          27.8611  -11.8733   10.0336 H         1 MOL     0.0618
     36 H          26.7388  -13.9295    9.2474 H         1 MOL     0.0624
     37 H          25.7144  -16.9756    9.5719 H         1 MOL     0.0377
     38 H          25.8820  -15.3685    8.7557 H         1 MOL     0.0377
     39 H          24.8973  -15.3852    6.7177 H         1 MOL     0.0629
     40 H          24.4622  -16.1535    2.2393 H         1 MOL     0.0480
     41 H          22.9677  -15.1705    2.4422 H         1 MOL     0.0480
     42 H          22.9703  -16.8605    0.4240 H         1 MOL     0.0480
     43 H          21.5692  -17.0299    1.5473 H         1 MOL     0.0480
     44 H          23.1896  -20.0701    3.1350 H         1 MOL     0.0480
     45 H          21.7408  -19.0084    3.2865 H         1 MOL     0.0480
     46 H          24.6659  -18.2506    3.9881 H         1 MOL     0.0480
     47 H          23.2776  -18.3773    5.1332 H         1 MOL     0.0480
     48 H          21.9803  -18.9924   -1.0417 H         1 MOL     0.0394
     49 H          23.7332  -19.9710   -2.5849 H         1 MOL     0.0273
     50 H          24.7587  -20.3361   -1.0875 H         1 MOL     0.0273
     51 H          23.8269  -17.5692   -2.0609 H         1 MOL     0.0273
     52 H          24.8408  -17.9183   -0.5506 H         1 MOL     0.0273
     53 H          21.0393  -17.9478    8.4794 H         1 MOL     0.0646
     54 H          22.9481  -17.4190    9.9561 H         1 MOL     0.0621
     55 H          22.8701  -15.7451   13.2095 H         1 MOL     0.1921
@<TRIPOS>BOND
     1    1   18 1 
     2    1   21 1 
     3    1   17 am
     4    2   20 1 
     5    2   22 am
     6    2   19 1 
     7    3    4 ar
     8    3   12 ar
     9    4   55 1 
    10    4    5 ar
    11    5    6 ar
    12    5   29 2 
    13    6    7 ar
    14    6   11 ar
    15    7    8 ar
    16    7   33 1 
    17    8    9 ar
    18    8   34 1 
    19    9   10 ar
    20    9   35 1 
    21   10   11 ar
    22   10   36 1 
    23   11   12 ar
    24   12   13 1 
    25   13   14 1 
    26   13   37 1 
    27   13   38 1 
    28   14   15 ar
    29   14   28 ar
    30   15   16 ar
    31   15   39 1 
    32   16   17 1 
    33   16   26 ar
    34   17   31 2 
    35   18   19 1 
    36   18   40 1 
    37   18   41 1 
    38   19   42 1 
    39   19   43 1 
    40   20   21 1 
    41   20   44 1 
    42   20   45 1 
    43   21   46 1 
    44   21   47 1 
    45   22   23 1 
    46   22   30 2 
    47   23   24 1 
    48   23   25 1 
    49   23   48 1 
    50   24   25 1 
    51   24   49 1 
    52   24   50 1 
    53   25   51 1 
    54   25   52 1 
    55   26   27 ar
    56   26   32 1 
    57   27   28 ar
    58   27   53 1 
    59   28   54 1 
@<TRIPOS>SUBSTRUCTURE
1 MOL         1
@<TRIPOS>MOLECULE
query molecule
   55    59     1     0     0
SMALL
NO_CHARGE

@<TRIPOS>ATOM
      1 N           5.3150    3.1414   18.6552 N.am      1 MOL    -0.2945
      2 N           6.8971    4.5539   20.5353 N.am      1 MOL    -0.2983
      3 N           6.0152   -4.5400   19.9821 N.ar      1 MOL    -0.1750
      4 N           5.6413   -5.8102   19.9078 N.ar      1 MOL    -0.2425
      5 C           5.3900   -6.4279   18.6611 C.ar      1 MOL     0.2725
      6 C           5.6278   -5.6735   17.4874 C.ar      1 MOL     0.0496
      7 C           5.4716   -6.2430   16.2190 C.ar      1 MOL     0.0138
      8 C           5.7315   -5.4899   15.0716 C.ar      1 MOL     0.0008
      9 C           6.1378   -4.1605   15.1810 C.ar      1 MOL     0.0007
     10 C           6.2882   -3.5844   16.4395 C.ar      1 MOL     0.0103
     11 C           6.0394   -4.3175   17.6096 C.ar      1 MOL     0.0106
     12 C           6.1739   -3.7425   18.8836 C.ar      1 MOL     0.0736
     13 C           6.4804   -2.2965   19.0952 C.3       1 MOL     0.0925
     14 C           5.4000   -1.3667   18.6822 C.ar      1 MOL    -0.0406
     15 C           5.7475   -0.0361   18.4057 C.ar      1 MOL     0.0196
     16 C           4.7804    0.8685   17.9550 C.ar      1 MOL     0.0723
     17 C           5.1682    2.2588   17.6464 C.2       1 MOL     0.2495
     18 C           5.6622    4.5267   18.3628 C.3       1 MOL     0.1268
     19 C           6.9595    4.9243   19.1251 C.3       1 MOL     0.1265
     20 C           6.4012    3.2157   20.8697 C.3       1 MOL     0.1265
     21 C           5.1274    2.8355   20.0627 C.3       1 MOL     0.1268
     22 C           7.5307    5.2647   21.5156 C.2       1 MOL     0.2187
     23 C           8.2982    6.4736   21.1209 C.3       1 MOL     0.0752
     24 C           9.6925    6.0713   20.7575 C.3       1 MOL     0.0134
     25 C           9.4204    6.8119   22.0329 C.3       1 MOL     0.0134
     26 C           3.4614    0.4493   17.7935 C.ar      1 MOL     0.1355
     27 C           3.0988   -0.8642   18.0886 C.ar      1 MOL     0.0392
     28 C           4.0658   -1.7647   18.5370 C.ar      1 MOL     0.0066
     29 O           4.9740   -7.5934   18.6610 O.2       1 MOL    -0.2658
     30 O           7.4678    4.9466   22.7132 O.2       1 MOL    -0.2753
     31 O           5.3373    2.5405   16.4555 O.2       1 MOL    -0.2699
     32 F           2.5164    1.3133   17.3528 F         1 MOL    -0.2047
     33 H           5.1526   -7.2702   16.1266 H         1 MOL     0.0625
     34 H           5.6152   -5.9361   14.0950 H         1 MOL     0.0618
     35 H           6.3308   -3.5748   14.2943 H         1 MOL     0.0618
     36 H           6.5945   -2.5496   16.5182 H         1 MOL     0.0624
     37 H           7.3949   -2.0488   18.5200 H         1 MOL     0.0377
     38 H           6.6731   -2.1405   20.1759 H         1 MOL     0.0377
     39 H           6.7695    0.2917   18.5326 H         1 MOL     0.0629
     40 H           4.8149    5.1720   18.7004 H         1 MOL     0.0480
     41 H           5.7762    4.6561   17.2640 H         1 MOL     0.0480
     42 H           7.1512    6.0182   19.0413 H         1 MOL     0.0480
     43 H           7.8237    4.3872   18.6635 H         1 MOL     0.0480
     44 H           6.2252    3.1492   21.9664 H         1 MOL     0.0480
     45 H           7.2073    2.4835   20.6091 H         1 MOL     0.0480
     46 H           4.2586    3.4290   20.4363 H         1 MOL     0.0480
     47 H           4.8855    1.7550   20.1782 H         1 MOL     0.0480
     48 H           7.7767    7.1930   20.5468 H         1 MOL     0.0394
     49 H          10.1790    6.6256   19.9648 H         1 MOL     0.0273
     50 H           9.9545    5.0246   20.8637 H         1 MOL     0.0273
     51 H           9.7314    7.8500   22.0558 H         1 MOL     0.0273
     52 H           9.4877    6.2501   22.9559 H         1 MOL     0.0273
     53 H           2.0766   -1.1884   17.9683 H         1 MOL     0.0646
     54 H           3.7874   -2.7852   18.7601 H         1 MOL     0.0621
     55 H           5.5264   -6.3984   20.7195 H         1 MOL     0.1921
@<TRIPOS>BOND
     1    1   18 1 
     2    1   21 1 
     3    1   17 am
     4    2   20 1 
     5    2   22 am
     6    2   19 1 
     7    3    4 ar
     8    3   12 ar
     9    4   55 1 
    10    4    5 ar
    11    5    6 ar
    12    5   29 2 
    13    6    7 ar
    14    6   11 ar
    15    7    8 ar
    16    7   33 1 
    17    8    9 ar
    18    8   34 1 
    19    9   10 ar
    20    9   35 1 
    21   10   11 ar
    22   10   36 1 
    23   11   12 ar
    24   12   13 1 
    25   13   14 1 
    26   13   37 1 
    27   13   38 1 
    28   14   15 ar
    29   14   28 ar
    30   15   16 ar
    31   15   39 1 
    32   16   17 1 
    33   16   26 ar
    34   17   31 2 
    35   18   19 1 
    36   18   40 1 
    37   18   41 1 
    38   19   42 1 
    39   19   43 1 
    40   20   21 1 
    41   20   44 1 
    42   20   45 1 
    43   21   46 1 
    44   21   47 1 
    45   22   23 1 
    46   22   30 2 
    47   23   24 1 
    48   23   25 1 
    49   23   48 1 
    50   24   25 1 
    51   24   49 1 
    52   24   50 1 
    53   25   51 1 
    54   25   52 1 
    55   26   27 ar
    56   26   32 1 
    57   27   28 ar
    58   27   53 1 
    59   28   54 1 
@<TRIPOS>SUBSTRUCTURE
1 MOL         1
@<TRIPOS>MOLECULE
query molecule
   55    59     1     0     0
SMALL
NO_CHARGE

@<TRIPOS>ATOM
      1 N          10.8374   -4.0007    4.9008 N.am      1 MOL    -0.2945
      2 N          11.9163   -5.7845    6.8582 N.am      1 MOL    -0.2983
      3 N          15.2446   -1.6290    3.0568 N.ar      1 MOL    -0.1750
      4 N          16.1971   -1.7244    3.9752 N.ar      1 MOL    -0.2425
      5 C          16.5104   -0.6525    4.8383 C.ar      1 MOL     0.2725
      6 C          15.7774    0.5396    4.7009 C.ar      1 MOL     0.0496
      7 C          16.0296    1.6283    5.5380 C.ar      1 MOL     0.0138
      8 C          15.3120    2.8076    5.3656 C.ar      1 MOL     0.0008
      9 C          14.3368    2.9095    4.3719 C.ar      1 MOL     0.0007
     10 C          14.0740    1.8226    3.5402 C.ar      1 MOL     0.0103
     11 C          14.7800    0.6185    3.6867 C.ar      1 MOL     0.0106
     12 C          14.5308   -0.4871    2.8506 C.ar      1 MOL     0.0736
     13 C          13.5410   -0.4094    1.7405 C.3       1 MOL     0.0925
     14 C          12.5417   -1.4964    1.6903 C.ar      1 MOL    -0.0406
     15 C          11.8486   -1.9476    2.8162 C.ar      1 MOL     0.0196
     16 C          10.8678   -2.9444    2.6949 C.ar      1 MOL     0.0723
     17 C          10.1387   -3.4337    3.8878 C.2       1 MOL     0.2495
     18 C          10.2422   -4.0514    6.2319 C.3       1 MOL     0.1268
     19 C          10.5171   -5.4086    6.9434 C.3       1 MOL     0.1265
     20 C          12.3872   -5.8634    5.4875 C.3       1 MOL     0.1265
     21 C          12.1867   -4.5215    4.7324 C.3       1 MOL     0.1268
     22 C          12.6584   -6.2279    7.9074 C.2       1 MOL     0.2187
     23 C          12.1013   -6.0724    9.2792 C.3       1 MOL     0.0752
     24 C          12.3912   -4.6935    9.7838 C.3       1 MOL     0.0134
     25 C          13.1339   -5.8700   10.3283 C.3       1 MOL     0.0134
     26 C          10.5796   -3.4790    1.4385 C.ar      1 MOL     0.1355
     27 C          11.2808   -3.0538    0.3112 C.ar      1 MOL     0.0392
     28 C          12.2637   -2.0693    0.4377 C.ar      1 MOL     0.0066
     29 O          17.4222   -0.8150    5.6634 O.2       1 MOL    -0.2658
     30 O          13.7654   -6.7691    7.7679 O.2       1 MOL    -0.2753
     31 O           8.9195   -3.2343    3.9216 O.2       1 MOL    -0.2699
     32 F           9.6221   -4.4270    1.3005 F         1 MOL    -0.2047
     33 H          16.7785    1.5578    6.3123 H         1 MOL     0.0625
     34 H          15.5034    3.6516    6.0126 H         1 MOL     0.0618
     35 H          13.7833    3.8289    4.2491 H         1 MOL     0.0618
     36 H          13.3199    1.9086    2.7697 H         1 MOL     0.0624
     37 H          14.1012   -0.4206    0.7824 H         1 MOL     0.0377
     38 H          12.9962    0.5513    1.8378 H         1 MOL     0.0377
     39 H          12.0661   -1.5234    3.7860 H         1 MOL     0.0629
     40 H           9.1472   -3.8620    6.1510 H         1 MOL     0.0480
     41 H          10.6859   -3.2275    6.8416 H         1 MOL     0.0480
     42 H           9.9125   -6.2132    6.4580 H         1 MOL     0.0480
     43 H          10.2190   -5.3563    8.0156 H         1 MOL     0.0480
     44 H          11.8144   -6.6667    4.9664 H         1 MOL     0.0480
     45 H          13.4629   -6.1659    5.4847 H         1 MOL     0.0480
     46 H          12.4003   -4.6341    3.6449 H         1 MOL     0.0480
     47 H          12.9002   -3.7671    5.1454 H         1 MOL     0.0480
     48 H          11.1721   -6.5468    9.4592 H         1 MOL     0.0394
     49 H          11.6595   -4.2362   10.4379 H         1 MOL     0.0273
     50 H          12.9526   -4.0387    9.1274 H         1 MOL     0.0273
     51 H          12.8729   -6.1662   11.3363 H         1 MOL     0.0273
     52 H          14.1657   -5.9789   10.0171 H         1 MOL     0.0273
     53 H          11.0641   -3.4844   -0.6547 H         1 MOL     0.0646
     54 H          12.8079   -1.7414   -0.4362 H         1 MOL     0.0621
     55 H          16.7438   -2.5628    4.0978 H         1 MOL     0.1921
@<TRIPOS>BOND
     1    1   18 1 
     2    1   21 1 
     3    1   17 am
     4    2   20 1 
     5    2   22 am
     6    2   19 1 
     7    3    4 ar
     8    3   12 ar
     9    4   55 1 
    10    4    5 ar
    11    5    6 ar
    12    5   29 2 
    13    6    7 ar
    14    6   11 ar
    15    7    8 ar
    16    7   33 1 
    17    8    9 ar
    18    8   34 1 
    19    9   10 ar
    20    9   35 1 
    21   10   11 ar
    22   10   36 1 
    23   11   12 ar
    24   12   13 1 
    25   13   14 1 
    26   13   37 1 
    27   13   38 1 
    28   14   15 ar
    29   14   28 ar
    30   15   16 ar
    31   15   39 1 
    32   16   17 1 
    33   16   26 ar
    34   17   31 2 
    35   18   19 1 
    36   18   40 1 
    37   18   41 1 
    38   19   42 1 
    39   19   43 1 
    40   20   21 1 
    41   20   44 1 
    42   20   45 1 
    43   21   46 1 
    44   21   47 1 
    45   22   23 1 
    46   22   30 2 
    47   23   24 1 
    48   23   25 1 
    49   23   48 1 
    50   24   25 1 
    51   24   49 1 
    52   24   50 1 
    53   25   51 1 
    54   25   52 1 
    55   26   27 ar
    56   26   32 1 
    57   27   28 ar
    58   27   53 1 
    59   28   54 1 
@<TRIPOS>SUBSTRUCTURE
1 MOL         1
@<TRIPOS>MOLECULE
query molecule
   55    59     1     0     0
SMALL
NO_CHARGE

@<TRIPOS>ATOM
      1 N           9.6764   -2.1734   34.4967 N.am      1 MOL    -0.2945
      2 N          10.4161   -4.8614   35.0773 N.am      1 MOL    -0.2983
      3 N          11.2372    1.0374   30.3440 N.ar      1 MOL    -0.1750
      4 N          12.5055    0.8944   30.0038 N.ar      1 MOL    -0.2425
      5 C          13.1043    1.7533   29.0725 C.ar      1 MOL     0.2725
      6 C          12.3200    2.7845   28.5192 C.ar      1 MOL     0.0496
      7 C          12.8708    3.6704   27.5893 C.ar      1 MOL     0.0138
      8 C          12.0844    4.6763   27.0312 C.ar      1 MOL     0.0008
      9 C          10.7460    4.8078   27.4158 C.ar      1 MOL     0.0007
     10 C          10.1919    3.9326   28.3482 C.ar      1 MOL     0.0103
     11 C          10.9580    2.9081   28.9269 C.ar      1 MOL     0.0106
     12 C          10.4165    2.0139   29.8774 C.ar      1 MOL     0.0736
     13 C           9.0107    2.1407   30.3762 C.3       1 MOL     0.0925
     14 C           8.4902    0.9543   31.1084 C.ar      1 MOL    -0.0406
     15 C           9.0353    0.5592   32.3361 C.ar      1 MOL     0.0196
     16 C           8.5382   -0.5556   33.0276 C.ar      1 MOL     0.0723
     17 C           9.1832   -0.9271   34.3032 C.2       1 MOL     0.2495
     18 C          10.2485   -2.5133   35.8004 C.3       1 MOL     0.1268
     19 C          10.0341   -4.0112   36.1880 C.3       1 MOL     0.1265
     20 C           9.6623   -4.6070   33.8626 C.3       1 MOL     0.1265
     21 C           9.8371   -3.1336   33.4181 C.3       1 MOL     0.1268
     22 C          11.4683   -5.7367   35.0594 C.2       1 MOL     0.2187
     23 C          12.2415   -5.8725   36.3181 C.3       1 MOL     0.0752
     24 C          13.5265   -6.5921   36.1291 C.3       1 MOL     0.0134
     25 C          12.3648   -7.2740   36.7933 C.3       1 MOL     0.0134
     26 C           7.4539   -1.2473   32.4960 C.ar      1 MOL     0.1355
     27 C           6.8821   -0.8545   31.2892 C.ar      1 MOL     0.0392
     28 C           7.4105    0.2328   30.5811 C.ar      1 MOL     0.0066
     29 O          14.2898    1.5479   28.7686 O.2       1 MOL    -0.2658
     30 O          11.8063   -6.3501   34.0397 O.2       1 MOL    -0.2753
     31 O           9.2444   -0.0344   35.1575 O.2       1 MOL    -0.2699
     32 F           6.9389   -2.3243   33.1445 F         1 MOL    -0.2047
     33 H          13.9058    3.5676   27.2913 H         1 MOL     0.0625
     34 H          12.5066    5.3556   26.3062 H         1 MOL     0.0618
     35 H          10.1368    5.5887   26.9770 H         1 MOL     0.0618
     36 H           9.1538    4.0530   28.6374 H         1 MOL     0.0624
     37 H           8.3460    2.3402   29.5136 H         1 MOL     0.0377
     38 H           8.9783    2.9989   31.0787 H         1 MOL     0.0377
     39 H           9.8624    1.1178   32.7551 H         1 MOL     0.0629
     40 H           9.8383   -1.8252   36.5710 H         1 MOL     0.0480
     41 H          11.3523   -2.3400   35.7457 H         1 MOL     0.0480
     42 H           8.9476   -4.1806   36.3908 H         1 MOL     0.0480
     43 H          10.6018   -4.2947   37.0994 H         1 MOL     0.0480
     44 H           8.5815   -4.8095   34.0686 H         1 MOL     0.0480
     45 H          10.0051   -5.3099   33.0651 H         1 MOL     0.0480
     46 H           9.1833   -2.8638   32.5628 H         1 MOL     0.0480
     47 H          10.9027   -3.0596   33.0732 H         1 MOL     0.0480
     48 H          12.1428   -5.0649   37.0025 H         1 MOL     0.0394
     49 H          14.3514   -6.2919   36.7668 H         1 MOL     0.0273
     50 H          13.7598   -6.9110   35.1208 H         1 MOL     0.0273
     51 H          12.4595   -7.4260   37.8640 H         1 MOL     0.0273
     52 H          11.8594   -8.0467   36.2257 H         1 MOL     0.0273
     53 H           6.0367   -1.3990   30.8878 H         1 MOL     0.0646
     54 H           6.9844    0.5136   29.6298 H         1 MOL     0.0621
     55 H          13.1009    0.1788   30.3925 H         1 MOL     0.1921
@<TRIPOS>BOND
     1    1   18 1 
     2    1   21 1 
     3    1   17 am
     4    2   20 1 
     5    2   22 am
     6    2   19 1 
     7    3    4 ar
     8    3   12 ar
     9    4   55 1 
    10    4    5 ar
    11    5    6 ar
    12    5   29 2 
    13    6    7 ar
    14    6   11 ar
    15    7    8 ar
    16    7   33 1 
    17    8    9 ar
    18    8   34 1 
    19    9   10 ar
    20    9   35 1 
    21   10   11 ar
    22   10   36 1 
    23   11   12 ar
    24   12   13 1 
    25   13   14 1 
    26   13   37 1 
    27   13   38 1 
    28   14   15 ar
    29   14   28 ar
    30   15   16 ar
    31   15   39 1 
    32   16   17 1 
    33   16   26 ar
    34   17   31 2 
    35   18   19 1 
    36   18   40 1 
    37   18   41 1 
    38   19   42 1 
    39   19   43 1 
    40   20   21 1 
    41   20   44 1 
    42   20   45 1 
    43   21   46 1 
    44   21   47 1 
    45   22   23 1 
    46   22   30 2 
    47   23   24 1 
    48   23   25 1 
    49   23   48 1 
    50   24   25 1 
    51   24   49 1 
    52   24   50 1 
    53   25   51 1 
    54   25   52 1 
    55   26   27 ar
    56   26   32 1 
    57   27   28 ar
    58   27   53 1 
    59   28   54 1 
@<TRIPOS>SUBSTRUCTURE
1 MOL         1
@<TRIPOS>MOLECULE
query molecule
   55    59     1     0     0
SMALL
NO_CHARGE

@<TRIPOS>ATOM
      1 N          16.8867  -17.9255   11.7368 N.am      1 MOL    -0.2945
      2 N          19.1786  -16.4144   12.6131 N.am      1 MOL    -0.2983
      3 N          15.7596  -21.4727   15.3218 N.ar      1 MOL    -0.1750
      4 N          16.8649  -21.6578   16.0302 N.ar      1 MOL    -0.2425
      5 C          16.9134  -21.3317   17.4039 C.ar      1 MOL     0.2725
      6 C          15.7586  -20.7705   17.9954 C.ar      1 MOL     0.0496
      7 C          15.7370  -20.3918   19.3373 C.ar      1 MOL     0.0138
      8 C          14.6002  -19.8201   19.9033 C.ar      1 MOL     0.0008
      9 C          13.4531  -19.6496   19.1341 C.ar      1 MOL     0.0007
     10 C          13.4440  -20.0316   17.7935 C.ar      1 MOL     0.0103
     11 C          14.5893  -20.5865   17.1990 C.ar      1 MOL     0.0106
     12 C          14.6073  -20.9671   15.8479 C.ar      1 MOL     0.0736
     13 C          13.4060  -20.8442   14.9708 C.3       1 MOL     0.0925
     14 C          13.4763  -19.6501   14.0946 C.ar      1 MOL    -0.0406
     15 C          14.4916  -19.5071   13.1396 C.ar      1 MOL     0.0196
     16 C          14.5315  -18.3872   12.3137 C.ar      1 MOL     0.0723
     17 C          15.6188  -18.1695   11.3250 C.2       1 MOL     0.2495
     18 C          17.9336  -17.5869   10.7692 C.3       1 MOL     0.1268
     19 C          18.7894  -16.3517   11.2136 C.3       1 MOL     0.1265
     20 C          18.0954  -16.7404   13.5295 C.3       1 MOL     0.1265
     21 C          17.3273  -18.0226   13.1171 C.3       1 MOL     0.1268
     22 C          20.3401  -15.9331   13.1385 C.2       1 MOL     0.2187
     23 C          21.3570  -15.3518   12.2239 C.3       1 MOL     0.0752
     24 C          22.7137  -15.2504   12.8322 C.3       1 MOL     0.0134
     25 C          21.8213  -14.0448   12.7781 C.3       1 MOL     0.0134
     26 C          13.5227  -17.4183   12.4313 C.ar      1 MOL     0.1355
     27 C          12.5160  -17.5402   13.3901 C.ar      1 MOL     0.0392
     28 C          12.4925  -18.6599   14.2250 C.ar      1 MOL     0.0066
     29 O          17.9694  -21.5730   18.0137 O.2       1 MOL    -0.2658
     30 O          20.6014  -15.9846   14.3533 O.2       1 MOL    -0.2753
     31 O          15.2790  -18.1650   10.1353 O.2       1 MOL    -0.2699
     32 F          13.5136  -16.3426   11.6075 F         1 MOL    -0.2047
     33 H          16.6188  -20.5316   19.9467 H         1 MOL     0.0625
     34 H          14.6037  -19.5118   20.9359 H         1 MOL     0.0618
     35 H          12.5663  -19.2199   19.5779 H         1 MOL     0.0618
     36 H          12.5451  -19.8962   17.2076 H         1 MOL     0.0624
     37 H          12.5083  -20.7609   15.6099 H         1 MOL     0.0377
     38 H          13.3449  -21.7438   14.3312 H         1 MOL     0.0377
     39 H          15.2524  -20.2690   13.0447 H         1 MOL     0.0629
     40 H          17.4707  -17.4146    9.7708 H         1 MOL     0.0480
     41 H          18.6118  -18.4716   10.6798 H         1 MOL     0.0480
     42 H          18.1681  -15.4294   11.0834 H         1 MOL     0.0480
     43 H          19.6981  -16.2373   10.5814 H         1 MOL     0.0480
     44 H          17.3821  -15.8812   13.5448 H         1 MOL     0.0480
     45 H          18.5121  -16.8548   14.5595 H         1 MOL     0.0480
     46 H          16.4433  -18.1964   13.7711 H         1 MOL     0.0480
     47 H          17.9995  -18.9104   13.2045 H         1 MOL     0.0480
     48 H          21.1915  -15.4756   11.1876 H         1 MOL     0.0394
     49 H          23.5749  -15.2178   12.1785 H         1 MOL     0.0273
     50 H          22.8466  -15.6840   13.8174 H         1 MOL     0.0273
     51 H          22.0691  -13.2645   12.0725 H         1 MOL     0.0273
     52 H          21.3699  -13.7468   13.7147 H         1 MOL     0.0273
     53 H          11.7577  -16.7777   13.4849 H         1 MOL     0.0646
     54 H          11.7121  -18.7650   14.9650 H         1 MOL     0.0621
     55 H          17.7077  -22.0331   15.6315 H         1 MOL     0.1921
@<TRIPOS>BOND
     1    1   18 1 
     2    1   21 1 
     3    1   17 am
     4    2   20 1 
     5    2   22 am
     6    2   19 1 
     7    3    4 ar
     8    3   12 ar
     9    4   55 1 
    10    4    5 ar
    11    5    6 ar
    12    5   29 2 
    13    6    7 ar
    14    6   11 ar
    15    7    8 ar
    16    7   33 1 
    17    8    9 ar
    18    8   34 1 
    19    9   10 ar
    20    9   35 1 
    21   10   11 ar
    22   10   36 1 
    23   11   12 ar
    24   12   13 1 
    25   13   14 1 
    26   13   37 1 
    27   13   38 1 
    28   14   15 ar
    29   14   28 ar
    30   15   16 ar
    31   15   39 1 
    32   16   17 1 
    33   16   26 ar
    34   17   31 2 
    35   18   19 1 
    36   18   40 1 
    37   18   41 1 
    38   19   42 1 
    39   19   43 1 
    40   20   21 1 
    41   20   44 1 
    42   20   45 1 
    43   21   46 1 
    44   21   47 1 
    45   22   23 1 
    46   22   30 2 
    47   23   24 1 
    48   23   25 1 
    49   23   48 1 
    50   24   25 1 
    51   24   49 1 
    52   24   50 1 
    53   25   51 1 
    54   25   52 1 
    55   26   27 ar
    56   26   32 1 
    57   27   28 ar
    58   27   53 1 
    59   28   54 1 
@<TRIPOS>SUBSTRUCTURE
1 MOL         1
@<TRIPOS>MOLECULE
query molecule
   55    59     1     0     0
SMALL
NO_CHARGE

@<TRIPOS>ATOM
      1 N          34.5076  -19.2469   15.3150 N.am      1 MOL    -0.2945
      2 N          32.8941  -19.9650   13.0426 N.am      1 MOL    -0.2983
      3 N          39.4519  -15.5027   16.3718 N.ar      1 MOL    -0.1750
      4 N          39.8812  -14.4803   17.1009 N.ar      1 MOL    -0.2425
      5 C          41.2509  -14.1369   17.1293 C.ar      1 MOL     0.2725
      6 C          42.1447  -14.9017   16.3415 C.ar      1 MOL     0.0496
      7 C          43.5115  -14.5963   16.2982 C.ar      1 MOL     0.0138
      8 C          44.3774  -15.3430   15.4964 C.ar      1 MOL     0.0008
      9 C          43.8858  -16.4110   14.7441 C.ar      1 MOL     0.0007
     10 C          42.5279  -16.7309   14.7864 C.ar      1 MOL     0.0103
     11 C          41.6319  -15.9894   15.5746 C.ar      1 MOL     0.0106
     12 C          40.2583  -16.2970   15.6122 C.ar      1 MOL     0.0736
     13 C          39.6821  -17.4335   14.8262 C.3       1 MOL     0.0925
     14 C          38.9235  -18.4082   15.6493 C.ar      1 MOL    -0.0406
     15 C          37.5283  -18.3581   15.6627 C.ar      1 MOL     0.0196
     16 C          36.7430  -19.2467   16.4016 C.ar      1 MOL     0.0723
     17 C          35.2635  -19.1275   16.4391 C.2       1 MOL     0.2495
     18 C          33.0762  -19.5238   15.4817 C.3       1 MOL     0.1268
     19 C          32.4834  -20.4290   14.3562 C.3       1 MOL     0.1265
     20 C          34.3351  -19.7854   12.8589 C.3       1 MOL     0.1265
     21 C          34.9985  -18.9646   13.9809 C.3       1 MOL     0.1268
     22 C          32.1700  -20.1407   11.8955 C.2       1 MOL     0.2187
     23 C          31.0951  -21.1611   11.9049 C.3       1 MOL     0.0752
     24 C          30.3700  -21.2237   10.6006 C.3       1 MOL     0.0134
     25 C          29.7162  -20.6328   11.8175 C.3       1 MOL     0.0134
     26 C          37.4094  -20.2327   17.1405 C.ar      1 MOL     0.1355
     27 C          38.8083  -20.3132   17.1406 C.ar      1 MOL     0.0392
     28 C          39.5652  -19.3973   16.3972 C.ar      1 MOL     0.0066
     29 O          41.5988  -13.1811   17.8375 O.2       1 MOL    -0.2658
     30 O          32.4635  -19.5559   10.8403 O.2       1 MOL    -0.2753
     31 O          34.7608  -18.9836   17.5627 O.2       1 MOL    -0.2699
     32 F          36.7029  -21.1310   17.8692 F         1 MOL    -0.2047
     33 H          43.8970  -13.7720   16.8806 H         1 MOL     0.0625
     34 H          45.4282  -15.0965   15.4581 H         1 MOL     0.0618
     35 H          44.5559  -16.9941   14.1295 H         1 MOL     0.0618
     36 H          42.1578  -17.5635   14.2032 H         1 MOL     0.0624
     37 H          40.5118  -17.9684   14.3253 H         1 MOL     0.0377
     38 H          38.9933  -17.0143   14.0667 H         1 MOL     0.0377
     39 H          37.0303  -17.5927   15.0783 H         1 MOL     0.0629
     40 H          32.5251  -18.5504   15.4659 H         1 MOL     0.0480
     41 H          32.9170  -19.9800   16.4881 H         1 MOL     0.0480
     42 H          31.3697  -20.4332   14.4071 H         1 MOL     0.0480
     43 H          32.8420  -21.4785   14.4805 H         1 MOL     0.0480
     44 H          34.5173  -19.3152   11.8645 H         1 MOL     0.0480
     45 H          34.8025  -20.8005   12.8495 H         1 MOL     0.0480
     46 H          34.7737  -17.8877   13.7616 H         1 MOL     0.0480
     47 H          36.1069  -19.0766   13.9689 H         1 MOL     0.0480
     48 H          31.3207  -22.0536   12.4377 H         1 MOL     0.0394
     49 H          30.0461  -22.2037   10.2736 H         1 MOL     0.0273
     50 H          30.6905  -20.5308    9.8311 H         1 MOL     0.0273
     51 H          28.9311  -21.2372   12.2605 H         1 MOL     0.0273
     52 H          29.5854  -19.5601   11.8351 H         1 MOL     0.0273
     53 H          39.3075  -21.0827   17.7120 H         1 MOL     0.0646
     54 H          40.6435  -19.4593   16.3966 H         1 MOL     0.0621
     55 H          39.2622  -13.9125   17.6560 H         1 MOL     0.1921
@<TRIPOS>BOND
     1    1   18 1 
     2    1   21 1 
     3    1   17 am
     4    2   20 1 
     5    2   22 am
     6    2   19 1 
     7    3    4 ar
     8    3   12 ar
     9    4   55 1 
    10    4    5 ar
    11    5    6 ar
    12    5   29 2 
    13    6    7 ar
    14    6   11 ar
    15    7    8 ar
    16    7   33 1 
    17    8    9 ar
    18    8   34 1 
    19    9   10 ar
    20    9   35 1 
    21   10   11 ar
    22   10   36 1 
    23   11   12 ar
    24   12   13 1 
    25   13   14 1 
    26   13   37 1 
    27   13   38 1 
    28   14   15 ar
    29   14   28 ar
    30   15   16 ar
    31   15   39 1 
    32   16   17 1 
    33   16   26 ar
    34   17   31 2 
    35   18   19 1 
    36   18   40 1 
    37   18   41 1 
    38   19   42 1 
    39   19   43 1 
    40   20   21 1 
    41   20   44 1 
    42   20   45 1 
    43   21   46 1 
    44   21   47 1 
    45   22   23 1 
    46   22   30 2 
    47   23   24 1 
    48   23   25 1 
    49   23   48 1 
    50   24   25 1 
    51   24   49 1 
    52   24   50 1 
    53   25   51 1 
    54   25   52 1 
    55   26   27 ar
    56   26   32 1 
    57   27   28 ar
    58   27   53 1 
    59   28   54 1 
@<TRIPOS>SUBSTRUCTURE
1 MOL         1
@<TRIPOS>MOLECULE
query molecule
   55    59     1     0     0
SMALL
NO_CHARGE

@<TRIPOS>ATOM
      1 N           5.9865   -2.1644   18.6431 N.am      1 MOL    -0.2945
      2 N           4.8157    0.3789   19.1627 N.am      1 MOL    -0.2983
      3 N           7.3426   -4.7438   14.0960 N.ar      1 MOL    -0.1750
      4 N           8.5870   -4.5768   13.6727 N.ar      1 MOL    -0.2425
      5 C           9.3150   -5.6699   13.1520 C.ar      1 MOL     0.2725
      6 C           8.6608   -6.9209   13.0495 C.ar      1 MOL     0.0496
      7 C           9.3116   -8.0174   12.4752 C.ar      1 MOL     0.0138
      8 C           8.6704   -9.2502   12.3671 C.ar      1 MOL     0.0008
      9 C           7.3626   -9.3932   12.8303 C.ar      1 MOL     0.0007
     10 C           6.6968   -8.3066   13.4055 C.ar      1 MOL     0.0103
     11 C           7.3239   -7.0538   13.5260 C.ar      1 MOL     0.0106
     12 C           6.6757   -5.9356   14.0874 C.ar      1 MOL     0.0736
     13 C           5.2900   -6.0260   14.6301 C.3       1 MOL     0.0925
     14 C           5.1495   -5.7530   16.0808 C.ar      1 MOL    -0.0406
     15 C           5.8432   -4.7450   16.7550 C.ar      1 MOL     0.0196
     16 C           5.6250   -4.5265   18.1188 C.ar      1 MOL     0.0723
     17 C           6.3510   -3.4521   18.8127 C.2       1 MOL     0.2495
     18 C           6.8232   -1.0742   19.1382 C.3       1 MOL     0.1268
     19 C           5.9993    0.0012   19.9114 C.3       1 MOL     0.1265
     20 C           3.9484   -0.7324   18.7666 C.3       1 MOL     0.1265
     21 C           4.7700   -1.7713   17.9376 C.3       1 MOL     0.1268
     22 C           4.4957    1.6367   18.7611 C.2       1 MOL     0.2187
     23 C           5.5176    2.7039   18.8685 C.3       1 MOL     0.0752
     24 C           5.4896    3.4461   20.1553 C.3       1 MOL     0.0134
     25 C           4.8991    4.0624   18.9216 C.3       1 MOL     0.0134
     26 C           4.7244   -5.3253   18.8219 C.ar      1 MOL     0.1355
     27 C           4.0246   -6.3352   18.1641 C.ar      1 MOL     0.0392
     28 C           4.2365   -6.5474   16.7984 C.ar      1 MOL     0.0066
     29 O          10.4891   -5.4730   12.8084 O.2       1 MOL    -0.2658
     30 O           3.4097    1.8997   18.2185 O.2       1 MOL    -0.2753
     31 O           7.2737   -3.8415   19.5293 O.2       1 MOL    -0.2699
     32 F           4.5129   -5.1202   20.1438 F         1 MOL    -0.2047
     33 H          10.3262   -7.9053   12.1214 H         1 MOL     0.0625
     34 H           9.1892  -10.0889   11.9257 H         1 MOL     0.0618
     35 H           6.8657  -10.3482   12.7374 H         1 MOL     0.0618
     36 H           5.6811   -8.4356   13.7550 H         1 MOL     0.0624
     37 H           4.9289   -7.0621   14.4544 H         1 MOL     0.0377
     38 H           4.6470   -5.3151   14.0746 H         1 MOL     0.0377
     39 H           6.5505   -4.1242   16.2229 H         1 MOL     0.0629
     40 H           7.3072   -0.5801   18.2595 H         1 MOL     0.0480
     41 H           7.6353   -1.4885   19.7771 H         1 MOL     0.0480
     42 H           6.6038    0.9069   20.1359 H         1 MOL     0.0480
     43 H           5.6640   -0.4371   20.8852 H         1 MOL     0.0480
     44 H           3.0915   -0.3388   18.1760 H         1 MOL     0.0480
     45 H           3.5452   -1.2135   19.6887 H         1 MOL     0.0480
     46 H           5.0751   -1.2967   16.9719 H         1 MOL     0.0480
     47 H           4.1709   -2.6799   17.7076 H         1 MOL     0.0480
     48 H           6.4165    2.5276   18.3346 H         1 MOL     0.0394
     49 H           6.4365    3.8552   20.4908 H         1 MOL     0.0273
     50 H           4.7994    3.1015   20.9136 H         1 MOL     0.0273
     51 H           5.4555    4.8646   18.4546 H         1 MOL     0.0273
     52 H           3.8169    4.1172   18.8827 H         1 MOL     0.0273
     53 H           3.3143   -6.9450   18.7005 H         1 MOL     0.0646
     54 H           3.6863   -7.3214   16.2822 H         1 MOL     0.0621
     55 H           9.0638   -3.6894   13.6867 H         1 MOL     0.1921
@<TRIPOS>BOND
     1    1   18 1 
     2    1   21 1 
     3    1   17 am
     4    2   20 1 
     5    2   22 am
     6    2   19 1 
     7    3    4 ar
     8    3   12 ar
     9    4   55 1 
    10    4    5 ar
    11    5    6 ar
    12    5   29 2 
    13    6    7 ar
    14    6   11 ar
    15    7    8 ar
    16    7   33 1 
    17    8    9 ar
    18    8   34 1 
    19    9   10 ar
    20    9   35 1 
    21   10   11 ar
    22   10   36 1 
    23   11   12 ar
    24   12   13 1 
    25   13   14 1 
    26   13   37 1 
    27   13   38 1 
    28   14   15 ar
    29   14   28 ar
    30   15   16 ar
    31   15   39 1 
    32   16   17 1 
    33   16   26 ar
    34   17   31 2 
    35   18   19 1 
    36   18   40 1 
    37   18   41 1 
    38   19   42 1 
    39   19   43 1 
    40   20   21 1 
    41   20   44 1 
    42   20   45 1 
    43   21   46 1 
    44   21   47 1 
    45   22   23 1 
    46   22   30 2 
    47   23   24 1 
    48   23   25 1 
    49   23   48 1 
    50   24   25 1 
    51   24   49 1 
    52   24   50 1 
    53   25   51 1 
    54   25   52 1 
    55   26   27 ar
    56   26   32 1 
    57   27   28 ar
    58   27   53 1 
    59   28   54 1 
@<TRIPOS>SUBSTRUCTURE
1 MOL         1
@<TRIPOS>MOLECULE
query molecule
   55    59     1     0     0
SMALL
NO_CHARGE

@<TRIPOS>ATOM
      1 N           6.2250   -4.2032   35.8032 N.am      1 MOL    -0.2945
      2 N           4.0989   -5.6078   34.5647 N.am      1 MOL    -0.2983
      3 N          12.0324   -6.9226   33.4021 N.ar      1 MOL    -0.1750
      4 N          11.9330   -7.9125   32.5282 N.ar      1 MOL    -0.2425
      5 C          11.6464   -9.2256   32.9414 C.ar      1 MOL     0.2725
      6 C          11.5329   -9.4757   34.3242 C.ar      1 MOL     0.0496
      7 C          11.2756  -10.7661   34.7923 C.ar      1 MOL     0.0138
      8 C          11.1558  -10.9992   36.1621 C.ar      1 MOL     0.0008
      9 C          11.2871   -9.9441   37.0674 C.ar      1 MOL     0.0007
     10 C          11.5411   -8.6503   36.6080 C.ar      1 MOL     0.0103
     11 C          11.6746   -8.3877   35.2367 C.ar      1 MOL     0.0106
     12 C          11.9200   -7.0923   34.7491 C.ar      1 MOL     0.0736
     13 C          12.0716   -5.9030   35.6400 C.3       1 MOL     0.0925
     14 C          11.0014   -4.8907   35.4453 C.ar      1 MOL    -0.0406
     15 C           9.6991   -5.1271   35.8964 C.ar      1 MOL     0.0196
     16 C           8.6949   -4.1424   35.7814 C.ar      1 MOL     0.0723
     17 C           7.3965   -4.4307   36.4123 C.2       1 MOL     0.2495
     18 C           4.9822   -4.3769   36.5565 C.3       1 MOL     0.1268
     19 C           4.2421   -5.6394   36.0177 C.3       1 MOL     0.1265
     20 C           5.2187   -5.0944   33.7749 C.3       1 MOL     0.1265
     21 C           5.9963   -3.9192   34.4079 C.3       1 MOL     0.1268
     22 C           3.1800   -6.3685   33.8887 C.2       1 MOL     0.2187
     23 C           2.2950   -7.2769   34.6639 C.3       1 MOL     0.0752
     24 C           2.9555   -8.6005   34.8957 C.3       1 MOL     0.0134
     25 C           1.8391   -8.4732   33.9017 C.3       1 MOL     0.0134
     26 C           9.0057   -2.9427   35.1499 C.ar      1 MOL     0.1355
     27 C          10.2973   -2.7000   34.6734 C.ar      1 MOL     0.0392
     28 C          11.2942   -3.6672   34.8352 C.ar      1 MOL     0.0066
     29 O          11.4858  -10.0896   32.0654 O.2       1 MOL    -0.2658
     30 O           3.0448   -6.3060   32.6549 O.2       1 MOL    -0.2753
     31 O           7.4680   -4.8976   37.5601 O.2       1 MOL    -0.2699
     32 F           8.0718   -1.9726   35.0062 F         1 MOL    -0.2047
     33 H          11.1613  -11.5815   34.0932 H         1 MOL     0.0625
     34 H          10.9597  -11.9982   36.5235 H         1 MOL     0.0618
     35 H          11.1923  -10.1282   38.1276 H         1 MOL     0.0618
     36 H          11.6315   -7.8380   37.3161 H         1 MOL     0.0624
     37 H          13.0453   -5.4272   35.4131 H         1 MOL     0.0377
     38 H          12.0492   -6.2400   36.6939 H         1 MOL     0.0377
     39 H           9.4615   -6.0772   36.3563 H         1 MOL     0.0629
     40 H           4.3491   -3.4699   36.4046 H         1 MOL     0.0480
     41 H           5.2117   -4.4643   37.6401 H         1 MOL     0.0480
     42 H           3.2403   -5.7591   36.4854 H         1 MOL     0.0480
     43 H           4.8554   -6.5352   36.2838 H         1 MOL     0.0480
     44 H           4.8628   -4.8536   32.7468 H         1 MOL     0.0480
     45 H           5.9559   -5.9378   33.6754 H         1 MOL     0.0480
     46 H           5.3954   -2.9822   34.3293 H         1 MOL     0.0480
     47 H           6.9679   -3.7520   33.8935 H         1 MOL     0.0480
     48 H           1.7024   -6.8210   35.4155 H         1 MOL     0.0394
     49 H           2.7199   -9.1133   35.8215 H         1 MOL     0.0273
     50 H           3.9459   -8.7476   34.4839 H         1 MOL     0.0273
     51 H           0.8892   -8.9068   34.1967 H         1 MOL     0.0273
     52 H           2.1084   -8.5299   32.8555 H         1 MOL     0.0273
     53 H          10.5242   -1.7612   34.1897 H         1 MOL     0.0646
     54 H          12.2953   -3.4647   34.4828 H         1 MOL     0.0621
     55 H          12.0874   -7.7737   31.5447 H         1 MOL     0.1921
@<TRIPOS>BOND
     1    1   18 1 
     2    1   21 1 
     3    1   17 am
     4    2   20 1 
     5    2   22 am
     6    2   19 1 
     7    3    4 ar
     8    3   12 ar
     9    4   55 1 
    10    4    5 ar
    11    5    6 ar
    12    5   29 2 
    13    6    7 ar
    14    6   11 ar
    15    7    8 ar
    16    7   33 1 
    17    8    9 ar
    18    8   34 1 
    19    9   10 ar
    20    9   35 1 
    21   10   11 ar
    22   10   36 1 
    23   11   12 ar
    24   12   13 1 
    25   13   14 1 
    26   13   37 1 
    27   13   38 1 
    28   14   15 ar
    29   14   28 ar
    30   15   16 ar
    31   15   39 1 
    32   16   17 1 
    33   16   26 ar
    34   17   31 2 
    35   18   19 1 
    36   18   40 1 
    37   18   41 1 
    38   19   42 1 
    39   19   43 1 
    40   20   21 1 
    41   20   44 1 
    42   20   45 1 
    43   21   46 1 
    44   21   47 1 
    45   22   23 1 
    46   22   30 2 
    47   23   24 1 
    48   23   25 1 
    49   23   48 1 
    50   24   25 1 
    51   24   49 1 
    52   24   50 1 
    53   25   51 1 
    54   25   52 1 
    55   26   27 ar
    56   26   32 1 
    57   27   28 ar
    58   27   53 1 
    59   28   54 1 
@<TRIPOS>SUBSTRUCTURE
1 MOL         1
@<TRIPOS>MOLECULE
query molecule
   55    59     1     0     0
SMALL
NO_CHARGE

@<TRIPOS>ATOM
      1 N           6.8559    3.5007   25.1754 N.am      1 MOL    -0.2945
      2 N           5.9906    1.1618   26.5639 N.am      1 MOL    -0.2983
      3 N          10.4444    2.8676   28.2984 N.ar      1 MOL    -0.1750
      4 N          10.7985    1.5890   28.3435 N.ar      1 MOL    -0.2425
      5 C          12.1413    1.2210   28.5702 C.ar      1 MOL     0.2725
      6 C          13.0917    2.2432   28.7641 C.ar      1 MOL     0.0496
      7 C          14.4254    1.9406   29.0298 C.ar      1 MOL     0.0138
      8 C          15.3495    2.9551   29.2493 C.ar      1 MOL     0.0008
      9 C          14.9529    4.2841   29.1694 C.ar      1 MOL     0.0007
     10 C          13.6266    4.6007   28.8879 C.ar      1 MOL     0.0103
     11 C          12.6711    3.5981   28.6805 C.ar      1 MOL     0.0106
     12 C          11.3219    3.9015   28.4275 C.ar      1 MOL     0.0736
     13 C          10.8219    5.3083   28.3409 C.3       1 MOL     0.0925
     14 C          10.2095    5.6431   27.0304 C.ar      1 MOL    -0.0406
     15 C           8.9898    5.0911   26.6272 C.ar      1 MOL     0.0196
     16 C           8.4159    5.4030   25.3836 C.ar      1 MOL     0.0723
     17 C           7.1441    4.7978   24.9172 C.2       1 MOL     0.2495
     18 C           5.4932    3.0147   24.9723 C.3       1 MOL     0.1268
     19 C           5.0137    2.1786   26.1996 C.3       1 MOL     0.1265
     20 C           7.3652    1.6402   26.7388 C.3       1 MOL     0.1265
     21 C           7.8356    2.4876   25.5262 C.3       1 MOL     0.1268
     22 C           5.6950   -0.0932   27.0054 C.2       1 MOL     0.2187
     23 C           4.2849   -0.5403   27.0734 C.3       1 MOL     0.0752
     24 C           4.2057   -1.9825   26.6944 C.3       1 MOL     0.0134
     25 C           3.6553   -0.9334   25.7867 C.3       1 MOL     0.0134
     26 C           9.0832    6.3235   24.5703 C.ar      1 MOL     0.1355
     27 C          10.2941    6.8985   24.9593 C.ar      1 MOL     0.0392
     28 C          10.8639    6.5510   26.1868 C.ar      1 MOL     0.0066
     29 O          12.4281    0.0130   28.5480 O.2       1 MOL    -0.2658
     30 O           6.5690   -0.8719   27.4164 O.2       1 MOL    -0.2753
     31 O           6.3555    5.5465   24.3247 O.2       1 MOL    -0.2699
     32 F           8.5649    6.6841   23.3672 F         1 MOL    -0.2047
     33 H          14.7542    0.9107   29.0558 H         1 MOL     0.0625
     34 H          16.3811    2.7153   29.4574 H         1 MOL     0.0618
     35 H          15.6746    5.0725   29.3258 H         1 MOL     0.0618
     36 H          13.3264    5.6366   28.8499 H         1 MOL     0.0624
     37 H          11.6762    5.9913   28.5224 H         1 MOL     0.0377
     38 H          10.0612    5.4506   29.1343 H         1 MOL     0.0377
     39 H           8.4841    4.4023   27.2888 H         1 MOL     0.0629
     40 H           5.4960    2.3625   24.0645 H         1 MOL     0.0480
     41 H           4.8135    3.8724   24.7701 H         1 MOL     0.0480
     42 H           4.0385    1.6846   25.9772 H         1 MOL     0.0480
     43 H           4.8648    2.8550   27.0751 H         1 MOL     0.0480
     44 H           8.0389    0.7709   26.9023 H         1 MOL     0.0480
     45 H           7.3921    2.2758   27.6579 H         1 MOL     0.0480
     46 H           7.9721    1.8247   24.6357 H         1 MOL     0.0480
     47 H           8.8115    2.9847   25.7401 H         1 MOL     0.0480
     48 H           3.7245   -0.1799   27.9002 H         1 MOL     0.0394
     49 H           3.4724   -2.5986   27.2011 H         1 MOL     0.0273
     50 H           5.1096   -2.4704   26.3527 H         1 MOL     0.0273
     51 H           2.5755   -0.8504   25.7346 H         1 MOL     0.0273
     52 H           4.2148   -0.7037   24.8889 H         1 MOL     0.0273
     53 H          10.7845    7.6084   24.3146 H         1 MOL     0.0646
     54 H          11.8057    6.9905   26.4838 H         1 MOL     0.0621
     55 H          10.1437    0.8389   28.2077 H         1 MOL     0.1921
@<TRIPOS>BOND
     1    1   18 1 
     2    1   21 1 
     3    1   17 am
     4    2   20 1 
     5    2   22 am
     6    2   19 1 
     7    3    4 ar
     8    3   12 ar
     9    4   55 1 
    10    4    5 ar
    11    5    6 ar
    12    5   29 2 
    13    6    7 ar
    14    6   11 ar
    15    7    8 ar
    16    7   33 1 
    17    8    9 ar
    18    8   34 1 
    19    9   10 ar
    20    9   35 1 
    21   10   11 ar
    22   10   36 1 
    23   11   12 ar
    24   12   13 1 
    25   13   14 1 
    26   13   37 1 
    27   13   38 1 
    28   14   15 ar
    29   14   28 ar
    30   15   16 ar
    31   15   39 1 
    32   16   17 1 
    33   16   26 ar
    34   17   31 2 
    35   18   19 1 
    36   18   40 1 
    37   18   41 1 
    38   19   42 1 
    39   19   43 1 
    40   20   21 1 
    41   20   44 1 
    42   20   45 1 
    43   21   46 1 
    44   21   47 1 
    45   22   23 1 
    46   22   30 2 
    47   23   24 1 
    48   23   25 1 
    49   23   48 1 
    50   24   25 1 
    51   24   49 1 
    52   24   50 1 
    53   25   51 1 
    54   25   52 1 
    55   26   27 ar
    56   26   32 1 
    57   27   28 ar
    58   27   53 1 
    59   28   54 1 
@<TRIPOS>SUBSTRUCTURE
1 MOL         1
@<TRIPOS>MOLECULE
query molecule
   55    59     1     0     0
SMALL
NO_CHARGE

@<TRIPOS>ATOM
      1 N          41.2450  -17.3023   10.4497 N.am      1 MOL    -0.2945
      2 N          42.6797  -19.7509   10.0060 N.am      1 MOL    -0.2983
      3 N          36.1212  -14.8988    5.5771 N.ar      1 MOL    -0.1750
      4 N          35.2813  -15.4455    4.7146 N.ar      1 MOL    -0.2425
      5 C          35.7346  -15.7882    3.4266 C.ar      1 MOL     0.2725
      6 C          37.0972  -15.5739    3.1211 C.ar      1 MOL     0.0496
      7 C          37.5990  -15.8862    1.8544 C.ar      1 MOL     0.0138
      8 C          38.9474  -15.6812    1.5620 C.ar      1 MOL     0.0008
      9 C          39.8071  -15.1700    2.5350 C.ar      1 MOL     0.0007
     10 C          39.3178  -14.8488    3.8034 C.ar      1 MOL     0.0103
     11 C          37.9637  -15.0332    4.1194 C.ar      1 MOL     0.0106
     12 C          37.4516  -14.6886    5.3796 C.ar      1 MOL     0.0736
     13 C          38.2954  -14.0858    6.4552 C.3       1 MOL     0.0925
     14 C          38.3085  -14.8294    7.7414 C.ar      1 MOL    -0.0406
     15 C          39.5135  -15.0709    8.4144 C.ar      1 MOL     0.0196
     16 C          39.5305  -15.7522    9.6403 C.ar      1 MOL     0.0723
     17 C          40.8221  -16.0196   10.3103 C.2       1 MOL     0.2495
     18 C          42.4381  -17.5816   11.2445 C.3       1 MOL     0.1268
     19 C          43.3912  -18.6027   10.5418 C.3       1 MOL     0.1265
     20 C          41.5103  -19.4396    9.1818 C.3       1 MOL     0.1265
     21 C          40.5477  -18.4551    9.8977 C.3       1 MOL     0.1268
     22 C          43.1961  -21.0091    9.9196 C.2       1 MOL     0.2187
     23 C          44.5410  -21.2822   10.4843 C.3       1 MOL     0.0752
     24 C          44.6017  -22.6435   11.0988 C.3       1 MOL     0.0134
     25 C          44.5596  -21.4194   11.9656 C.3       1 MOL     0.0134
     26 C          38.3275  -16.1781   10.2045 C.ar      1 MOL     0.1355
     27 C          37.1237  -15.9608    9.5441 C.ar      1 MOL     0.0392
     28 C          37.1307  -15.2884    8.3259 C.ar      1 MOL     0.0066
     29 O          34.9075  -16.2614    2.6300 O.2       1 MOL    -0.2658
     30 O          42.6020  -21.9277    9.3283 O.2       1 MOL    -0.2753
     31 O          41.4489  -15.0379   10.7185 O.2       1 MOL    -0.2699
     32 F          38.3104  -16.8169   11.3996 F         1 MOL    -0.2047
     33 H          36.9382  -16.2904    1.1007 H         1 MOL     0.0625
     34 H          39.3258  -15.9212    0.5792 H         1 MOL     0.0618
     35 H          40.8503  -15.0145    2.3032 H         1 MOL     0.0618
     36 H          39.9908  -14.4481    4.5475 H         1 MOL     0.0624
     37 H          37.9145  -13.0631    6.6496 H         1 MOL     0.0377
     38 H          39.3375  -14.0298    6.0807 H         1 MOL     0.0377
     39 H          40.4442  -14.7327    7.9804 H         1 MOL     0.0629
     40 H          42.1130  -17.9947   12.2296 H         1 MOL     0.0480
     41 H          42.9713  -16.6205   11.4341 H         1 MOL     0.0480
     42 H          44.1839  -18.9508   11.2417 H         1 MOL     0.0480
     43 H          43.8977  -18.0955    9.6827 H         1 MOL     0.0480
     44 H          40.9898  -20.3895    8.9195 H         1 MOL     0.0480
     45 H          41.8712  -18.9746    8.2320 H         1 MOL     0.0480
     46 H          40.0512  -18.9913   10.7429 H         1 MOL     0.0480
     47 H          39.7524  -18.1091    9.1989 H         1 MOL     0.0480
     48 H          45.3629  -20.8902    9.9412 H         1 MOL     0.0394
     49 H          45.5440  -23.1711   11.0241 H         1 MOL     0.0273
     50 H          43.6957  -23.2382   11.0691 H         1 MOL     0.0273
     51 H          45.4874  -21.1815   12.4742 H         1 MOL     0.0273
     52 H          43.6389  -21.2426   12.5053 H         1 MOL     0.0273
     53 H          36.1900  -16.2991    9.9656 H         1 MOL     0.0646
     54 H          36.1930  -15.1058    7.8150 H         1 MOL     0.0621
     55 H          34.3216  -15.6386    4.9310 H         1 MOL     0.1921
@<TRIPOS>BOND
     1    1   18 1 
     2    1   21 1 
     3    1   17 am
     4    2   20 1 
     5    2   22 am
     6    2   19 1 
     7    3    4 ar
     8    3   12 ar
     9    4   55 1 
    10    4    5 ar
    11    5    6 ar
    12    5   29 2 
    13    6    7 ar
    14    6   11 ar
    15    7    8 ar
    16    7   33 1 
    17    8    9 ar
    18    8   34 1 
    19    9   10 ar
    20    9   35 1 
    21   10   11 ar
    22   10   36 1 
    23   11   12 ar
    24   12   13 1 
    25   13   14 1 
    26   13   37 1 
    27   13   38 1 
    28   14   15 ar
    29   14   28 ar
    30   15   16 ar
    31   15   39 1 
    32   16   17 1 
    33   16   26 ar
    34   17   31 2 
    35   18   19 1 
    36   18   40 1 
    37   18   41 1 
    38   19   42 1 
    39   19   43 1 
    40   20   21 1 
    41   20   44 1 
    42   20   45 1 
    43   21   46 1 
    44   21   47 1 
    45   22   23 1 
    46   22   30 2 
    47   23   24 1 
    48   23   25 1 
    49   23   48 1 
    50   24   25 1 
    51   24   49 1 
    52   24   50 1 
    53   25   51 1 
    54   25   52 1 
    55   26   27 ar
    56   26   32 1 
    57   27   28 ar
    58   27   53 1 
    59   28   54 1 
@<TRIPOS>SUBSTRUCTURE
1 MOL         1
@<TRIPOS>MOLECULE
query molecule
   55    59     1     0     0
SMALL
NO_CHARGE

@<TRIPOS>ATOM
      1 N          18.5133   12.1334   25.9234 N.am      1 MOL    -0.2945
      2 N          21.0528   12.4203   27.2465 N.am      1 MOL    -0.2983
      3 N          13.3661    8.6753   22.4017 N.ar      1 MOL    -0.1750
      4 N          12.0902    8.9345   22.1116 N.ar      1 MOL    -0.2425
      5 C          11.0564    8.6445   23.0265 C.ar      1 MOL     0.2725
      6 C          11.4015    8.0961   24.2775 C.ar      1 MOL     0.0496
      7 C          10.4274    7.8032   25.2360 C.ar      1 MOL     0.0138
      8 C          10.7857    7.2327   26.4591 C.ar      1 MOL     0.0008
      9 C          12.1245    6.9504   26.7352 C.ar      1 MOL     0.0007
     10 C          13.1071    7.2561   25.7941 C.ar      1 MOL     0.0103
     11 C          12.7743    7.8349   24.5563 C.ar      1 MOL     0.0106
     12 C          13.7563    8.1310   23.5877 C.ar      1 MOL     0.0736
     13 C          15.1774    7.7975   23.8583 C.3       1 MOL     0.0925
     14 C          16.1656    8.8365   23.5403 C.ar      1 MOL    -0.0406
     15 C          16.3297    9.9226   24.4055 C.ar      1 MOL     0.0196
     16 C          17.3324   10.8605   24.1822 C.ar      1 MOL     0.0723
     17 C          17.4623   12.0246   25.0799 C.2       1 MOL     0.2495
     18 C          19.0014   13.4589   26.2823 C.3       1 MOL     0.1268
     19 C          20.5517   13.5114   26.4252 C.3       1 MOL     0.1265
     20 C          20.5825   11.0791   26.8944 C.3       1 MOL     0.1265
     21 C          19.0498   11.0164   26.6691 C.3       1 MOL     0.1268
     22 C          22.1427   12.5057   28.0630 C.2       1 MOL     0.2187
     23 C          22.8972   13.7817   28.1486 C.3       1 MOL     0.0752
     24 C          23.3236   14.0440   29.5611 C.3       1 MOL     0.0134
     25 C          22.2256   14.8514   28.9292 C.3       1 MOL     0.0134
     26 C          18.1605   10.7014   23.0776 C.ar      1 MOL     0.1355
     27 C          17.9971    9.6484   22.1776 C.ar      1 MOL     0.0392
     28 C          16.9842    8.7120   22.4104 C.ar      1 MOL     0.0066
     29 O           9.8841    8.8769   22.6719 O.2       1 MOL    -0.2658
     30 O          22.5840   11.5203   28.6807 O.2       1 MOL    -0.2753
     31 O          16.6160   12.9133   24.9275 O.2       1 MOL    -0.2699
     32 F          19.1275   11.6199   22.8873 F         1 MOL    -0.2047
     33 H           9.3888    8.0179   25.0292 H         1 MOL     0.0625
     34 H          10.0253    7.0095   27.1933 H         1 MOL     0.0618
     35 H          12.3967    6.4957   27.6763 H         1 MOL     0.0618
     36 H          14.1421    7.0365   26.0192 H         1 MOL     0.0624
     37 H          15.4334    6.8851   23.2872 H         1 MOL     0.0377
     38 H          15.2648    7.5897   24.9475 H         1 MOL     0.0377
     39 H          15.6884   10.0363   25.2672 H         1 MOL     0.0629
     40 H          18.5442   13.7296   27.2663 H         1 MOL     0.0480
     41 H          18.6388   14.1957   25.5311 H         1 MOL     0.0480
     42 H          20.8394   14.4824   26.8938 H         1 MOL     0.0480
     43 H          21.0262   13.4366   25.4170 H         1 MOL     0.0480
     44 H          20.8913   10.3597   27.6896 H         1 MOL     0.0480
     45 H          21.0981   10.7706   25.9514 H         1 MOL     0.0480
     46 H          18.5572   11.0133   27.6751 H         1 MOL     0.0480
     47 H          18.7658   10.0642   26.1585 H         1 MOL     0.0480
     48 H          23.5443   13.9992   27.3368 H         1 MOL     0.0394
     49 H          24.2681   14.5445   29.7375 H         1 MOL     0.0273
     50 H          23.0191   13.3137   30.3033 H         1 MOL     0.0273
     51 H          22.4924   15.8749   28.6820 H         1 MOL     0.0273
     52 H          21.2110   14.6533   29.2478 H         1 MOL     0.0273
     53 H          18.6345    9.5542   21.3121 H         1 MOL     0.0646
     54 H          16.8377    7.8891   21.7275 H         1 MOL     0.0621
     55 H          11.7979    9.3416   21.2343 H         1 MOL     0.1921
@<TRIPOS>BOND
     1    1   18 1 
     2    1   21 1 
     3    1   17 am
     4    2   20 1 
     5    2   22 am
     6    2   19 1 
     7    3    4 ar
     8    3   12 ar
     9    4   55 1 
    10    4    5 ar
    11    5    6 ar
    12    5   29 2 
    13    6    7 ar
    14    6   11 ar
    15    7    8 ar
    16    7   33 1 
    17    8    9 ar
    18    8   34 1 
    19    9   10 ar
    20    9   35 1 
    21   10   11 ar
    22   10   36 1 
    23   11   12 ar
    24   12   13 1 
    25   13   14 1 
    26   13   37 1 
    27   13   38 1 
    28   14   15 ar
    29   14   28 ar
    30   15   16 ar
    31   15   39 1 
    32   16   17 1 
    33   16   26 ar
    34   17   31 2 
    35   18   19 1 
    36   18   40 1 
    37   18   41 1 
    38   19   42 1 
    39   19   43 1 
    40   20   21 1 
    41   20   44 1 
    42   20   45 1 
    43   21   46 1 
    44   21   47 1 
    45   22   23 1 
    46   22   30 2 
    47   23   24 1 
    48   23   25 1 
    49   23   48 1 
    50   24   25 1 
    51   24   49 1 
    52   24   50 1 
    53   25   51 1 
    54   25   52 1 
    55   26   27 ar
    56   26   32 1 
    57   27   28 ar
    58   27   53 1 
    59   28   54 1 
@<TRIPOS>SUBSTRUCTURE
1 MOL         1
@<TRIPOS>MOLECULE
query molecule
   55    59     1     0     0
SMALL
NO_CHARGE

@<TRIPOS>ATOM
      1 N          17.6101   11.5744   24.3304 N.am      1 MOL    -0.2945
      2 N          19.4390   11.5563   26.5526 N.am      1 MOL    -0.2983
      3 N          18.9705   14.4031   18.5919 N.ar      1 MOL    -0.1750
      4 N          20.1047   14.9405   18.1476 N.ar      1 MOL    -0.2425
      5 C          20.6635   14.5313   16.9198 C.ar      1 MOL     0.2725
      6 C          19.9934   13.5498   16.1618 C.ar      1 MOL     0.0496
      7 C          20.4912   13.1194   14.9308 C.ar      1 MOL     0.0138
      8 C          19.8101   12.1477   14.2015 C.ar      1 MOL     0.0008
      9 C          18.6438   11.5742   14.7051 C.ar      1 MOL     0.0007
     10 C          18.1317   12.0014   15.9297 C.ar      1 MOL     0.0103
     11 C          18.7877   12.9934   16.6749 C.ar      1 MOL     0.0106
     12 C          18.2755   13.4560   17.8998 C.ar      1 MOL     0.0736
     13 C          16.9901   12.9325   18.4486 C.3       1 MOL     0.0925
     14 C          17.2188   11.9491   19.5323 C.ar      1 MOL    -0.0406
     15 C          16.9471   12.3101   20.8539 C.ar      1 MOL     0.0196
     16 C          17.0944   11.3854   21.9078 C.ar      1 MOL     0.0723
     17 C          16.8149   11.8864   23.2747 C.2       1 MOL     0.2495
     18 C          17.0977   11.7941   25.6838 C.3       1 MOL     0.1268
     19 C          18.1882   12.2820   26.6786 C.3       1 MOL     0.1265
     20 C          19.9767   11.4594   25.1968 C.3       1 MOL     0.1265
     21 C          18.9224   10.9824   24.1771 C.3       1 MOL     0.1268
     22 C          20.2677   11.2077   27.5744 C.2       1 MOL     0.2187
     23 C          19.8672   11.4323   28.9839 C.3       1 MOL     0.0752
     24 C          19.5856   12.8460   29.3448 C.3       1 MOL     0.0134
     25 C          20.9284   12.2604   29.6467 C.3       1 MOL     0.0134
     26 C          17.4755   10.0808   21.5888 C.ar      1 MOL     0.1355
     27 C          17.8061    9.7243   20.2763 C.ar      1 MOL     0.0392
     28 C          17.6810   10.6614   19.2488 C.ar      1 MOL     0.0066
     29 O          21.7327   15.0706   16.5591 O.2       1 MOL    -0.2658
     30 O          21.3651   10.6557   27.3734 O.2       1 MOL    -0.2753
     31 O          15.8037   12.5952   23.3907 O.2       1 MOL    -0.2699
     32 F          17.5307    9.1237   22.5464 F         1 MOL    -0.2047
     33 H          21.4041   13.5443   14.5393 H         1 MOL     0.0625
     34 H          20.1960   11.8199   13.2463 H         1 MOL     0.0618
     35 H          18.1305   10.8071   14.1479 H         1 MOL     0.0618
     36 H          17.2217   11.5586   16.3126 H         1 MOL     0.0624
     37 H          16.4354   12.4386   17.6293 H         1 MOL     0.0377
     38 H          16.4050   13.7798   18.8523 H         1 MOL     0.0377
     39 H          16.6165   13.3172   21.0688 H         1 MOL     0.0629
     40 H          16.6753   10.8324   26.0639 H         1 MOL     0.0480
     41 H          16.2610   12.5334   25.6434 H         1 MOL     0.0480
     42 H          17.8313   12.2055   27.7330 H         1 MOL     0.0480
     43 H          18.3981   13.3618   26.4724 H         1 MOL     0.0480
     44 H          20.8305   10.7372   25.1963 H         1 MOL     0.0480
     45 H          20.3772   12.4570   24.9065 H         1 MOL     0.0480
     46 H          18.8121    9.8762   24.3119 H         1 MOL     0.0480
     47 H          19.2704   11.1582   23.1320 H         1 MOL     0.0480
     48 H          19.4389   10.6104   29.4974 H         1 MOL     0.0394
     49 H          18.9246   13.0202   30.1844 H         1 MOL     0.0273
     50 H          19.5136   13.5264   28.5038 H         1 MOL     0.0273
     51 H          21.1512   12.0886   30.6901 H         1 MOL     0.0273
     52 H          21.7372   12.6078   29.0120 H         1 MOL     0.0273
     53 H          18.1549    8.7285   20.0472 H         1 MOL     0.0646
     54 H          17.9311   10.3968   18.2314 H         1 MOL     0.0621
     55 H          20.6009   15.6484   18.6559 H         1 MOL     0.1921
@<TRIPOS>BOND
     1    1   18 1 
     2    1   21 1 
     3    1   17 am
     4    2   20 1 
     5    2   22 am
     6    2   19 1 
     7    3    4 ar
     8    3   12 ar
     9    4   55 1 
    10    4    5 ar
    11    5    6 ar
    12    5   29 2 
    13    6    7 ar
    14    6   11 ar
    15    7    8 ar
    16    7   33 1 
    17    8    9 ar
    18    8   34 1 
    19    9   10 ar
    20    9   35 1 
    21   10   11 ar
    22   10   36 1 
    23   11   12 ar
    24   12   13 1 
    25   13   14 1 
    26   13   37 1 
    27   13   38 1 
    28   14   15 ar
    29   14   28 ar
    30   15   16 ar
    31   15   39 1 
    32   16   17 1 
    33   16   26 ar
    34   17   31 2 
    35   18   19 1 
    36   18   40 1 
    37   18   41 1 
    38   19   42 1 
    39   19   43 1 
    40   20   21 1 
    41   20   44 1 
    42   20   45 1 
    43   21   46 1 
    44   21   47 1 
    45   22   23 1 
    46   22   30 2 
    47   23   24 1 
    48   23   25 1 
    49   23   48 1 
    50   24   25 1 
    51   24   49 1 
    52   24   50 1 
    53   25   51 1 
    54   25   52 1 
    55   26   27 ar
    56   26   32 1 
    57   27   28 ar
    58   27   53 1 
    59   28   54 1 
@<TRIPOS>SUBSTRUCTURE
1 MOL         1
@<TRIPOS>MOLECULE
query molecule
   55    59     1     0     0
SMALL
NO_CHARGE

@<TRIPOS>ATOM
      1 N           9.9014    3.6546   32.9086 N.am      1 MOL    -0.2945
      2 N           9.5152    0.8386   33.4015 N.am      1 MOL    -0.2983
      3 N          12.1508    6.1435   27.2735 N.ar      1 MOL    -0.1750
      4 N          13.4732    6.1640   27.1720 N.ar      1 MOL    -0.2425
      5 C          14.2425    5.0313   27.5225 C.ar      1 MOL     0.2725
      6 C          13.5661    3.8914   28.0098 C.ar      1 MOL     0.0496
      7 C          14.2857    2.7688   28.4292 C.ar      1 MOL     0.0138
      8 C          13.6124    1.6419   28.9063 C.ar      1 MOL     0.0008
      9 C          12.2199    1.6249   28.9504 C.ar      1 MOL     0.0007
     10 C          11.4974    2.7472   28.5442 C.ar      1 MOL     0.0103
     11 C          12.1458    3.9024   28.0799 C.ar      1 MOL     0.0106
     12 C          11.4417    5.0567   27.6968 C.ar      1 MOL     0.0736
     13 C           9.9504    5.1433   27.7335 C.3       1 MOL     0.0925
     14 C           9.4106    5.6817   29.0111 C.ar      1 MOL    -0.0406
     15 C           9.8143    5.1576   30.2368 C.ar      1 MOL     0.0196
     16 C           9.2740    5.5752   31.4591 C.ar      1 MOL     0.0723
     17 C           9.7262    4.9962   32.7550 C.2       1 MOL     0.2495
     18 C          10.1324    3.1187   34.2539 C.3       1 MOL     0.1268
     19 C           9.3932    1.7634   34.5165 C.3       1 MOL     0.1265
     20 C           9.2228    1.3928   32.0814 C.3       1 MOL     0.1265
     21 C          10.0171    2.6904   31.8278 C.3       1 MOL     0.1268
     22 C           9.5464   -0.5201   33.4904 C.2       1 MOL     0.2187
     23 C           9.2892   -1.1572   34.8050 C.3       1 MOL     0.0752
     24 C          10.4616   -1.0938   35.7242 C.3       1 MOL     0.0134
     25 C          10.1912   -2.3462   34.9435 C.3       1 MOL     0.0134
     26 C           8.3089    6.5920   31.4222 C.ar      1 MOL     0.1355
     27 C           7.9072    7.1622   30.2085 C.ar      1 MOL     0.0392
     28 C           8.4559    6.7048   29.0042 C.ar      1 MOL     0.0066
     29 O          15.4684    5.0944   27.3668 O.2       1 MOL    -0.2658
     30 O           9.7697   -1.2459   32.5071 O.2       1 MOL    -0.2753
     31 O           9.9189    5.8074   33.6728 O.2       1 MOL    -0.2699
     32 F           7.7398    7.0414   32.5677 F         1 MOL    -0.2047
     33 H          15.3595    2.7758   28.3824 H         1 MOL     0.0625
     34 H          14.1765    0.7810   29.2295 H         1 MOL     0.0618
     35 H          11.7021    0.7454   29.2987 H         1 MOL     0.0618
     36 H          10.4161    2.7296   28.5901 H         1 MOL     0.0624
     37 H           9.5412    4.1256   27.5859 H         1 MOL     0.0377
     38 H           9.6205    5.8071   26.9112 H         1 MOL     0.0377
     39 H          10.5736    4.3829   30.2423 H         1 MOL     0.0629
     40 H           9.8171    3.8806   35.0049 H         1 MOL     0.0480
     41 H          11.2329    2.9611   34.3683 H         1 MOL     0.0480
     42 H           8.3060    1.9715   34.6741 H         1 MOL     0.0480
     43 H           9.7788    1.2782   35.4428 H         1 MOL     0.0480
     44 H           8.1287    1.6205   32.0400 H         1 MOL     0.0480
     45 H           9.4373    0.6230   31.3066 H         1 MOL     0.0480
     46 H           9.6607    3.1664   30.8825 H         1 MOL     0.0480
     47 H          11.0985    2.4459   31.6970 H         1 MOL     0.0480
     48 H           8.2896   -1.1832   35.1424 H         1 MOL     0.0394
     49 H          10.2709   -1.1594   36.7890 H         1 MOL     0.0273
     50 H          11.3002   -0.4865   35.4061 H         1 MOL     0.0273
     51 H           9.8182   -3.1961   35.4991 H         1 MOL     0.0273
     52 H          10.8584   -2.5477   34.1121 H         1 MOL     0.0273
     53 H           7.1704    7.9521   30.2014 H         1 MOL     0.0646
     54 H           8.1348    7.1386   28.0683 H         1 MOL     0.0621
     55 H          13.9757    6.9730   26.8481 H         1 MOL     0.1921
@<TRIPOS>BOND
     1    1   18 1 
     2    1   21 1 
     3    1   17 am
     4    2   20 1 
     5    2   22 am
     6    2   19 1 
     7    3    4 ar
     8    3   12 ar
     9    4   55 1 
    10    4    5 ar
    11    5    6 ar
    12    5   29 2 
    13    6    7 ar
    14    6   11 ar
    15    7    8 ar
    16    7   33 1 
    17    8    9 ar
    18    8   34 1 
    19    9   10 ar
    20    9   35 1 
    21   10   11 ar
    22   10   36 1 
    23   11   12 ar
    24   12   13 1 
    25   13   14 1 
    26   13   37 1 
    27   13   38 1 
    28   14   15 ar
    29   14   28 ar
    30   15   16 ar
    31   15   39 1 
    32   16   17 1 
    33   16   26 ar
    34   17   31 2 
    35   18   19 1 
    36   18   40 1 
    37   18   41 1 
    38   19   42 1 
    39   19   43 1 
    40   20   21 1 
    41   20   44 1 
    42   20   45 1 
    43   21   46 1 
    44   21   47 1 
    45   22   23 1 
    46   22   30 2 
    47   23   24 1 
    48   23   25 1 
    49   23   48 1 
    50   24   25 1 
    51   24   49 1 
    52   24   50 1 
    53   25   51 1 
    54   25   52 1 
    55   26   27 ar
    56   26   32 1 
    57   27   28 ar
    58   27   53 1 
    59   28   54 1 
@<TRIPOS>SUBSTRUCTURE
1 MOL         1
@<TRIPOS>MOLECULE
query molecule
   55    59     1     0     0
SMALL
NO_CHARGE

@<TRIPOS>ATOM
      1 N          41.8190  -14.3678   30.8846 N.am      1 MOL    -0.2945
      2 N          41.7710  -17.2160   31.0768 N.am      1 MOL    -0.2983
      3 N          45.4874  -14.1716   25.7050 N.ar      1 MOL    -0.1750
      4 N          46.1504  -15.3099   25.5553 N.ar      1 MOL    -0.2425
      5 C          45.4697  -16.5099   25.2445 C.ar      1 MOL     0.2725
      6 C          44.0621  -16.4589   25.1003 C.ar      1 MOL     0.0496
      7 C          43.3377  -17.6122   24.7801 C.ar      1 MOL     0.0138
      8 C          41.9511  -17.5535   24.6379 C.ar      1 MOL     0.0008
      9 C          41.2814  -16.3477   24.8241 C.ar      1 MOL     0.0007
     10 C          41.9938  -15.1889   25.1480 C.ar      1 MOL     0.0103
     11 C          43.3897  -15.2146   25.2826 C.ar      1 MOL     0.0106
     12 C          44.1317  -14.0600   25.5861 C.ar      1 MOL     0.0736
     13 C          43.4987  -12.7174   25.7787 C.3       1 MOL     0.0925
     14 C          43.5371  -12.3155   27.2039 C.ar      1 MOL    -0.0406
     15 C          42.6074  -12.8661   28.0800 C.ar      1 MOL     0.0196
     16 C          42.6251  -12.5663   29.4426 C.ar      1 MOL     0.0723
     17 C          41.5799  -13.1816   30.2845 C.2       1 MOL     0.2495
     18 C          40.7842  -15.0069   31.6939 C.3       1 MOL     0.1268
     19 C          40.5344  -16.4663   31.2189 C.3       1 MOL     0.1265
     20 C          42.8608  -16.5607   30.3478 C.3       1 MOL     0.1265
     21 C          43.0808  -15.0870   30.8075 C.3       1 MOL     0.1268
     22 C          41.8902  -18.5453   31.3558 C.2       1 MOL     0.2187
     23 C          40.7319  -19.2713   31.9398 C.3       1 MOL     0.0752
     24 C          40.6737  -20.6807   31.4442 C.3       1 MOL     0.0134
     25 C          39.6992  -19.6597   30.9377 C.3       1 MOL     0.0134
     26 C          43.6029  -11.7100   29.9288 C.ar      1 MOL     0.1355
     27 C          44.5111  -11.1032   29.0575 C.ar      1 MOL     0.0392
     28 C          44.4796  -11.4092   27.6928 C.ar      1 MOL     0.0066
     29 O          46.1407  -17.5420   25.1157 O.2       1 MOL    -0.2658
     30 O          42.9577  -19.1601   31.1861 O.2       1 MOL    -0.2753
     31 O          40.4935  -12.5985   30.3372 O.2       1 MOL    -0.2699
     32 F          43.6973  -11.4431   31.2514 F         1 MOL    -0.2047
     33 H          43.8545  -18.5516   24.6409 H         1 MOL     0.0625
     34 H          41.3992  -18.4459   24.3822 H         1 MOL     0.0618
     35 H          40.2066  -16.3032   24.7115 H         1 MOL     0.0618
     36 H          41.4632  -14.2554   25.2879 H         1 MOL     0.0624
     37 H          42.4458  -12.7698   25.4525 H         1 MOL     0.0377
     38 H          44.0589  -11.9734   25.1860 H         1 MOL     0.0377
     39 H          41.8611  -13.5497   27.6952 H         1 MOL     0.0629
     40 H          39.8526  -14.4000   31.6454 H         1 MOL     0.0480
     41 H          41.1303  -15.0217   32.7559 H         1 MOL     0.0480
     42 H          40.0521  -16.4213   30.2097 H         1 MOL     0.0480
     43 H          39.8446  -17.0120   31.8993 H         1 MOL     0.0480
     44 H          42.5975  -16.5622   29.2618 H         1 MOL     0.0480
     45 H          43.7923  -17.1606   30.4710 H         1 MOL     0.0480
     46 H          43.7711  -14.5524   30.1172 H         1 MOL     0.0480
     47 H          43.5437  -15.0843   31.8244 H         1 MOL     0.0480
     48 H          40.4872  -19.0338   32.9431 H         1 MOL     0.0394
     49 H          40.3045  -21.4305   32.1321 H         1 MOL     0.0273
     50 H          41.4497  -20.9852   30.7514 H         1 MOL     0.0273
     51 H          38.6821  -19.7857   31.2920 H         1 MOL     0.0273
     52 H          39.8324  -19.3264   29.9165 H         1 MOL     0.0273
     53 H          45.2337  -10.4027   29.4466 H         1 MOL     0.0646
     54 H          45.1897  -10.9476   27.0241 H         1 MOL     0.0621
     55 H          47.1499  -15.3731   25.6526 H         1 MOL     0.1921
@<TRIPOS>BOND
     1    1   18 1 
     2    1   21 1 
     3    1   17 am
     4    2   20 1 
     5    2   22 am
     6    2   19 1 
     7    3    4 ar
     8    3   12 ar
     9    4   55 1 
    10    4    5 ar
    11    5    6 ar
    12    5   29 2 
    13    6    7 ar
    14    6   11 ar
    15    7    8 ar
    16    7   33 1 
    17    8    9 ar
    18    8   34 1 
    19    9   10 ar
    20    9   35 1 
    21   10   11 ar
    22   10   36 1 
    23   11   12 ar
    24   12   13 1 
    25   13   14 1 
    26   13   37 1 
    27   13   38 1 
    28   14   15 ar
    29   14   28 ar
    30   15   16 ar
    31   15   39 1 
    32   16   17 1 
    33   16   26 ar
    34   17   31 2 
    35   18   19 1 
    36   18   40 1 
    37   18   41 1 
    38   19   42 1 
    39   19   43 1 
    40   20   21 1 
    41   20   44 1 
    42   20   45 1 
    43   21   46 1 
    44   21   47 1 
    45   22   23 1 
    46   22   30 2 
    47   23   24 1 
    48   23   25 1 
    49   23   48 1 
    50   24   25 1 
    51   24   49 1 
    52   24   50 1 
    53   25   51 1 
    54   25   52 1 
    55   26   27 ar
    56   26   32 1 
    57   27   28 ar
    58   27   53 1 
    59   28   54 1 
@<TRIPOS>SUBSTRUCTURE
1 MOL         1
@<TRIPOS>MOLECULE
query molecule
   55    59     1     0     0
SMALL
NO_CHARGE

@<TRIPOS>ATOM
      1 N          15.2627   12.1097   18.4534 N.am      1 MOL    -0.2945
      2 N          12.4903   12.5358   17.8579 N.am      1 MOL    -0.2983
      3 N          18.4527   11.6178   13.4250 N.ar      1 MOL    -0.1750
      4 N          18.1781   11.6368   12.1237 N.ar      1 MOL    -0.2425
      5 C          19.0972   12.1524   11.1913 C.ar      1 MOL     0.2725
      6 C          20.3281   12.6364   11.6702 C.ar      1 MOL     0.0496
      7 C          21.2665   13.1887   10.7943 C.ar      1 MOL     0.0138
      8 C          22.4833   13.6620   11.2800 C.ar      1 MOL     0.0008
      9 C          22.7773   13.5733   12.6414 C.ar      1 MOL     0.0007
     10 C          21.8478   13.0219   13.5248 C.ar      1 MOL     0.0103
     11 C          20.6030   12.5591   13.0696 C.ar      1 MOL     0.0106
     12 C          19.6431   12.0219   13.9479 C.ar      1 MOL     0.0736
     13 C          19.9063   11.8357   15.4035 C.3       1 MOL     0.0925
     14 C          19.1859   12.7618   16.2993 C.ar      1 MOL    -0.0406
     15 C          18.1869   12.2315   17.1332 C.ar      1 MOL     0.0196
     16 C          17.5020   13.0491   18.0408 C.ar      1 MOL     0.0723
     17 C          16.4661   12.4902   18.9359 C.2       1 MOL     0.2495
     18 C          14.2542   11.5570   19.3594 C.3       1 MOL     0.1268
     19 C          12.8925   12.3201   19.2427 C.3       1 MOL     0.1265
     20 C          13.5256   12.9799   16.9180 C.3       1 MOL     0.1265
     21 C          14.8554   12.1866   17.0637 C.3       1 MOL     0.1268
     22 C          11.1946   12.7233   17.4553 C.2       1 MOL     0.2187
     23 C          10.1314   12.7754   18.4943 C.3       1 MOL     0.0752
     24 C           8.7964   12.3101   18.0315 C.3       1 MOL     0.0134
     25 C           9.0868   13.7808   18.1357 C.3       1 MOL     0.0134
     26 C          17.8238   14.4087   18.1095 C.ar      1 MOL     0.1355
     27 C          18.8091   14.9479   17.2802 C.ar      1 MOL     0.0392
     28 C          19.4897   14.1252   16.3728 C.ar      1 MOL     0.0066
     29 O          18.7716   12.1512    9.9907 O.2       1 MOL    -0.2658
     30 O          10.8958   12.8879   16.2605 O.2       1 MOL    -0.2753
     31 O          16.7636   12.4320   20.1361 O.2       1 MOL    -0.2699
     32 F          17.1730   15.2144   18.9829 F         1 MOL    -0.2047
     33 H          21.0414   13.2537    9.7402 H         1 MOL     0.0625
     34 H          23.1999   14.0984   10.6000 H         1 MOL     0.0618
     35 H          23.7260   13.9332   13.0119 H         1 MOL     0.0618
     36 H          22.0866   12.9538   14.5771 H         1 MOL     0.0624
     37 H          20.9961   11.9523   15.5686 H         1 MOL     0.0377
     38 H          19.6004   10.8027   15.6701 H         1 MOL     0.0377
     39 H          17.9573   11.1775   17.0750 H         1 MOL     0.0629
     40 H          14.6412   11.5926   20.4032 H         1 MOL     0.0480
     41 H          14.1042   10.4840   19.0862 H         1 MOL     0.0480
     42 H          13.0090   13.3214   19.7277 H         1 MOL     0.0480
     43 H          12.0828   11.7760   19.7815 H         1 MOL     0.0480
     44 H          13.7353   14.0576   17.1364 H         1 MOL     0.0480
     45 H          13.1239   12.9189   15.8813 H         1 MOL     0.0480
     46 H          15.6665   12.6530   16.4628 H         1 MOL     0.0480
     47 H          14.7019   11.1447   16.6930 H         1 MOL     0.0480
     48 H          10.4546   12.6696   19.4991 H         1 MOL     0.0394
     49 H           8.1162   11.9116   18.7767 H         1 MOL     0.0273
     50 H           8.7415   11.8898   17.0344 H         1 MOL     0.0273
     51 H           8.6078   14.3217   18.9399 H         1 MOL     0.0273
     52 H           9.2138   14.2981   17.1907 H         1 MOL     0.0273
     53 H          19.0452   16.0015   17.3452 H         1 MOL     0.0646
     54 H          20.2533   14.5548   15.7392 H         1 MOL     0.0621
     55 H          17.3135   11.2713   11.7582 H         1 MOL     0.1921
@<TRIPOS>BOND
     1    1   18 1 
     2    1   21 1 
     3    1   17 am
     4    2   20 1 
     5    2   22 am
     6    2   19 1 
     7    3    4 ar
     8    3   12 ar
     9    4   55 1 
    10    4    5 ar
    11    5    6 ar
    12    5   29 2 
    13    6    7 ar
    14    6   11 ar
    15    7    8 ar
    16    7   33 1 
    17    8    9 ar
    18    8   34 1 
    19    9   10 ar
    20    9   35 1 
    21   10   11 ar
    22   10   36 1 
    23   11   12 ar
    24   12   13 1 
    25   13   14 1 
    26   13   37 1 
    27   13   38 1 
    28   14   15 ar
    29   14   28 ar
    30   15   16 ar
    31   15   39 1 
    32   16   17 1 
    33   16   26 ar
    34   17   31 2 
    35   18   19 1 
    36   18   40 1 
    37   18   41 1 
    38   19   42 1 
    39   19   43 1 
    40   20   21 1 
    41   20   44 1 
    42   20   45 1 
    43   21   46 1 
    44   21   47 1 
    45   22   23 1 
    46   22   30 2 
    47   23   24 1 
    48   23   25 1 
    49   23   48 1 
    50   24   25 1 
    51   24   49 1 
    52   24   50 1 
    53   25   51 1 
    54   25   52 1 
    55   26   27 ar
    56   26   32 1 
    57   27   28 ar
    58   27   53 1 
    59   28   54 1 
@<TRIPOS>SUBSTRUCTURE
1 MOL         1
@<TRIPOS>MOLECULE
query molecule
   55    59     1     0     0
SMALL
NO_CHARGE

@<TRIPOS>ATOM
      1 N          24.5157  -14.7153    8.0965 N.am      1 MOL    -0.2945
      2 N          25.1432  -13.0558   10.3339 N.am      1 MOL    -0.2983
      3 N          24.3998  -10.9331    1.2055 N.ar      1 MOL    -0.1750
      4 N          24.1329   -9.6739    0.8682 N.ar      1 MOL    -0.2425
      5 C          24.5582   -8.6138    1.7019 C.ar      1 MOL     0.2725
      6 C          25.1665   -8.9365    2.9361 C.ar      1 MOL     0.0496
      7 C          25.5561   -7.9348    3.8274 C.ar      1 MOL     0.0138
      8 C          26.0677   -8.2641    5.0844 C.ar      1 MOL     0.0008
      9 C          26.2159   -9.5966    5.4510 C.ar      1 MOL     0.0007
     10 C          25.8831  -10.6030    4.5519 C.ar      1 MOL     0.0103
     11 C          25.3550  -10.3025    3.2886 C.ar      1 MOL     0.0106
     12 C          24.9995  -11.3074    2.3748 C.ar      1 MOL     0.0736
     13 C          25.2516  -12.7565    2.6385 C.3       1 MOL     0.0925
     14 C          24.3052  -13.3547    3.6147 C.ar      1 MOL    -0.0406
     15 C          24.8219  -13.9895    4.7543 C.ar      1 MOL     0.0196
     16 C          23.9675  -14.5799    5.6994 C.ar      1 MOL     0.0723
     17 C          24.5842  -15.2612    6.8616 C.2       1 MOL     0.2495
     18 C          25.2573  -15.2913    9.2181 C.3       1 MOL     0.1268
     19 C          25.9902  -14.2023   10.0832 C.3       1 MOL     0.1265
     20 C          24.4701  -12.4951    9.1687 C.3       1 MOL     0.1265
     21 C          23.6717  -13.5843    8.4150 C.3       1 MOL     0.1268
     22 C          25.0611  -12.3300   11.4792 C.2       1 MOL     0.2187
     23 C          26.0418  -12.6014   12.5549 C.3       1 MOL     0.0752
     24 C          26.2779  -11.4504   13.4584 C.3       1 MOL     0.0134
     25 C          27.2515  -11.7394   12.3548 C.3       1 MOL     0.0134
     26 C          22.5895  -14.5224    5.4914 C.ar      1 MOL     0.1355
     27 C          22.0629  -13.8919    4.3593 C.ar      1 MOL     0.0392
     28 C          22.9214  -13.3105    3.4204 C.ar      1 MOL     0.0066
     29 O          24.3518   -7.4505    1.3187 O.2       1 MOL    -0.2658
     30 O          24.1843  -11.4629   11.6398 O.2       1 MOL    -0.2753
     31 O          25.2048  -16.3010    6.6112 O.2       1 MOL    -0.2699
     32 F          21.7389  -15.0854    6.3829 F         1 MOL    -0.2047
     33 H          25.4396   -6.8971    3.5492 H         1 MOL     0.0625
     34 H          26.3383   -7.4796    5.7754 H         1 MOL     0.0618
     35 H          26.5947   -9.8472    6.4309 H         1 MOL     0.0618
     36 H          26.0271  -11.6364    4.8376 H         1 MOL     0.0624
     37 H          26.2774  -12.8616    3.0419 H         1 MOL     0.0377
     38 H          25.1631  -13.3077    1.6823 H         1 MOL     0.0377
     39 H          25.8911  -14.0268    4.9078 H         1 MOL     0.0629
     40 H          25.9802  -16.0431    8.8255 H         1 MOL     0.0480
     41 H          24.5220  -15.8306    9.8647 H         1 MOL     0.0480
     42 H          26.8890  -13.8421    9.5251 H         1 MOL     0.0480
     43 H          26.3337  -14.6314   11.0511 H         1 MOL     0.0480
     44 H          25.2414  -12.0444    8.5016 H         1 MOL     0.0480
     45 H          23.7900  -11.6826    9.5092 H         1 MOL     0.0480
     46 H          23.2522  -13.1662    7.4696 H         1 MOL     0.0480
     47 H          22.8181  -13.9402    9.0389 H         1 MOL     0.0480
     48 H          26.1556  -13.6103   12.8625 H         1 MOL     0.0394
     49 H          26.6250  -11.6581   14.4634 H         1 MOL     0.0273
     50 H          25.6242  -10.5941   13.3297 H         1 MOL     0.0273
     51 H          28.2148  -12.1299   12.6593 H         1 MOL     0.0273
     52 H          27.2380  -11.0560   11.5134 H         1 MOL     0.0273
     53 H          20.9944  -13.8556    4.2048 H         1 MOL     0.0646
     54 H          22.5181  -12.8257    2.5431 H         1 MOL     0.0621
     55 H          23.6135   -9.4254    0.0420 H         1 MOL     0.1921
@<TRIPOS>BOND
     1    1   18 1 
     2    1   21 1 
     3    1   17 am
     4    2   20 1 
     5    2   22 am
     6    2   19 1 
     7    3    4 ar
     8    3   12 ar
     9    4   55 1 
    10    4    5 ar
    11    5    6 ar
    12    5   29 2 
    13    6    7 ar
    14    6   11 ar
    15    7    8 ar
    16    7   33 1 
    17    8    9 ar
    18    8   34 1 
    19    9   10 ar
    20    9   35 1 
    21   10   11 ar
    22   10   36 1 
    23   11   12 ar
    24   12   13 1 
    25   13   14 1 
    26   13   37 1 
    27   13   38 1 
    28   14   15 ar
    29   14   28 ar
    30   15   16 ar
    31   15   39 1 
    32   16   17 1 
    33   16   26 ar
    34   17   31 2 
    35   18   19 1 
    36   18   40 1 
    37   18   41 1 
    38   19   42 1 
    39   19   43 1 
    40   20   21 1 
    41   20   44 1 
    42   20   45 1 
    43   21   46 1 
    44   21   47 1 
    45   22   23 1 
    46   22   30 2 
    47   23   24 1 
    48   23   25 1 
    49   23   48 1 
    50   24   25 1 
    51   24   49 1 
    52   24   50 1 
    53   25   51 1 
    54   25   52 1 
    55   26   27 ar
    56   26   32 1 
    57   27   28 ar
    58   27   53 1 
    59   28   54 1 
@<TRIPOS>SUBSTRUCTURE
1 MOL         1
@<TRIPOS>MOLECULE
query molecule
   55    59     1     0     0
SMALL
NO_CHARGE

@<TRIPOS>ATOM
      1 N          47.8058  -12.3720   21.8754 N.am      1 MOL    -0.2945
      2 N          47.6256  -10.0848   23.6320 N.am      1 MOL    -0.2983
      3 N          44.7826  -14.3209   16.1198 N.ar      1 MOL    -0.1750
      4 N          44.8644  -14.8441   14.8970 N.ar      1 MOL    -0.2425
      5 C          43.7448  -15.4763   14.3122 C.ar      1 MOL     0.2725
      6 C          42.5385  -15.5304   15.0434 C.ar      1 MOL     0.0496
      7 C          41.4051  -16.1521   14.5109 C.ar      1 MOL     0.0138
      8 C          40.2141  -16.1840   15.2372 C.ar      1 MOL     0.0008
      9 C          40.1469  -15.5939   16.5004 C.ar      1 MOL     0.0007
     10 C          41.2735  -14.9735   17.0420 C.ar      1 MOL     0.0103
     11 C          42.4851  -14.9289   16.3331 C.ar      1 MOL     0.0106
     12 C          43.6313  -14.2993   16.8521 C.ar      1 MOL     0.0736
     13 C          43.5768  -13.5894   18.1591 C.3       1 MOL     0.0925
     14 C          44.5023  -14.1364   19.1653 C.ar      1 MOL    -0.0406
     15 C          45.6790  -13.4441   19.4712 C.ar      1 MOL     0.0196
     16 C          46.5271  -13.9208   20.4758 C.ar      1 MOL     0.0723
     17 C          47.7589  -13.1726   20.7872 C.2       1 MOL     0.2495
     18 C          48.9861  -11.5491   22.1223 C.3       1 MOL     0.1268
     19 C          48.6138  -10.1010   22.5666 C.3       1 MOL     0.1265
     20 C          46.4426  -10.9144   23.3910 C.3       1 MOL     0.1265
     21 C          46.7926  -12.3530   22.9190 C.3       1 MOL     0.1268
     22 C          47.5271   -9.1339   24.6045 C.2       1 MOL     0.2187
     23 C          48.4265   -7.9599   24.6040 C.3       1 MOL     0.0752
     24 C          49.8633   -8.2073   24.8721 C.3       1 MOL     0.0134
     25 C          48.9815   -7.7020   25.9702 C.3       1 MOL     0.0134
     26 C          46.2046  -15.0924   21.1569 C.ar      1 MOL     0.1355
     27 C          45.0430  -15.8022   20.8470 C.ar      1 MOL     0.0392
     28 C          44.1914  -15.3210   19.8425 C.ar      1 MOL     0.0066
     29 O          43.8714  -15.9356   13.1614 O.2       1 MOL    -0.2658
     30 O          46.6287   -9.1651   25.4665 O.2       1 MOL    -0.2753
     31 O          48.6843  -13.3230   19.9803 O.2       1 MOL    -0.2699
     32 F          47.0151  -15.5564   22.1370 F         1 MOL    -0.2047
     33 H          41.4525  -16.6087   13.5323 H         1 MOL     0.0625
     34 H          39.3432  -16.6669   14.8197 H         1 MOL     0.0618
     35 H          39.2234  -15.6206   17.0596 H         1 MOL     0.0618
     36 H          41.2128  -14.5199   18.0218 H         1 MOL     0.0624
     37 H          42.5469  -13.6705   18.5563 H         1 MOL     0.0377
     38 H          43.8375  -12.5274   17.9901 H         1 MOL     0.0377
     39 H          45.9294  -12.5381   18.9401 H         1 MOL     0.0629
     40 H          49.6114  -11.5239   21.2004 H         1 MOL     0.0480
     41 H          49.5824  -12.0439   22.9274 H         1 MOL     0.0480
     42 H          48.1999   -9.5332   21.7009 H         1 MOL     0.0480
     43 H          49.5296   -9.5690   22.9193 H         1 MOL     0.0480
     44 H          45.8399  -10.4161   22.5915 H         1 MOL     0.0480
     45 H          45.8193  -10.9419   24.3145 H         1 MOL     0.0480
     46 H          45.8811  -12.8795   22.5520 H         1 MOL     0.0480
     47 H          47.1903  -12.9334   23.7877 H         1 MOL     0.0480
     48 H          48.0950   -7.1435   24.0067 H         1 MOL     0.0394
     49 H          50.5533   -7.4947   24.4327 H         1 MOL     0.0273
     50 H          50.1789   -9.2415   24.9137 H         1 MOL     0.0273
     51 H          49.1347   -6.6686   26.2600 H         1 MOL     0.0273
     52 H          48.7609   -8.4106   26.7580 H         1 MOL     0.0273
     53 H          44.8081  -16.7117   21.3673 H         1 MOL     0.0646
     54 H          43.2903  -15.8636   19.5991 H         1 MOL     0.0621
     55 H          45.7073  -14.7944   14.3430 H         1 MOL     0.1921
@<TRIPOS>BOND
     1    1   18 1 
     2    1   21 1 
     3    1   17 am
     4    2   20 1 
     5    2   22 am
     6    2   19 1 
     7    3    4 ar
     8    3   12 ar
     9    4   55 1 
    10    4    5 ar
    11    5    6 ar
    12    5   29 2 
    13    6    7 ar
    14    6   11 ar
    15    7    8 ar
    16    7   33 1 
    17    8    9 ar
    18    8   34 1 
    19    9   10 ar
    20    9   35 1 
    21   10   11 ar
    22   10   36 1 
    23   11   12 ar
    24   12   13 1 
    25   13   14 1 
    26   13   37 1 
    27   13   38 1 
    28   14   15 ar
    29   14   28 ar
    30   15   16 ar
    31   15   39 1 
    32   16   17 1 
    33   16   26 ar
    34   17   31 2 
    35   18   19 1 
    36   18   40 1 
    37   18   41 1 
    38   19   42 1 
    39   19   43 1 
    40   20   21 1 
    41   20   44 1 
    42   20   45 1 
    43   21   46 1 
    44   21   47 1 
    45   22   23 1 
    46   22   30 2 
    47   23   24 1 
    48   23   25 1 
    49   23   48 1 
    50   24   25 1 
    51   24   49 1 
    52   24   50 1 
    53   25   51 1 
    54   25   52 1 
    55   26   27 ar
    56   26   32 1 
    57   27   28 ar
    58   27   53 1 
    59   28   54 1 
@<TRIPOS>SUBSTRUCTURE
1 MOL         1
@<TRIPOS>MOLECULE
query molecule
   55    59     1     0     0
SMALL
NO_CHARGE

@<TRIPOS>ATOM
      1 N           4.3450   -6.0494   16.4565 N.am      1 MOL    -0.2945
      2 N           3.4372   -8.7363   16.4537 N.am      1 MOL    -0.2983
      3 N           8.5855   -7.3087   12.8191 N.ar      1 MOL    -0.1750
      4 N           8.6653   -8.3154   11.9538 N.ar      1 MOL    -0.2425
      5 C           9.6447   -8.3330   10.9358 C.ar      1 MOL     0.2725
      6 C          10.5331   -7.2410   10.8399 C.ar      1 MOL     0.0496
      7 C          11.5277   -7.1984    9.8532 C.ar      1 MOL     0.0138
      8 C          12.3951   -6.1067    9.7718 C.ar      1 MOL     0.0008
      9 C          12.2767   -5.0508   10.6754 C.ar      1 MOL     0.0007
     10 C          11.2904   -5.0885   11.6611 C.ar      1 MOL     0.0103
     11 C          10.4067   -6.1743   11.7776 C.ar      1 MOL     0.0106
     12 C           9.4311   -6.2409   12.7988 C.ar      1 MOL     0.0736
     13 C           9.3763   -5.2147   13.8642 C.3       1 MOL     0.0925
     14 C           8.0667   -4.6297   14.1751 C.ar      1 MOL    -0.0406
     15 C           7.2755   -5.1663   15.1910 C.ar      1 MOL     0.0196
     16 C           6.0633   -4.5689   15.5468 C.ar      1 MOL     0.0723
     17 C           5.3020   -5.1276   16.6788 C.2       1 MOL     0.2495
     18 C           3.5139   -6.5060   17.5669 C.3       1 MOL     0.1268
     19 C           3.6438   -8.0496   17.7227 C.3       1 MOL     0.1265
     20 C           4.1376   -8.2119   15.2747 C.3       1 MOL     0.1265
     21 C           4.0562   -6.6590   15.1709 C.3       1 MOL     0.1268
     22 C           2.9356  -10.0040   16.3661 C.2       1 MOL     0.2187
     23 C           2.6399  -10.7478   17.6178 C.3       1 MOL     0.0752
     24 C           1.4801  -11.6715   17.4592 C.3       1 MOL     0.0134
     25 C           1.3301  -10.3928   18.2274 C.3       1 MOL     0.0134
     26 C           5.6222   -3.4480   14.8495 C.ar      1 MOL     0.1355
     27 C           6.3933   -2.9101   13.8194 C.ar      1 MOL     0.0392
     28 C           7.6206   -3.4948   13.5041 C.ar      1 MOL     0.0066
     29 O           9.6787   -9.3174   10.1784 O.2       1 MOL    -0.2658
     30 O           2.7939  -10.5804   15.2745 O.2       1 MOL    -0.2753
     31 O           5.5984   -4.7056   17.8025 O.2       1 MOL    -0.2699
     32 F           4.4447   -2.8625   15.1676 F         1 MOL    -0.2047
     33 H          11.6243   -8.0135    9.1498 H         1 MOL     0.0625
     34 H          13.1565   -6.0765    9.0069 H         1 MOL     0.0618
     35 H          12.9427   -4.2039   10.6111 H         1 MOL     0.0618
     36 H          11.2089   -4.2653   12.3598 H         1 MOL     0.0624
     37 H          10.0575   -4.3898   13.5762 H         1 MOL     0.0377
     38 H           9.7556   -5.6858   14.7965 H         1 MOL     0.0377
     39 H           7.6158   -6.0419   15.7241 H         1 MOL     0.0629
     40 H           2.4541   -6.2370   17.3367 H         1 MOL     0.0480
     41 H           3.8101   -5.9760   18.4983 H         1 MOL     0.0480
     42 H           2.9075   -8.4348   18.4644 H         1 MOL     0.0480
     43 H           4.6689   -8.2922   18.0909 H         1 MOL     0.0480
     44 H           3.7329   -8.6994   14.3587 H         1 MOL     0.0480
     45 H           5.2151   -8.4988   15.3610 H         1 MOL     0.0480
     46 H           3.0238   -6.3606   14.8683 H         1 MOL     0.0480
     47 H           4.7646   -6.2685   14.4073 H         1 MOL     0.0480
     48 H           3.4792  -11.0150   18.2076 H         1 MOL     0.0394
     49 H           1.4944  -12.5932   18.0274 H         1 MOL     0.0273
     50 H           1.0336  -11.6977   16.4720 H         1 MOL     0.0273
     51 H           1.2325  -10.5002   19.3029 H         1 MOL     0.0273
     52 H           0.7800   -9.5899   17.7549 H         1 MOL     0.0273
     53 H           6.0531   -2.0445   13.2747 H         1 MOL     0.0646
     54 H           8.2351   -3.0682   12.7239 H         1 MOL     0.0621
     55 H           8.0380   -9.1011   11.9864 H         1 MOL     0.1921
@<TRIPOS>BOND
     1    1   18 1 
     2    1   21 1 
     3    1   17 am
     4    2   20 1 
     5    2   22 am
     6    2   19 1 
     7    3    4 ar
     8    3   12 ar
     9    4   55 1 
    10    4    5 ar
    11    5    6 ar
    12    5   29 2 
    13    6    7 ar
    14    6   11 ar
    15    7    8 ar
    16    7   33 1 
    17    8    9 ar
    18    8   34 1 
    19    9   10 ar
    20    9   35 1 
    21   10   11 ar
    22   10   36 1 
    23   11   12 ar
    24   12   13 1 
    25   13   14 1 
    26   13   37 1 
    27   13   38 1 
    28   14   15 ar
    29   14   28 ar
    30   15   16 ar
    31   15   39 1 
    32   16   17 1 
    33   16   26 ar
    34   17   31 2 
    35   18   19 1 
    36   18   40 1 
    37   18   41 1 
    38   19   42 1 
    39   19   43 1 
    40   20   21 1 
    41   20   44 1 
    42   20   45 1 
    43   21   46 1 
    44   21   47 1 
    45   22   23 1 
    46   22   30 2 
    47   23   24 1 
    48   23   25 1 
    49   23   48 1 
    50   24   25 1 
    51   24   49 1 
    52   24   50 1 
    53   25   51 1 
    54   25   52 1 
    55   26   27 ar
    56   26   32 1 
    57   27   28 ar
    58   27   53 1 
    59   28   54 1 
@<TRIPOS>SUBSTRUCTURE
1 MOL         1
@<TRIPOS>MOLECULE
query molecule
   55    59     1     0     0
SMALL
NO_CHARGE

@<TRIPOS>ATOM
      1 N           6.0193   -4.8967   17.9542 N.am      1 MOL    -0.2945
      2 N           3.9294   -6.1892   19.3613 N.am      1 MOL    -0.2983
      3 N           3.2417   -1.2450   11.7776 N.ar      1 MOL    -0.1750
      4 N           3.2095   -0.6003   10.6179 N.ar      1 MOL    -0.2425
      5 C           3.3855    0.7984   10.5676 C.ar      1 MOL     0.2725
      6 C           3.6520    1.4844   11.7728 C.ar      1 MOL     0.0496
      7 C           3.8567    2.8677   11.7826 C.ar      1 MOL     0.0138
      8 C           4.1653    3.5254   12.9757 C.ar      1 MOL     0.0008
      9 C           4.2573    2.8055   14.1690 C.ar      1 MOL     0.0007
     10 C           4.0316    1.4273   14.1752 C.ar      1 MOL     0.0103
     11 C           3.7237    0.7421   12.9888 C.ar      1 MOL     0.0106
     12 C           3.4876   -0.6412   12.9756 C.ar      1 MOL     0.0736
     13 C           3.4889   -1.4598   14.2230 C.3       1 MOL     0.0925
     14 C           4.7040   -2.2893   14.4248 C.ar      1 MOL    -0.0406
     15 C           5.0615   -2.6484   15.7376 C.ar      1 MOL     0.0196
     16 C           6.1801   -3.4619   15.9772 C.ar      1 MOL     0.0723
     17 C           6.5354   -3.7918   17.3760 C.2       1 MOL     0.2495
     18 C           6.2070   -5.1374   19.3816 C.3       1 MOL     0.1268
     19 C           4.8213   -5.2854   20.0803 C.3       1 MOL     0.1265
     20 C           3.8760   -6.1030   17.8990 C.3       1 MOL     0.1265
     21 C           5.2738   -5.9227   17.2481 C.3       1 MOL     0.1268
     22 C           2.8855   -6.8428   19.9575 C.2       1 MOL     0.2187
     23 C           2.5636   -6.5198   21.3695 C.3       1 MOL     0.0752
     24 C           1.1627   -6.8307   21.7594 C.3       1 MOL     0.0134
     25 C           1.5451   -5.4222   21.4152 C.3       1 MOL     0.0134
     26 C           6.9367   -3.9154   14.8973 C.ar      1 MOL     0.1355
     27 C           6.6028   -3.5514   13.5923 C.ar      1 MOL     0.0392
     28 C           5.4920   -2.7435   13.3626 C.ar      1 MOL     0.0066
     29 O           3.2978    1.3558    9.4600 O.2       1 MOL    -0.2658
     30 O           2.2045   -7.6910   19.3597 O.2       1 MOL    -0.2753
     31 O           7.2566   -2.9872   17.9772 O.2       1 MOL    -0.2699
     32 F           8.0113   -4.7100   15.1019 F         1 MOL    -0.2047
     33 H           3.7921    3.4303   10.8631 H         1 MOL     0.0625
     34 H           4.3410    4.5909   12.9782 H         1 MOL     0.0618
     35 H           4.5013    3.3132   15.0920 H         1 MOL     0.0618
     36 H           4.0902    0.8791   15.1063 H         1 MOL     0.0624
     37 H           2.6147   -2.1410   14.1816 H         1 MOL     0.0377
     38 H           3.3828   -0.7779   15.0884 H         1 MOL     0.0377
     39 H           4.4666   -2.2917   16.5676 H         1 MOL     0.0629
     40 H           6.8015   -4.3079   19.8248 H         1 MOL     0.0480
     41 H           6.7937   -6.0811   19.4999 H         1 MOL     0.0480
     42 H           4.3371   -4.2799   20.1208 H         1 MOL     0.0480
     43 H           4.9425   -5.6474   21.1267 H         1 MOL     0.0480
     44 H           3.2654   -5.2012   17.6393 H         1 MOL     0.0480
     45 H           3.3502   -6.9955   17.4929 H         1 MOL     0.0480
     46 H           5.1845   -5.6402   16.1745 H         1 MOL     0.0480
     47 H           5.8496   -6.8777   17.3085 H         1 MOL     0.0480
     48 H           3.3721   -6.5318   22.0521 H         1 MOL     0.0394
     49 H           0.9771   -7.0381   22.8063 H         1 MOL     0.0273
     50 H           0.5687   -7.3729   21.0334 H         1 MOL     0.0273
     51 H           1.5832   -4.7260   22.2440 H         1 MOL     0.0273
     52 H           1.1630   -5.0508   20.4707 H         1 MOL     0.0273
     53 H           7.2011   -3.8959   12.7630 H         1 MOL     0.0646
     54 H           5.2301   -2.4662   12.3507 H         1 MOL     0.0621
     55 H           3.0706   -1.0739    9.7405 H         1 MOL     0.1921
@<TRIPOS>BOND
     1    1   18 1 
     2    1   21 1 
     3    1   17 am
     4    2   20 1 
     5    2   22 am
     6    2   19 1 
     7    3    4 ar
     8    3   12 ar
     9    4   55 1 
    10    4    5 ar
    11    5    6 ar
    12    5   29 2 
    13    6    7 ar
    14    6   11 ar
    15    7    8 ar
    16    7   33 1 
    17    8    9 ar
    18    8   34 1 
    19    9   10 ar
    20    9   35 1 
    21   10   11 ar
    22   10   36 1 
    23   11   12 ar
    24   12   13 1 
    25   13   14 1 
    26   13   37 1 
    27   13   38 1 
    28   14   15 ar
    29   14   28 ar
    30   15   16 ar
    31   15   39 1 
    32   16   17 1 
    33   16   26 ar
    34   17   31 2 
    35   18   19 1 
    36   18   40 1 
    37   18   41 1 
    38   19   42 1 
    39   19   43 1 
    40   20   21 1 
    41   20   44 1 
    42   20   45 1 
    43   21   46 1 
    44   21   47 1 
    45   22   23 1 
    46   22   30 2 
    47   23   24 1 
    48   23   25 1 
    49   23   48 1 
    50   24   25 1 
    51   24   49 1 
    52   24   50 1 
    53   25   51 1 
    54   25   52 1 
    55   26   27 ar
    56   26   32 1 
    57   27   28 ar
    58   27   53 1 
    59   28   54 1 
@<TRIPOS>SUBSTRUCTURE
1 MOL         1
@<TRIPOS>MOLECULE
query molecule
   55    59     1     0     0
SMALL
NO_CHARGE

@<TRIPOS>ATOM
      1 N          44.2048  -15.2671   16.0642 N.am      1 MOL    -0.2945
      2 N          46.9888  -15.1124   16.4681 N.am      1 MOL    -0.2983
      3 N          43.6064  -15.6917   21.2822 N.ar      1 MOL    -0.1750
      4 N          44.5846  -15.1921   22.0262 N.ar      1 MOL    -0.2425
      5 C          44.5341  -15.2885   23.4312 C.ar      1 MOL     0.2725
      6 C          43.4269  -15.9360   24.0187 C.ar      1 MOL     0.0496
      7 C          43.3373  -16.0780   25.4071 C.ar      1 MOL     0.0138
      8 C          42.2483  -16.7346   25.9762 C.ar      1 MOL     0.0008
      9 C          41.2479  -17.2564   25.1573 C.ar      1 MOL     0.0007
     10 C          41.3222  -17.1235   23.7763 C.ar      1 MOL     0.0103
     11 C          42.4017  -16.4604   23.1741 C.ar      1 MOL     0.0106
     12 C          42.5032  -16.3196   21.7755 C.ar      1 MOL     0.0736
     13 C          41.4502  -16.8601   20.8600 C.3       1 MOL     0.0925
     14 C          41.3649  -16.1355   19.5675 C.ar      1 MOL    -0.0406
     15 C          42.2699  -16.3935   18.5272 C.ar      1 MOL     0.0196
     16 C          42.1558  -15.7099   17.3128 C.ar      1 MOL     0.0723
     17 C          43.0892  -16.0054   16.2141 C.2       1 MOL     0.2495
     18 C          45.0755  -15.5567   14.9317 C.3       1 MOL     0.1268
     19 C          46.4422  -16.0363   15.4766 C.3       1 MOL     0.1265
     20 C          46.0911  -14.5493   17.4826 C.3       1 MOL     0.1265
     21 C          44.6699  -14.2164   16.9479 C.3       1 MOL     0.1268
     22 C          48.3155  -15.1056   16.8167 C.2       1 MOL     0.2187
     23 C          49.2016  -16.1495   16.2317 C.3       1 MOL     0.0752
     24 C          48.9186  -17.4755   16.8608 C.3       1 MOL     0.0134
     25 C          50.1405  -16.7070   17.2559 C.3       1 MOL     0.0134
     26 C          41.1376  -14.7816   17.1263 C.ar      1 MOL     0.1355
     27 C          40.2461  -14.5183   18.1551 C.ar      1 MOL     0.0392
     28 C          40.3553  -15.1872   19.3745 C.ar      1 MOL     0.0066
     29 O          45.4706  -14.7907   24.0820 O.2       1 MOL    -0.2658
     30 O          48.7830  -14.2700   17.6047 O.2       1 MOL    -0.2753
     31 O          42.7767  -16.9426   15.4704 O.2       1 MOL    -0.2699
     32 F          40.9967  -14.1365   15.9459 F         1 MOL    -0.2047
     33 H          44.1187  -15.6807   26.0427 H         1 MOL     0.0625
     34 H          42.1853  -16.8438   27.0490 H         1 MOL     0.0618
     35 H          40.4066  -17.7682   25.6057 H         1 MOL     0.0618
     36 H          40.5355  -17.5296   23.1580 H         1 MOL     0.0624
     37 H          40.4703  -16.7733   21.3697 H         1 MOL     0.0377
     38 H          41.6743  -17.9210   20.6510 H         1 MOL     0.0377
     39 H          43.0561  -17.1212   18.6704 H         1 MOL     0.0629
     40 H          45.1997  -14.6276   14.3333 H         1 MOL     0.0480
     41 H          44.5977  -16.3285   14.2903 H         1 MOL     0.0480
     42 H          47.1807  -16.1921   14.6570 H         1 MOL     0.0480
     43 H          46.2843  -17.0227   15.9813 H         1 MOL     0.0480
     44 H          46.5786  -13.6636   17.9441 H         1 MOL     0.0480
     45 H          45.9819  -15.3278   18.2803 H         1 MOL     0.0480
     46 H          44.7084  -13.2677   16.3655 H         1 MOL     0.0480
     47 H          43.9550  -14.0846   17.7878 H         1 MOL     0.0480
     48 H          49.4545  -16.0484   15.2181 H         1 MOL     0.0394
     49 H          49.0786  -18.3651   16.2672 H         1 MOL     0.0273
     50 H          48.0977  -17.4949   17.5739 H         1 MOL     0.0273
     51 H          51.0869  -17.0955   16.9102 H         1 MOL     0.0273
     52 H          50.1263  -16.2089   18.2196 H         1 MOL     0.0273
     53 H          39.4635  -13.7946   18.0058 H         1 MOL     0.0646
     54 H          39.6474  -14.9842   20.1641 H         1 MOL     0.0621
     55 H          45.3844  -14.7309   21.6310 H         1 MOL     0.1921
@<TRIPOS>BOND
     1    1   18 1 
     2    1   21 1 
     3    1   17 am
     4    2   20 1 
     5    2   22 am
     6    2   19 1 
     7    3    4 ar
     8    3   12 ar
     9    4   55 1 
    10    4    5 ar
    11    5    6 ar
    12    5   29 2 
    13    6    7 ar
    14    6   11 ar
    15    7    8 ar
    16    7   33 1 
    17    8    9 ar
    18    8   34 1 
    19    9   10 ar
    20    9   35 1 
    21   10   11 ar
    22   10   36 1 
    23   11   12 ar
    24   12   13 1 
    25   13   14 1 
    26   13   37 1 
    27   13   38 1 
    28   14   15 ar
    29   14   28 ar
    30   15   16 ar
    31   15   39 1 
    32   16   17 1 
    33   16   26 ar
    34   17   31 2 
    35   18   19 1 
    36   18   40 1 
    37   18   41 1 
    38   19   42 1 
    39   19   43 1 
    40   20   21 1 
    41   20   44 1 
    42   20   45 1 
    43   21   46 1 
    44   21   47 1 
    45   22   23 1 
    46   22   30 2 
    47   23   24 1 
    48   23   25 1 
    49   23   48 1 
    50   24   25 1 
    51   24   49 1 
    52   24   50 1 
    53   25   51 1 
    54   25   52 1 
    55   26   27 ar
    56   26   32 1 
    57   27   28 ar
    58   27   53 1 
    59   28   54 1 
@<TRIPOS>SUBSTRUCTURE
1 MOL         1
@<TRIPOS>MOLECULE
query molecule
   55    59     1     0     0
SMALL
NO_CHARGE

@<TRIPOS>ATOM
      1 N          19.7064  -16.2653    9.1185 N.am      1 MOL    -0.2945
      2 N          18.4844  -17.4044   11.4255 N.am      1 MOL    -0.2983
      3 N          24.3785  -16.5107   11.5368 N.ar      1 MOL    -0.1750
      4 N          24.0027  -16.5553   12.8026 N.ar      1 MOL    -0.2425
      5 C          23.9939  -15.4005   13.6143 C.ar      1 MOL     0.2725
      6 C          24.3713  -14.1670   13.0272 C.ar      1 MOL     0.0496
      7 C          24.3887  -12.9828   13.7555 C.ar      1 MOL     0.0138
      8 C          24.8016  -11.7941   13.1529 C.ar      1 MOL     0.0008
      9 C          25.1915  -11.7765   11.8156 C.ar      1 MOL     0.0007
     10 C          25.1641  -12.9532   11.0717 C.ar      1 MOL     0.0103
     11 C          24.7561  -14.1613   11.6558 C.ar      1 MOL     0.0106
     12 C          24.7251  -15.3508   10.9137 C.ar      1 MOL     0.0736
     13 C          25.0615  -15.3803    9.4565 C.3       1 MOL     0.0925
     14 C          24.0649  -16.2077    8.7326 C.ar      1 MOL    -0.0406
     15 C          22.7475  -15.7947    8.5494 C.ar      1 MOL     0.0196
     16 C          21.8148  -16.6608    7.9575 C.ar      1 MOL     0.0723
     17 C          20.3698  -16.3195    7.9346 C.2       1 MOL     0.2495
     18 C          18.2480  -16.3267    9.1556 C.3       1 MOL     0.1268
     19 C          17.7469  -17.4098   10.1653 C.3       1 MOL     0.1265
     20 C          19.9419  -17.3043   11.3397 C.3       1 MOL     0.1265
     21 C          20.3609  -16.1382   10.4137 C.3       1 MOL     0.1268
     22 C          17.9800  -17.8804   12.6028 C.2       1 MOL     0.2187
     23 C          16.5348  -18.2023   12.6641 C.3       1 MOL     0.0752
     24 C          15.6995  -17.0198   13.0081 C.3       1 MOL     0.0134
     25 C          15.9645  -18.0831   14.0312 C.3       1 MOL     0.0134
     26 C          22.2431  -17.8843    7.4353 C.ar      1 MOL     0.1355
     27 C          23.5660  -18.2878    7.5868 C.ar      1 MOL     0.0392
     28 C          24.4553  -17.4541    8.2566 C.ar      1 MOL     0.0066
     29 O          23.6821  -15.5501   14.8092 O.2       1 MOL    -0.2658
     30 O          18.7066  -18.1186   13.5828 O.2       1 MOL    -0.2753
     31 O          19.8196  -16.2322    6.8327 O.2       1 MOL    -0.2699
     32 F          21.3774  -18.7047    6.7957 F         1 MOL    -0.2047
     33 H          24.0912  -12.9815   14.7949 H         1 MOL     0.0625
     34 H          24.8195  -10.8787   13.7279 H         1 MOL     0.0618
     35 H          25.5106  -10.8542   11.3557 H         1 MOL     0.0618
     36 H          25.4589  -12.9395   10.0320 H         1 MOL     0.0624
     37 H          26.0602  -15.8338    9.3348 H         1 MOL     0.0377
     38 H          25.0383  -14.3521    9.0630 H         1 MOL     0.0377
     39 H          22.4343  -14.8230    8.9008 H         1 MOL     0.0629
     40 H          17.8617  -16.5266    8.1301 H         1 MOL     0.0480
     41 H          17.8730  -15.3234    9.4727 H         1 MOL     0.0480
     42 H          17.8967  -18.4144    9.6946 H         1 MOL     0.0480
     43 H          16.6588  -17.2939   10.3702 H         1 MOL     0.0480
     44 H          20.3268  -18.2636   10.9129 H         1 MOL     0.0480
     45 H          20.3658  -17.1902   12.3612 H         1 MOL     0.0480
     46 H          21.4654  -16.1454   10.2604 H         1 MOL     0.0480
     47 H          20.0771  -15.1589   10.8615 H         1 MOL     0.0480
     48 H          16.1955  -18.9307   11.9722 H         1 MOL     0.0394
     49 H          14.6939  -16.9901   12.6030 H         1 MOL     0.0273
     50 H          16.1963  -16.0713   13.1674 H         1 MOL     0.0273
     51 H          15.1460  -18.7488   14.2750 H         1 MOL     0.0273
     52 H          16.6458  -17.8168   14.8307 H         1 MOL     0.0273
     53 H          23.9025  -19.2373    7.2014 H         1 MOL     0.0646
     54 H          25.4777  -17.7773    8.4092 H         1 MOL     0.0621
     55 H          23.7121  -17.4152   13.2288 H         1 MOL     0.1921
@<TRIPOS>BOND
     1    1   18 1 
     2    1   21 1 
     3    1   17 am
     4    2   20 1 
     5    2   22 am
     6    2   19 1 
     7    3    4 ar
     8    3   12 ar
     9    4   55 1 
    10    4    5 ar
    11    5    6 ar
    12    5   29 2 
    13    6    7 ar
    14    6   11 ar
    15    7    8 ar
    16    7   33 1 
    17    8    9 ar
    18    8   34 1 
    19    9   10 ar
    20    9   35 1 
    21   10   11 ar
    22   10   36 1 
    23   11   12 ar
    24   12   13 1 
    25   13   14 1 
    26   13   37 1 
    27   13   38 1 
    28   14   15 ar
    29   14   28 ar
    30   15   16 ar
    31   15   39 1 
    32   16   17 1 
    33   16   26 ar
    34   17   31 2 
    35   18   19 1 
    36   18   40 1 
    37   18   41 1 
    38   19   42 1 
    39   19   43 1 
    40   20   21 1 
    41   20   44 1 
    42   20   45 1 
    43   21   46 1 
    44   21   47 1 
    45   22   23 1 
    46   22   30 2 
    47   23   24 1 
    48   23   25 1 
    49   23   48 1 
    50   24   25 1 
    51   24   49 1 
    52   24   50 1 
    53   25   51 1 
    54   25   52 1 
    55   26   27 ar
    56   26   32 1 
    57   27   28 ar
    58   27   53 1 
    59   28   54 1 
@<TRIPOS>SUBSTRUCTURE
1 MOL         1
@<TRIPOS>MOLECULE
query molecule
   55    59     1     0     0
SMALL
NO_CHARGE

@<TRIPOS>ATOM
      1 N           4.6333   -2.3899   12.1834 N.am      1 MOL    -0.2945
      2 N           2.9009   -2.7626    9.9410 N.am      1 MOL    -0.2983
      3 N           8.6837   -7.2046   12.4802 N.ar      1 MOL    -0.1750
      4 N           8.8578   -8.2152   11.6359 N.ar      1 MOL    -0.2425
      5 C           9.9512   -8.2299   10.7461 C.ar      1 MOL     0.2725
      6 C          10.8420   -7.1361   10.7484 C.ar      1 MOL     0.0496
      7 C          11.9429   -7.0928    9.8878 C.ar      1 MOL     0.0138
      8 C          12.8057   -5.9974    9.9035 C.ar      1 MOL     0.0008
      9 C          12.5798   -4.9371   10.7815 C.ar      1 MOL     0.0007
     10 C          11.4898   -4.9719   11.6513 C.ar      1 MOL     0.0103
     11 C          10.6037   -6.0639   11.6575 C.ar      1 MOL     0.0106
     12 C           9.5121   -6.1291   12.5483 C.ar      1 MOL     0.0736
     13 C           9.3032   -5.0589   13.5538 C.3       1 MOL     0.0925
     14 C           7.9161   -4.8440   14.0007 C.ar      1 MOL    -0.0406
     15 C           7.2120   -3.7243   13.5450 C.ar      1 MOL     0.0196
     16 C           5.8983   -3.4959   13.9658 C.ar      1 MOL     0.0723
     17 C           5.1466   -2.3391   13.4366 C.2       1 MOL     0.2495
     18 C           3.8482   -1.2573   11.7016 C.3       1 MOL     0.1268
     19 C           2.5957   -1.7092   10.9001 C.3       1 MOL     0.1265
     20 C           3.6900   -3.8994   10.4088 C.3       1 MOL     0.1265
     21 C           4.9046   -3.4813   11.2616 C.3       1 MOL     0.1268
     22 C           2.2387   -2.9169    8.7562 C.2       1 MOL     0.2187
     23 C           1.0507   -2.0657    8.4856 C.3       1 MOL     0.0752
     24 C          -0.1140   -2.6396    9.2366 C.3       1 MOL     0.0134
     25 C          -0.0330   -2.7685    7.7442 C.3       1 MOL     0.0134
     26 C           5.3062   -4.3679   14.8791 C.ar      1 MOL     0.1355
     27 C           6.0032   -5.4813   15.3509 C.ar      1 MOL     0.0392
     28 C           7.3029   -5.7190   14.9007 C.ar      1 MOL     0.0066
     29 O          10.0789   -9.2224   10.0018 O.2       1 MOL    -0.2658
     30 O           2.5955   -3.7404    7.8982 O.2       1 MOL    -0.2753
     31 O           5.0030   -1.3776   14.2010 O.2       1 MOL    -0.2699
     32 F           4.0429   -4.1485   15.3164 F         1 MOL    -0.2047
     33 H          12.1242   -7.9141    9.2099 H         1 MOL     0.0625
     34 H          13.6537   -5.9723    9.2349 H         1 MOL     0.0618
     35 H          13.2493   -4.0897   10.7876 H         1 MOL     0.0618
     36 H          11.3253   -4.1465   12.3309 H         1 MOL     0.0624
     37 H           9.6613   -4.1045   13.1122 H         1 MOL     0.0377
     38 H           9.9164   -5.3023   14.4456 H         1 MOL     0.0377
     39 H           7.6828   -3.0333   12.8614 H         1 MOL     0.0629
     40 H           4.4979   -0.6418   11.0321 H         1 MOL     0.0480
     41 H           3.5625   -0.6177   12.5709 H         1 MOL     0.0480
     42 H           2.1643   -0.8375   10.3517 H         1 MOL     0.0480
     43 H           1.8199   -2.0967   11.6028 H         1 MOL     0.0480
     44 H           4.0198   -4.5043    9.5306 H         1 MOL     0.0480
     45 H           3.0206   -4.5413   11.0329 H         1 MOL     0.0480
     46 H           5.7273   -3.1642   10.5734 H         1 MOL     0.0480
     47 H           5.2820   -4.3563   11.8465 H         1 MOL     0.0480
     48 H           1.2045   -1.0220    8.4346 H         1 MOL     0.0394
     49 H          -0.8457   -1.9506    9.6350 H         1 MOL     0.0273
     50 H           0.0777   -3.5441    9.8044 H         1 MOL     0.0273
     51 H          -0.7375   -2.1653    7.1831 H         1 MOL     0.0273
     52 H           0.2018   -3.7484    7.3461 H         1 MOL     0.0273
     53 H           5.5434   -6.1562   16.0576 H         1 MOL     0.0646
     54 H           7.8442   -6.5834   15.2614 H         1 MOL     0.0621
     55 H           8.2263   -8.9948   11.5984 H         1 MOL     0.1921
@<TRIPOS>BOND
     1    1   18 1 
     2    1   21 1 
     3    1   17 am
     4    2   20 1 
     5    2   22 am
     6    2   19 1 
     7    3    4 ar
     8    3   12 ar
     9    4   55 1 
    10    4    5 ar
    11    5    6 ar
    12    5   29 2 
    13    6    7 ar
    14    6   11 ar
    15    7    8 ar
    16    7   33 1 
    17    8    9 ar
    18    8   34 1 
    19    9   10 ar
    20    9   35 1 
    21   10   11 ar
    22   10   36 1 
    23   11   12 ar
    24   12   13 1 
    25   13   14 1 
    26   13   37 1 
    27   13   38 1 
    28   14   15 ar
    29   14   28 ar
    30   15   16 ar
    31   15   39 1 
    32   16   17 1 
    33   16   26 ar
    34   17   31 2 
    35   18   19 1 
    36   18   40 1 
    37   18   41 1 
    38   19   42 1 
    39   19   43 1 
    40   20   21 1 
    41   20   44 1 
    42   20   45 1 
    43   21   46 1 
    44   21   47 1 
    45   22   23 1 
    46   22   30 2 
    47   23   24 1 
    48   23   25 1 
    49   23   48 1 
    50   24   25 1 
    51   24   49 1 
    52   24   50 1 
    53   25   51 1 
    54   25   52 1 
    55   26   27 ar
    56   26   32 1 
    57   27   28 ar
    58   27   53 1 
    59   28   54 1 
@<TRIPOS>SUBSTRUCTURE
1 MOL         1
@<TRIPOS>MOLECULE
query molecule
   55    59     1     0     0
SMALL
NO_CHARGE

@<TRIPOS>ATOM
      1 N          16.6995   10.2459   21.4824 N.am      1 MOL    -0.2945
      2 N          17.4060   10.5968   18.7505 N.am      1 MOL    -0.2983
      3 N          11.7711    9.5815   23.1424 N.ar      1 MOL    -0.1750
      4 N          11.1200    8.7854   22.3057 N.ar      1 MOL    -0.2425
      5 C          10.4106    7.6644   22.7904 C.ar      1 MOL     0.2725
      6 C          10.4155    7.4284   24.1848 C.ar      1 MOL     0.0496
      7 C           9.7062    6.3549   24.7325 C.ar      1 MOL     0.0138
      8 C           9.7364    6.1151   26.1084 C.ar      1 MOL     0.0008
      9 C          10.4733    6.9530   26.9506 C.ar      1 MOL     0.0007
     10 C          11.1646    8.0413   26.4183 C.ar      1 MOL     0.0103
     11 C          11.1460    8.3039   25.0385 C.ar      1 MOL     0.0106
     12 C          11.8218    9.4125   24.4951 C.ar      1 MOL     0.0736
     13 C          12.5537   10.3853   25.3732 C.3       1 MOL     0.0925
     14 C          13.5469   11.1946   24.6289 C.ar      1 MOL    -0.0406
     15 C          14.6807   10.5886   24.0800 C.ar      1 MOL     0.0196
     16 C          15.6008   11.3487   23.3527 C.ar      1 MOL     0.0723
     17 C          16.7616   10.6494   22.7680 C.2       1 MOL     0.2495
     18 C          17.7531    9.4033   20.9389 C.3       1 MOL     0.1268
     19 C          18.3889   10.0927   19.7018 C.3       1 MOL     0.1265
     20 C          16.2224   11.2765   19.2796 C.3       1 MOL     0.1265
     21 C          15.6389   10.5704   20.5445 C.3       1 MOL     0.1268
     22 C          17.6751   10.6975   17.4139 C.2       1 MOL     0.2187
     23 C          19.0486   10.3718   16.9482 C.3       1 MOL     0.0752
     24 C          19.8900   11.6079   17.0333 C.3       1 MOL     0.0134
     25 C          19.4478   11.0757   15.7059 C.3       1 MOL     0.0134
     26 C          15.3990   12.7178   23.1947 C.ar      1 MOL     0.1355
     27 C          14.2728   13.3339   23.7491 C.ar      1 MOL     0.0392
     28 C          13.3445   12.5711   24.4677 C.ar      1 MOL     0.0066
     29 O           9.8270    6.9438   21.9697 O.2       1 MOL    -0.2658
     30 O          16.8175   11.0237   16.5754 O.2       1 MOL    -0.2753
     31 O          17.7228   10.4340   23.5144 O.2       1 MOL    -0.2699
     32 F          16.2892   13.4659   22.5008 F         1 MOL    -0.2047
     33 H           9.1222    5.7082   24.0929 H         1 MOL     0.0625
     34 H           9.1859    5.2844   26.5319 H         1 MOL     0.0618
     35 H          10.5067    6.7630   28.0145 H         1 MOL     0.0618
     36 H          11.7205    8.6941   27.0782 H         1 MOL     0.0624
     37 H          13.0822    9.8247   26.1664 H         1 MOL     0.0377
     38 H          11.8149   11.0747   25.8258 H         1 MOL     0.0377
     39 H          14.8393    9.5285   24.2091 H         1 MOL     0.0629
     40 H          17.3022    8.4249   20.6476 H         1 MOL     0.0480
     41 H          18.5147    9.2109   21.7278 H         1 MOL     0.0480
     42 H          19.0828    9.3968   19.1747 H         1 MOL     0.0480
     43 H          18.9921   10.9633   20.0628 H         1 MOL     0.0480
     44 H          15.4575   11.3586   18.4738 H         1 MOL     0.0480
     45 H          16.5259   12.3136   19.5682 H         1 MOL     0.0480
     46 H          15.1416    9.6159   20.2442 H         1 MOL     0.0480
     47 H          14.8786   11.2093   21.0461 H         1 MOL     0.0480
     48 H          19.4376    9.4348   17.2436 H         1 MOL     0.0394
     49 H          20.9385   11.4855   17.2782 H         1 MOL     0.0273
     50 H          19.4085   12.5235   17.3563 H         1 MOL     0.0273
     51 H          20.2199   10.6066   15.1056 H         1 MOL     0.0273
     52 H          18.6774   11.6238   15.1801 H         1 MOL     0.0273
     53 H          14.1143   14.3952   23.6244 H         1 MOL     0.0646
     54 H          12.4714   13.0431   24.8951 H         1 MOL     0.0621
     55 H          11.1026    8.9500   21.3135 H         1 MOL     0.1921
@<TRIPOS>BOND
     1    1   18 1 
     2    1   21 1 
     3    1   17 am
     4    2   20 1 
     5    2   22 am
     6    2   19 1 
     7    3    4 ar
     8    3   12 ar
     9    4   55 1 
    10    4    5 ar
    11    5    6 ar
    12    5   29 2 
    13    6    7 ar
    14    6   11 ar
    15    7    8 ar
    16    7   33 1 
    17    8    9 ar
    18    8   34 1 
    19    9   10 ar
    20    9   35 1 
    21   10   11 ar
    22   10   36 1 
    23   11   12 ar
    24   12   13 1 
    25   13   14 1 
    26   13   37 1 
    27   13   38 1 
    28   14   15 ar
    29   14   28 ar
    30   15   16 ar
    31   15   39 1 
    32   16   17 1 
    33   16   26 ar
    34   17   31 2 
    35   18   19 1 
    36   18   40 1 
    37   18   41 1 
    38   19   42 1 
    39   19   43 1 
    40   20   21 1 
    41   20   44 1 
    42   20   45 1 
    43   21   46 1 
    44   21   47 1 
    45   22   23 1 
    46   22   30 2 
    47   23   24 1 
    48   23   25 1 
    49   23   48 1 
    50   24   25 1 
    51   24   49 1 
    52   24   50 1 
    53   25   51 1 
    54   25   52 1 
    55   26   27 ar
    56   26   32 1 
    57   27   28 ar
    58   27   53 1 
    59   28   54 1 
@<TRIPOS>SUBSTRUCTURE
1 MOL         1
@<TRIPOS>MOLECULE
query molecule
   55    59     1     0     0
SMALL
NO_CHARGE

@<TRIPOS>ATOM
      1 N          -2.1602  -12.2011   28.1339 N.am      1 MOL    -0.2945
      2 N          -1.1903  -10.5932   30.2962 N.am      1 MOL    -0.2983
      3 N           1.9087  -16.3896   27.7699 N.ar      1 MOL    -0.1750
      4 N           2.5445  -16.7701   28.8779 N.ar      1 MOL    -0.2425
      5 C           2.0694  -17.8540   29.6428 C.ar      1 MOL     0.2725
      6 C           0.9011  -18.5161   29.2268 C.ar      1 MOL     0.0496
      7 C           0.3899  -19.6050   29.9386 C.ar      1 MOL     0.0138
      8 C          -0.7750  -20.2416   29.5095 C.ar      1 MOL     0.0008
      9 C          -1.4418  -19.7927   28.3683 C.ar      1 MOL     0.0007
     10 C          -0.9362  -18.7126   27.6473 C.ar      1 MOL     0.0103
     11 C           0.2432  -18.0631   28.0479 C.ar      1 MOL     0.0106
     12 C           0.8047  -17.0205   27.2830 C.ar      1 MOL     0.0736
     13 C           0.2667  -16.7219   25.9381 C.3       1 MOL     0.0925
     14 C          -0.2798  -15.4169   25.6434 C.ar      1 MOL    -0.0406
     15 C          -1.1330  -14.7280   26.4906 C.ar      1 MOL     0.0196
     16 C          -1.6694  -13.4898   26.1089 C.ar      1 MOL     0.0723
     17 C          -2.6145  -12.8101   27.0063 C.2       1 MOL     0.2495
     18 C          -3.0997  -11.5246   29.0143 C.3       1 MOL     0.1268
     19 C          -2.4914  -10.2857   29.7222 C.3       1 MOL     0.1265
     20 C          -0.2342  -11.2604   29.4232 C.3       1 MOL     0.1265
     21 C          -0.8290  -12.4382   28.6492 C.3       1 MOL     0.1268
     22 C          -0.6169   -9.9190   31.3374 C.2       1 MOL     0.2187
     23 C          -1.1890   -8.6109   31.7452 C.3       1 MOL     0.0752
     24 C          -0.7371   -7.5806   30.7491 C.3       1 MOL     0.0134
     25 C          -0.1258   -7.6328   32.1182 C.3       1 MOL     0.0134
     26 C          -1.3101  -12.9300   24.8747 C.ar      1 MOL     0.1355
     27 C          -0.4504  -13.6206   24.0120 C.ar      1 MOL     0.0392
     28 C           0.0526  -14.8598   24.4017 C.ar      1 MOL     0.0066
     29 O           2.7072  -18.1736   30.6689 O.2       1 MOL    -0.2658
     30 O           0.3916  -10.3360   31.9311 O.2       1 MOL    -0.2753
     31 O          -3.7819  -12.7579   26.6226 O.2       1 MOL    -0.2699
     32 F          -1.7772  -11.7145   24.4917 F         1 MOL    -0.2047
     33 H           0.8991  -19.9551   30.8251 H         1 MOL     0.0625
     34 H          -1.1650  -21.0841   30.0615 H         1 MOL     0.0618
     35 H          -2.3464  -20.2823   28.0413 H         1 MOL     0.0618
     36 H          -1.4521  -18.3754   26.7577 H         1 MOL     0.0624
     37 H          -0.5244  -17.4721   25.7218 H         1 MOL     0.0377
     38 H           1.1064  -16.8789   25.2222 H         1 MOL     0.0377
     39 H          -1.4001  -15.1392   27.4505 H         1 MOL     0.0629
     40 H          -3.3994  -12.2701   29.8018 H         1 MOL     0.0480
     41 H          -4.0061  -11.2550   28.4254 H         1 MOL     0.0480
     42 H          -3.1728   -9.9348   30.5336 H         1 MOL     0.0480
     43 H          -2.3567   -9.4448   29.0052 H         1 MOL     0.0480
     44 H           0.6315  -11.5936   30.0499 H         1 MOL     0.0480
     45 H           0.1473  -10.4848   28.7135 H         1 MOL     0.0480
     46 H          -0.9140  -13.2871   29.3823 H         1 MOL     0.0480
     47 H          -0.1432  -12.7540   27.8257 H         1 MOL     0.0480
     48 H          -2.1681   -8.6057   32.1354 H         1 MOL     0.0394
     49 H          -1.3991   -6.7480   30.5484 H         1 MOL     0.0273
     50 H          -0.1103   -7.9223   29.9331 H         1 MOL     0.0273
     51 H          -0.4082   -6.8433   32.8010 H         1 MOL     0.0273
     52 H           0.8810   -8.0288   32.1913 H         1 MOL     0.0273
     53 H          -0.1764  -13.1951   23.0578 H         1 MOL     0.0646
     54 H           0.7155  -15.3985   23.7396 H         1 MOL     0.0621
     55 H           3.3725  -16.3060   29.2089 H         1 MOL     0.1921
@<TRIPOS>BOND
     1    1   18 1 
     2    1   21 1 
     3    1   17 am
     4    2   20 1 
     5    2   22 am
     6    2   19 1 
     7    3    4 ar
     8    3   12 ar
     9    4   55 1 
    10    4    5 ar
    11    5    6 ar
    12    5   29 2 
    13    6    7 ar
    14    6   11 ar
    15    7    8 ar
    16    7   33 1 
    17    8    9 ar
    18    8   34 1 
    19    9   10 ar
    20    9   35 1 
    21   10   11 ar
    22   10   36 1 
    23   11   12 ar
    24   12   13 1 
    25   13   14 1 
    26   13   37 1 
    27   13   38 1 
    28   14   15 ar
    29   14   28 ar
    30   15   16 ar
    31   15   39 1 
    32   16   17 1 
    33   16   26 ar
    34   17   31 2 
    35   18   19 1 
    36   18   40 1 
    37   18   41 1 
    38   19   42 1 
    39   19   43 1 
    40   20   21 1 
    41   20   44 1 
    42   20   45 1 
    43   21   46 1 
    44   21   47 1 
    45   22   23 1 
    46   22   30 2 
    47   23   24 1 
    48   23   25 1 
    49   23   48 1 
    50   24   25 1 
    51   24   49 1 
    52   24   50 1 
    53   25   51 1 
    54   25   52 1 
    55   26   27 ar
    56   26   32 1 
    57   27   28 ar
    58   27   53 1 
    59   28   54 1 
@<TRIPOS>SUBSTRUCTURE
1 MOL         1
@<TRIPOS>MOLECULE
query molecule
   55    59     1     0     0
SMALL
NO_CHARGE

@<TRIPOS>ATOM
      1 N          40.1318  -17.1909   10.2993 N.am      1 MOL    -0.2945
      2 N          38.4604  -15.9217    8.3553 N.am      1 MOL    -0.2983
      3 N          40.3493  -15.7698   16.8864 N.ar      1 MOL    -0.1750
      4 N          40.2386  -14.5774   17.4592 N.ar      1 MOL    -0.2425
      5 C          41.3966  -13.8528   17.8037 C.ar      1 MOL     0.2725
      6 C          42.6579  -14.4012   17.4926 C.ar      1 MOL     0.0496
      7 C          43.8327  -13.7168   17.8034 C.ar      1 MOL     0.0138
      8 C          45.0784  -14.2400   17.4624 C.ar      1 MOL     0.0008
      9 C          45.1573  -15.4722   16.8143 C.ar      1 MOL     0.0007
     10 C          43.9909  -16.1806   16.5155 C.ar      1 MOL     0.0103
     11 C          42.7253  -15.6679   16.8493 C.ar      1 MOL     0.0106
     12 C          41.5354  -16.3695   16.5750 C.ar      1 MOL     0.0736
     13 C          41.5829  -17.7427   15.9834 C.3       1 MOL     0.0925
     14 C          40.5782  -17.9560   14.9202 C.ar      1 MOL    -0.0406
     15 C          40.9859  -17.9461   13.5819 C.ar      1 MOL     0.0196
     16 C          40.0488  -18.1402   12.5573 C.ar      1 MOL     0.0723
     17 C          40.5380  -18.1430   11.1636 C.2       1 MOL     0.2495
     18 C          40.4675  -17.3170    8.8836 C.3       1 MOL     0.1268
     19 C          39.2211  -17.1042    7.9698 C.3       1 MOL     0.1265
     20 C          38.1440  -15.7985    9.7794 C.3       1 MOL     0.1265
     21 C          39.4131  -15.9839   10.6720 C.3       1 MOL     0.1268
     22 C          37.8994  -15.0505    7.4685 C.2       1 MOL     0.2187
     23 C          38.1241  -15.2781    6.0149 C.3       1 MOL     0.0752
     24 C          37.1352  -14.5758    5.1534 C.3       1 MOL     0.0134
     25 C          37.0075  -16.0538    5.3876 C.3       1 MOL     0.0134
     26 C          38.7087  -18.3479   12.8835 C.ar      1 MOL     0.1355
     27 C          38.2999  -18.3824   14.2185 C.ar      1 MOL     0.0392
     28 C          39.2349  -18.1855   15.2375 C.ar      1 MOL     0.0066
     29 O          41.2451  -12.7576   18.3686 O.2       1 MOL    -0.2658
     30 O          37.2477  -14.0578    7.8354 O.2       1 MOL    -0.2753
     31 O          41.2948  -19.0716   10.8538 O.2       1 MOL    -0.2699
     32 F          37.7855  -18.5283   11.9094 F         1 MOL    -0.2047
     33 H          43.7748  -12.7600   18.3056 H         1 MOL     0.0625
     34 H          45.9792  -13.6939   17.6992 H         1 MOL     0.0618
     35 H          46.1214  -15.8800   16.5483 H         1 MOL     0.0618
     36 H          44.0665  -17.1410   16.0230 H         1 MOL     0.0624
     37 H          41.4096  -18.4823   16.7866 H         1 MOL     0.0377
     38 H          42.5879  -17.8935   15.5405 H         1 MOL     0.0377
     39 H          42.0257  -17.7918   13.3337 H         1 MOL     0.0629
     40 H          40.9384  -18.3098    8.7030 H         1 MOL     0.0480
     41 H          41.2281  -16.5323    8.6448 H         1 MOL     0.0480
     42 H          38.5527  -17.9946    8.0697 H         1 MOL     0.0480
     43 H          39.5187  -17.0198    6.9007 H         1 MOL     0.0480
     44 H          37.4094  -16.6005   10.0396 H         1 MOL     0.0480
     45 H          37.6594  -14.8155    9.9680 H         1 MOL     0.0480
     46 H          39.1444  -16.0409   11.7512 H         1 MOL     0.0480
     47 H          40.1011  -15.1160   10.5323 H         1 MOL     0.0480
     48 H          39.1298  -15.4174    5.7129 H         1 MOL     0.0394
     49 H          37.4554  -14.2673    4.1674 H         1 MOL     0.0273
     50 H          36.4168  -13.9441    5.6651 H         1 MOL     0.0273
     51 H          37.2413  -16.6923    4.5459 H         1 MOL     0.0273
     52 H          36.2044  -16.3722    6.0430 H         1 MOL     0.0273
     53 H          37.2636  -18.5558   14.4680 H         1 MOL     0.0646
     54 H          38.9240  -18.2057   16.2717 H         1 MOL     0.0621
     55 H          39.3608  -14.1344   17.6736 H         1 MOL     0.1921
@<TRIPOS>BOND
     1    1   18 1 
     2    1   21 1 
     3    1   17 am
     4    2   20 1 
     5    2   22 am
     6    2   19 1 
     7    3    4 ar
     8    3   12 ar
     9    4   55 1 
    10    4    5 ar
    11    5    6 ar
    12    5   29 2 
    13    6    7 ar
    14    6   11 ar
    15    7    8 ar
    16    7   33 1 
    17    8    9 ar
    18    8   34 1 
    19    9   10 ar
    20    9   35 1 
    21   10   11 ar
    22   10   36 1 
    23   11   12 ar
    24   12   13 1 
    25   13   14 1 
    26   13   37 1 
    27   13   38 1 
    28   14   15 ar
    29   14   28 ar
    30   15   16 ar
    31   15   39 1 
    32   16   17 1 
    33   16   26 ar
    34   17   31 2 
    35   18   19 1 
    36   18   40 1 
    37   18   41 1 
    38   19   42 1 
    39   19   43 1 
    40   20   21 1 
    41   20   44 1 
    42   20   45 1 
    43   21   46 1 
    44   21   47 1 
    45   22   23 1 
    46   22   30 2 
    47   23   24 1 
    48   23   25 1 
    49   23   48 1 
    50   24   25 1 
    51   24   49 1 
    52   24   50 1 
    53   25   51 1 
    54   25   52 1 
    55   26   27 ar
    56   26   32 1 
    57   27   28 ar
    58   27   53 1 
    59   28   54 1 
@<TRIPOS>SUBSTRUCTURE
1 MOL         1
@<TRIPOS>MOLECULE
query molecule
   55    59     1     0     0
SMALL
NO_CHARGE

@<TRIPOS>ATOM
      1 N           4.6239    1.9182   15.4800 N.am      1 MOL    -0.2945
      2 N           3.6981    2.2270   12.8191 N.am      1 MOL    -0.2983
      3 N           6.0481   -4.4205   19.9064 N.ar      1 MOL    -0.1750
      4 N           5.7883   -5.7225   19.8595 N.ar      1 MOL    -0.2425
      5 C           5.5409   -6.3877   18.6401 C.ar      1 MOL     0.2725
      6 C           5.6407   -5.6509   17.4413 C.ar      1 MOL     0.0496
      7 C           5.4735   -6.2684   16.1964 C.ar      1 MOL     0.0138
      8 C           5.5950   -5.5244   15.0216 C.ar      1 MOL     0.0008
      9 C           5.8776   -4.1592   15.0825 C.ar      1 MOL     0.0007
     10 C           6.0385   -3.5388   16.3198 C.ar      1 MOL     0.0103
     11 C           5.9253   -4.2592   17.5192 C.ar      1 MOL     0.0106
     12 C           6.0717   -3.6465   18.7786 C.ar      1 MOL     0.0736
     13 C           6.2550   -2.1724   18.9426 C.3       1 MOL     0.0925
     14 C           5.0599   -1.3702   18.5713 C.ar      1 MOL    -0.0406
     15 C           5.2717   -0.1394   17.9333 C.ar      1 MOL     0.0196
     16 C           4.1926    0.6400   17.5105 C.ar      1 MOL     0.0723
     17 C           4.4504    1.9194   16.8189 C.2       1 MOL     0.2495
     18 C           4.8874    3.1711   14.7870 C.3       1 MOL     0.1268
     19 C           3.8430    3.4073   13.6579 C.3       1 MOL     0.1265
     20 C           3.5530    0.9266   13.4866 C.3       1 MOL     0.1265
     21 C           4.5868    0.7380   14.6343 C.3       1 MOL     0.1268
     22 C           3.3857    2.2798   11.4863 C.2       1 MOL     0.2187
     23 C           3.1838    3.6117   10.8547 C.3       1 MOL     0.0752
     24 C           3.4591    3.5723    9.3902 C.3       1 MOL     0.0134
     25 C           4.4371    4.2185   10.3328 C.3       1 MOL     0.0134
     26 C           2.8919    0.1996   17.7427 C.ar      1 MOL     0.1355
     27 C           2.6644   -1.0117   18.3979 C.ar      1 MOL     0.0392
     28 C           3.7482   -1.7919   18.8157 C.ar      1 MOL     0.0066
     29 O           5.2405   -7.5918   18.6845 O.2       1 MOL    -0.2658
     30 O           3.2161    1.2515   10.8152 O.2       1 MOL    -0.2753
     31 O           4.4772    2.9395   17.5143 O.2       1 MOL    -0.2699
     32 F           1.8358    0.9410   17.3316 F         1 MOL    -0.2047
     33 H           5.2530   -7.3251   16.1429 H         1 MOL     0.0625
     34 H           5.4688   -6.0053   14.0624 H         1 MOL     0.0618
     35 H           5.9682   -3.5836   14.1735 H         1 MOL     0.0618
     36 H           6.2514   -2.4782   16.3581 H         1 MOL     0.0624
     37 H           7.1006   -1.8531   18.3039 H         1 MOL     0.0377
     38 H           6.4851   -1.9730   20.0075 H         1 MOL     0.0377
     39 H           6.2803    0.2067   17.7551 H         1 MOL     0.0629
     40 H           5.9097    3.1041   14.3388 H         1 MOL     0.0480
     41 H           4.8945    4.0068   15.5195 H         1 MOL     0.0480
     42 H           4.1331    4.2726   13.0210 H         1 MOL     0.0480
     43 H           2.8565    3.6357   14.1283 H         1 MOL     0.0480
     44 H           3.6334    0.1120   12.7316 H         1 MOL     0.0480
     45 H           2.5282    0.8743   13.9327 H         1 MOL     0.0480
     46 H           5.6052    0.5971   14.1957 H         1 MOL     0.0480
     47 H           4.3533   -0.1559   15.2530 H         1 MOL     0.0480
     48 H           2.4066    4.2109   11.2556 H         1 MOL     0.0394
     49 H           2.8555    4.2057    8.7564 H         1 MOL     0.0273
     50 H           3.7328    2.5912    9.0112 H         1 MOL     0.0273
     51 H           4.4942    5.2981   10.2540 H         1 MOL     0.0273
     52 H           5.3582    3.6805   10.5171 H         1 MOL     0.0273
     53 H           1.6536   -1.3466   18.5791 H         1 MOL     0.0646
     54 H           3.5704   -2.7300   19.3217 H         1 MOL     0.0621
     55 H           5.7606   -6.3075   20.6790 H         1 MOL     0.1921
@<TRIPOS>BOND
     1    1   18 1 
     2    1   21 1 
     3    1   17 am
     4    2   20 1 
     5    2   22 am
     6    2   19 1 
     7    3    4 ar
     8    3   12 ar
     9    4   55 1 
    10    4    5 ar
    11    5    6 ar
    12    5   29 2 
    13    6    7 ar
    14    6   11 ar
    15    7    8 ar
    16    7   33 1 
    17    8    9 ar
    18    8   34 1 
    19    9   10 ar
    20    9   35 1 
    21   10   11 ar
    22   10   36 1 
    23   11   12 ar
    24   12   13 1 
    25   13   14 1 
    26   13   37 1 
    27   13   38 1 
    28   14   15 ar
    29   14   28 ar
    30   15   16 ar
    31   15   39 1 
    32   16   17 1 
    33   16   26 ar
    34   17   31 2 
    35   18   19 1 
    36   18   40 1 
    37   18   41 1 
    38   19   42 1 
    39   19   43 1 
    40   20   21 1 
    41   20   44 1 
    42   20   45 1 
    43   21   46 1 
    44   21   47 1 
    45   22   23 1 
    46   22   30 2 
    47   23   24 1 
    48   23   25 1 
    49   23   48 1 
    50   24   25 1 
    51   24   49 1 
    52   24   50 1 
    53   25   51 1 
    54   25   52 1 
    55   26   27 ar
    56   26   32 1 
    57   27   28 ar
    58   27   53 1 
    59   28   54 1 
@<TRIPOS>SUBSTRUCTURE
1 MOL         1
@<TRIPOS>MOLECULE
query molecule
   55    59     1     0     0
SMALL
NO_CHARGE

@<TRIPOS>ATOM
      1 N           8.8002    7.1848   21.3796 N.am      1 MOL    -0.2945
      2 N           7.0829    8.6017   19.6205 N.am      1 MOL    -0.2983
      3 N          15.1698    8.4913   21.7769 N.ar      1 MOL    -0.1750
      4 N          16.4020    8.0300   21.6063 N.ar      1 MOL    -0.2425
      5 C          17.5195    8.7496   22.0805 C.ar      1 MOL     0.2725
      6 C          17.2989    9.9629   22.7573 C.ar      1 MOL     0.0496
      7 C          18.3760   10.6980   23.2605 C.ar      1 MOL     0.0138
      8 C          18.1507   11.8982   23.9319 C.ar      1 MOL     0.0008
      9 C          16.8471   12.3670   24.1020 C.ar      1 MOL     0.0007
     10 C          15.7662   11.6395   23.5976 C.ar      1 MOL     0.0103
     11 C          15.9644   10.4289   22.9148 C.ar      1 MOL     0.0106
     12 C          14.8947    9.6821   22.3851 C.ar      1 MOL     0.0736
     13 C          13.4837   10.1740   22.4613 C.3       1 MOL     0.0925
     14 C          12.5622    9.1659   23.0304 C.ar      1 MOL    -0.0406
     15 C          11.7260    8.4469   22.1685 C.ar      1 MOL     0.0196
     16 C          10.8494    7.4851   22.6740 C.ar      1 MOL     0.0723
     17 C          10.0038    6.7021   21.7507 C.2       1 MOL     0.2495
     18 C           7.9624    6.4198   20.4618 C.3       1 MOL     0.1268
     19 C           7.5835    7.2875   19.2258 C.3       1 MOL     0.1265
     20 C           7.8128    9.3341   20.6574 C.3       1 MOL     0.1265
     21 C           8.2332    8.4356   21.8523 C.3       1 MOL     0.1268
     22 C           6.1719    9.3055   18.8846 C.2       1 MOL     0.2187
     23 C           5.6373    8.6764   17.6518 C.3       1 MOL     0.0752
     24 C           6.4426    9.1264   16.4734 C.3       1 MOL     0.0134
     25 C           5.0420    9.6272   16.6780 C.3       1 MOL     0.0134
     26 C          10.7994    7.2566   24.0487 C.ar      1 MOL     0.1355
     27 C          11.6268    7.9709   24.9162 C.ar      1 MOL     0.0392
     28 C          12.5093    8.9289   24.4081 C.ar      1 MOL     0.0066
     29 O          18.6475    8.2780   21.8759 O.2       1 MOL    -0.2658
     30 O           5.7665   10.4283   19.2235 O.2       1 MOL    -0.2753
     31 O          10.4658    5.6283   21.3485 O.2       1 MOL    -0.2699
     32 F           9.9574    6.3240   24.5530 F         1 MOL    -0.2047
     33 H          19.3842   10.3365   23.1250 H         1 MOL     0.0625
     34 H          18.9842   12.4661   24.3185 H         1 MOL     0.0618
     35 H          16.6727   13.2963   24.6246 H         1 MOL     0.0618
     36 H          14.7613   12.0146   23.7351 H         1 MOL     0.0624
     37 H          13.1450   10.4133   21.4349 H         1 MOL     0.0377
     38 H          13.4552   11.0787   23.0952 H         1 MOL     0.0377
     39 H          11.7639    8.6338   21.1046 H         1 MOL     0.0629
     40 H           7.0308    6.1317   21.0089 H         1 MOL     0.0480
     41 H           8.4905    5.4879   20.1651 H         1 MOL     0.0480
     42 H           6.8188    6.7782   18.5965 H         1 MOL     0.0480
     43 H           8.4985    7.4375   18.6012 H         1 MOL     0.0480
     44 H           7.2187   10.2159   20.9831 H         1 MOL     0.0480
     45 H           8.7533    9.7218   20.1857 H         1 MOL     0.0480
     46 H           7.3356    8.2036   22.4732 H         1 MOL     0.0480
     47 H           8.9759    8.9565   22.4981 H         1 MOL     0.0480
     48 H           5.3131    7.6721   17.7411 H         1 MOL     0.0394
     49 H           6.5834    8.4103   15.6717 H         1 MOL     0.0273
     50 H           7.2370    9.8392   16.6534 H         1 MOL     0.0273
     51 H           4.2824    9.2327   16.0131 H         1 MOL     0.0273
     52 H           4.9307   10.6543   17.0028 H         1 MOL     0.0273
     53 H          11.5836    7.7808   25.9781 H         1 MOL     0.0646
     54 H          13.1471    9.4853   25.0784 H         1 MOL     0.0621
     55 H          16.5917    7.1597   21.1439 H         1 MOL     0.1921
@<TRIPOS>BOND
     1    1   18 1 
     2    1   21 1 
     3    1   17 am
     4    2   20 1 
     5    2   22 am
     6    2   19 1 
     7    3    4 ar
     8    3   12 ar
     9    4   55 1 
    10    4    5 ar
    11    5    6 ar
    12    5   29 2 
    13    6    7 ar
    14    6   11 ar
    15    7    8 ar
    16    7   33 1 
    17    8    9 ar
    18    8   34 1 
    19    9   10 ar
    20    9   35 1 
    21   10   11 ar
    22   10   36 1 
    23   11   12 ar
    24   12   13 1 
    25   13   14 1 
    26   13   37 1 
    27   13   38 1 
    28   14   15 ar
    29   14   28 ar
    30   15   16 ar
    31   15   39 1 
    32   16   17 1 
    33   16   26 ar
    34   17   31 2 
    35   18   19 1 
    36   18   40 1 
    37   18   41 1 
    38   19   42 1 
    39   19   43 1 
    40   20   21 1 
    41   20   44 1 
    42   20   45 1 
    43   21   46 1 
    44   21   47 1 
    45   22   23 1 
    46   22   30 2 
    47   23   24 1 
    48   23   25 1 
    49   23   48 1 
    50   24   25 1 
    51   24   49 1 
    52   24   50 1 
    53   25   51 1 
    54   25   52 1 
    55   26   27 ar
    56   26   32 1 
    57   27   28 ar
    58   27   53 1 
    59   28   54 1 
@<TRIPOS>SUBSTRUCTURE
1 MOL         1
@<TRIPOS>MOLECULE
query molecule
   55    59     1     0     0
SMALL
NO_CHARGE

@<TRIPOS>ATOM
      1 N          44.4508  -12.2074   26.7360 N.am      1 MOL    -0.2945
      2 N          44.9792  -10.4317   28.8954 N.am      1 MOL    -0.2983
      3 N          42.4501  -15.2729   30.3857 N.ar      1 MOL    -0.1750
      4 N          41.6761  -14.7758   31.3388 N.ar      1 MOL    -0.2425
      5 C          40.8240  -15.6127   32.1010 C.ar      1 MOL     0.2725
      6 C          40.8213  -17.0018   31.8051 C.ar      1 MOL     0.0496
      7 C          40.0174  -17.8960   32.5218 C.ar      1 MOL     0.0138
      8 C          40.0327  -19.2633   32.2221 C.ar      1 MOL     0.0008
      9 C          40.8388  -19.7411   31.1884 C.ar      1 MOL     0.0007
     10 C          41.6429  -18.8623   30.4670 C.ar      1 MOL     0.0103
     11 C          41.6577  -17.4913   30.7622 C.ar      1 MOL     0.0106
     12 C          42.4867  -16.5980   30.0580 C.ar      1 MOL     0.0736
     13 C          43.4095  -17.0816   28.9847 C.3       1 MOL     0.0925
     14 C          43.2066  -16.3550   27.7116 C.ar      1 MOL    -0.0406
     15 C          43.9496  -15.1980   27.4510 C.ar      1 MOL     0.0196
     16 C          43.7656  -14.5040   26.2513 C.ar      1 MOL     0.0723
     17 C          44.5671  -13.3031   25.9599 C.2       1 MOL     0.2495
     18 C          45.4212  -11.1286   26.5558 C.3       1 MOL     0.1268
     19 C          46.0268  -10.7145   27.9242 C.3       1 MOL     0.1265
     20 C          43.9638  -11.4813   29.0605 C.3       1 MOL     0.1265
     21 C          43.3875  -11.9684   27.6965 C.3       1 MOL     0.1268
     22 C          45.0611   -9.4674   29.8519 C.2       1 MOL     0.2187
     23 C          46.1494   -8.4712   29.8409 C.3       1 MOL     0.0752
     24 C          45.5634   -7.1163   29.5700 C.3       1 MOL     0.0134
     25 C          46.4750   -7.7666   28.5811 C.3       1 MOL     0.0134
     26 C          42.8418  -14.9698   25.3176 C.ar      1 MOL     0.1355
     27 C          42.0999  -16.1230   25.5642 C.ar      1 MOL     0.0392
     28 C          42.2899  -16.8194   26.7630 C.ar      1 MOL     0.0066
     29 O          40.1364  -15.0881   32.9806 O.2       1 MOL    -0.2658
     30 O          44.2682   -9.4306   30.8112 O.2       1 MOL    -0.2753
     31 O          45.3615  -13.3924   25.0159 O.2       1 MOL    -0.2699
     32 F          42.6632  -14.3035   24.1551 F         1 MOL    -0.2047
     33 H          39.3780  -17.5330   33.3134 H         1 MOL     0.0625
     34 H          39.4154  -19.9500   32.7827 H         1 MOL     0.0618
     35 H          40.8417  -20.7941   30.9456 H         1 MOL     0.0618
     36 H          42.2692  -19.2395   29.6716 H         1 MOL     0.0624
     37 H          43.2149  -18.1563   28.8140 H         1 MOL     0.0377
     38 H          44.4515  -16.9269   29.3190 H         1 MOL     0.0377
     39 H          44.6695  -14.8472   28.1763 H         1 MOL     0.0629
     40 H          44.8875  -10.2586   26.1002 H         1 MOL     0.0480
     41 H          46.2103  -11.4559   25.8432 H         1 MOL     0.0480
     42 H          46.6765   -9.8154   27.8238 H         1 MOL     0.0480
     43 H          46.6529  -11.5505   28.3167 H         1 MOL     0.0480
     44 H          43.1544  -11.1067   29.7278 H         1 MOL     0.0480
     45 H          44.4521  -12.3484   29.5698 H         1 MOL     0.0480
     46 H          42.7196  -11.1762   27.2776 H         1 MOL     0.0480
     47 H          42.7839  -12.8941   27.8231 H         1 MOL     0.0480
     48 H          46.8491   -8.5798   30.6367 H         1 MOL     0.0394
     49 H          45.9796   -6.2783   30.1166 H         1 MOL     0.0273
     50 H          44.5248   -7.0558   29.2723 H         1 MOL     0.0273
     51 H          47.4771   -7.3513   28.5196 H         1 MOL     0.0273
     52 H          46.0461   -8.1615   27.6703 H         1 MOL     0.0273
     53 H          41.3860  -16.4741   24.8358 H         1 MOL     0.0646
     54 H          41.7201  -17.7159   26.9592 H         1 MOL     0.0621
     55 H          41.6614  -13.7954   31.5639 H         1 MOL     0.1921
@<TRIPOS>BOND
     1    1   18 1 
     2    1   21 1 
     3    1   17 am
     4    2   20 1 
     5    2   22 am
     6    2   19 1 
     7    3    4 ar
     8    3   12 ar
     9    4   55 1 
    10    4    5 ar
    11    5    6 ar
    12    5   29 2 
    13    6    7 ar
    14    6   11 ar
    15    7    8 ar
    16    7   33 1 
    17    8    9 ar
    18    8   34 1 
    19    9   10 ar
    20    9   35 1 
    21   10   11 ar
    22   10   36 1 
    23   11   12 ar
    24   12   13 1 
    25   13   14 1 
    26   13   37 1 
    27   13   38 1 
    28   14   15 ar
    29   14   28 ar
    30   15   16 ar
    31   15   39 1 
    32   16   17 1 
    33   16   26 ar
    34   17   31 2 
    35   18   19 1 
    36   18   40 1 
    37   18   41 1 
    38   19   42 1 
    39   19   43 1 
    40   20   21 1 
    41   20   44 1 
    42   20   45 1 
    43   21   46 1 
    44   21   47 1 
    45   22   23 1 
    46   22   30 2 
    47   23   24 1 
    48   23   25 1 
    49   23   48 1 
    50   24   25 1 
    51   24   49 1 
    52   24   50 1 
    53   25   51 1 
    54   25   52 1 
    55   26   27 ar
    56   26   32 1 
    57   27   28 ar
    58   27   53 1 
    59   28   54 1 
@<TRIPOS>SUBSTRUCTURE
1 MOL         1
@<TRIPOS>MOLECULE
query molecule
   55    59     1     0     0
SMALL
NO_CHARGE

@<TRIPOS>ATOM
      1 N          44.4770  -10.1687   30.2435 N.am      1 MOL    -0.2945
      2 N          45.0939   -7.4523   30.6855 N.am      1 MOL    -0.2983
      3 N          45.9371  -11.9319   23.5707 N.ar      1 MOL    -0.1750
      4 N          46.1286  -10.9566   22.6931 N.ar      1 MOL    -0.2425
      5 C          46.9041   -9.8378   23.0209 C.ar      1 MOL     0.2725
      6 C          47.4915   -9.7953   24.3022 C.ar      1 MOL     0.0496
      7 C          48.3355   -8.7373   24.6604 C.ar      1 MOL     0.0138
      8 C          48.9014   -8.6877   25.9323 C.ar      1 MOL     0.0008
      9 C          48.6365   -9.6986   26.8567 C.ar      1 MOL     0.0007
     10 C          47.8056  -10.7685   26.5028 C.ar      1 MOL     0.0103
     11 C          47.2188  -10.8423   25.2319 C.ar      1 MOL     0.0106
     12 C          46.3846  -11.9061   24.8547 C.ar      1 MOL     0.0736
     13 C          45.9764  -13.0277   25.7497 C.3       1 MOL     0.0925
     14 C          44.7854  -12.7143   26.5788 C.ar      1 MOL    -0.0406
     15 C          44.9836  -12.3369   27.9110 C.ar      1 MOL     0.0196
     16 C          43.8968  -11.9995   28.7242 C.ar      1 MOL     0.0723
     17 C          44.1732  -11.4874   30.0822 C.2       1 MOL     0.2495
     18 C          44.6339   -9.6753   31.6141 C.3       1 MOL     0.1268
     19 C          45.4836   -8.3813   31.7236 C.3       1 MOL     0.1265
     20 C          45.3469   -7.9638   29.3433 C.3       1 MOL     0.1265
     21 C          44.4895   -9.2355   29.1208 C.3       1 MOL     0.1268
     22 C          44.4732   -6.2614   30.8610 C.2       1 MOL     0.2187
     23 C          44.0407   -5.8726   32.2272 C.3       1 MOL     0.0752
     24 C          42.8129   -6.5962   32.6648 C.3       1 MOL     0.0134
     25 C          42.7187   -5.1747   32.2059 C.3       1 MOL     0.0134
     26 C          42.6044  -12.1129   28.2262 C.ar      1 MOL     0.1355
     27 C          42.3927  -12.4990   26.8990 C.ar      1 MOL     0.0392
     28 C          43.4838  -12.7951   26.0709 C.ar      1 MOL     0.0066
     29 O          47.0198   -8.9420   22.1745 O.2       1 MOL    -0.2658
     30 O          44.2586   -5.4842   29.9177 O.2       1 MOL    -0.2753
     31 O          44.0881  -12.2959   31.0113 O.2       1 MOL    -0.2699
     32 F          41.5387  -11.8368   29.0147 F         1 MOL    -0.2047
     33 H          48.5508   -7.9612   23.9466 H         1 MOL     0.0625
     34 H          49.5443   -7.8659   26.2087 H         1 MOL     0.0618
     35 H          49.0687   -9.6591   27.8438 H         1 MOL     0.0618
     36 H          47.6211  -11.5460   27.2220 H         1 MOL     0.0624
     37 H          46.8153  -13.2698   26.4234 H         1 MOL     0.0377
     38 H          45.7281  -13.8999   25.1140 H         1 MOL     0.0377
     39 H          45.9833  -12.2938   28.3129 H         1 MOL     0.0629
     40 H          45.0331  -10.4893   32.2573 H         1 MOL     0.0480
     41 H          43.6074   -9.4215   31.9941 H         1 MOL     0.0480
     42 H          46.5661   -8.6281   31.5759 H         1 MOL     0.0480
     43 H          45.3752   -7.9018   32.7187 H         1 MOL     0.0480
     44 H          46.4290   -8.2069   29.2560 H         1 MOL     0.0480
     45 H          45.1007   -7.1787   28.5945 H         1 MOL     0.0480
     46 H          44.7643   -9.7738   28.1895 H         1 MOL     0.0480
     47 H          43.4327   -8.8750   28.9955 H         1 MOL     0.0480
     48 H          44.8058   -5.6139   32.9100 H         1 MOL     0.0394
     49 H          42.6852   -6.7752   33.7262 H         1 MOL     0.0273
     50 H          42.4225   -7.3495   31.9878 H         1 MOL     0.0273
     51 H          42.5284   -4.4404   32.9770 H         1 MOL     0.0273
     52 H          42.2713   -5.0065   31.2328 H         1 MOL     0.0273
     53 H          41.3905  -12.5640   26.5132 H         1 MOL     0.0646
     54 H          43.3157  -13.0840   25.0443 H         1 MOL     0.0621
     55 H          45.7098  -10.9661   21.7713 H         1 MOL     0.1921
@<TRIPOS>BOND
     1    1   18 1 
     2    1   21 1 
     3    1   17 am
     4    2   20 1 
     5    2   22 am
     6    2   19 1 
     7    3    4 ar
     8    3   12 ar
     9    4   55 1 
    10    4    5 ar
    11    5    6 ar
    12    5   29 2 
    13    6    7 ar
    14    6   11 ar
    15    7    8 ar
    16    7   33 1 
    17    8    9 ar
    18    8   34 1 
    19    9   10 ar
    20    9   35 1 
    21   10   11 ar
    22   10   36 1 
    23   11   12 ar
    24   12   13 1 
    25   13   14 1 
    26   13   37 1 
    27   13   38 1 
    28   14   15 ar
    29   14   28 ar
    30   15   16 ar
    31   15   39 1 
    32   16   17 1 
    33   16   26 ar
    34   17   31 2 
    35   18   19 1 
    36   18   40 1 
    37   18   41 1 
    38   19   42 1 
    39   19   43 1 
    40   20   21 1 
    41   20   44 1 
    42   20   45 1 
    43   21   46 1 
    44   21   47 1 
    45   22   23 1 
    46   22   30 2 
    47   23   24 1 
    48   23   25 1 
    49   23   48 1 
    50   24   25 1 
    51   24   49 1 
    52   24   50 1 
    53   25   51 1 
    54   25   52 1 
    55   26   27 ar
    56   26   32 1 
    57   27   28 ar
    58   27   53 1 
    59   28   54 1 
@<TRIPOS>SUBSTRUCTURE
1 MOL         1
@<TRIPOS>MOLECULE
query molecule
   55    59     1     0     0
SMALL
NO_CHARGE

@<TRIPOS>ATOM
      1 N          10.4897  -13.3178   35.5255 N.am      1 MOL    -0.2945
      2 N          11.9248  -11.0102   34.6417 N.am      1 MOL    -0.2983
      3 N          14.2524  -16.2574   32.9494 N.ar      1 MOL    -0.1750
      4 N          15.5206  -15.8780   32.8228 N.ar      1 MOL    -0.2425
      5 C          16.4597  -16.7328   32.2029 C.ar      1 MOL     0.2725
      6 C          16.0143  -17.9793   31.7050 C.ar      1 MOL     0.0496
      7 C          16.9067  -18.8751   31.1075 C.ar      1 MOL     0.0138
      8 C          16.4494  -20.0939   30.6029 C.ar      1 MOL     0.0008
      9 C          15.0958  -20.4194   30.6853 C.ar      1 MOL     0.0007
     10 C          14.2021  -19.5351   31.2905 C.ar      1 MOL     0.0103
     11 C          14.6347  -18.3138   31.8239 C.ar      1 MOL     0.0106
     12 C          13.7475  -17.4290   32.4637 C.ar      1 MOL     0.0736
     13 C          12.2837  -17.7311   32.5669 C.3       1 MOL     0.0925
     14 C          11.6658  -17.3167   33.8410 C.ar      1 MOL    -0.0406
     15 C          11.0277  -16.0774   33.9864 C.ar      1 MOL     0.0196
     16 C          10.4107  -15.7446   35.2032 C.ar      1 MOL     0.0723
     17 C           9.7410  -14.4347   35.3797 C.2       1 MOL     0.2495
     18 C           9.8396  -12.0094   35.5989 C.3       1 MOL     0.1268
     19 C          10.4678  -11.0169   34.5755 C.3       1 MOL     0.1265
     20 C          12.5920  -12.3194   34.6689 C.3       1 MOL     0.1265
     21 C          11.9346  -13.2952   35.6900 C.3       1 MOL     0.1268
     22 C          12.7016   -9.9163   34.4142 C.2       1 MOL     0.2187
     23 C          12.0432   -8.6208   34.0770 C.3       1 MOL     0.0752
     24 C          12.8666   -7.4565   34.5187 C.3       1 MOL     0.0134
     25 C          11.6448   -7.8447   35.2918 C.3       1 MOL     0.0134
     26 C          10.4279  -16.6664   36.2550 C.ar      1 MOL     0.1355
     27 C          11.0792  -17.8930   36.1185 C.ar      1 MOL     0.0392
     28 C          11.7034  -18.2149   34.9133 C.ar      1 MOL     0.0066
     29 O          17.6333  -16.3462   32.1238 O.2       1 MOL    -0.2658
     30 O          13.9394   -9.9715   34.4388 O.2       1 MOL    -0.2753
     31 O           8.5047  -14.4374   35.3674 O.2       1 MOL    -0.2699
     32 F           9.8153  -16.3757   37.4279 F         1 MOL    -0.2047
     33 H          17.9566  -18.6279   31.0394 H         1 MOL     0.0625
     34 H          17.1410  -20.7889   30.1505 H         1 MOL     0.0618
     35 H          14.7367  -21.3571   30.2878 H         1 MOL     0.0618
     36 H          13.1542  -19.7981   31.3543 H         1 MOL     0.0624
     37 H          12.1415  -18.8224   32.4503 H         1 MOL     0.0377
     38 H          11.7651  -17.1929   31.7463 H         1 MOL     0.0377
     39 H          11.0052  -15.3759   33.1647 H         1 MOL     0.0629
     40 H           9.9930  -11.6088   36.6301 H         1 MOL     0.0480
     41 H           8.7466  -12.1346   35.4399 H         1 MOL     0.0480
     42 H          10.0792   -9.9809   34.7323 H         1 MOL     0.0480
     43 H          10.1810  -11.3435   33.5492 H         1 MOL     0.0480
     44 H          13.6731  -12.1680   34.8976 H         1 MOL     0.0480
     45 H          12.5236  -12.7692   33.6493 H         1 MOL     0.0480
     46 H          12.1596  -12.9392   36.7267 H         1 MOL     0.0480
     47 H          12.3388  -14.3272   35.5968 H         1 MOL     0.0480
     48 H          11.4436   -8.5985   33.2043 H         1 MOL     0.0394
     49 H          12.8435   -6.5811   33.8856 H         1 MOL     0.0273
     50 H          13.8363   -7.7024   34.9272 H         1 MOL     0.0273
     51 H          10.8417   -7.1258   35.1964 H         1 MOL     0.0273
     52 H          11.8293   -8.2770   36.2720 H         1 MOL     0.0273
     53 H          11.1022  -18.5939   36.9397 H         1 MOL     0.0646
     54 H          12.2135  -19.1602   34.7997 H         1 MOL     0.0621
     55 H          15.8603  -14.9896   33.1507 H         1 MOL     0.1921
@<TRIPOS>BOND
     1    1   18 1 
     2    1   21 1 
     3    1   17 am
     4    2   20 1 
     5    2   22 am
     6    2   19 1 
     7    3    4 ar
     8    3   12 ar
     9    4   55 1 
    10    4    5 ar
    11    5    6 ar
    12    5   29 2 
    13    6    7 ar
    14    6   11 ar
    15    7    8 ar
    16    7   33 1 
    17    8    9 ar
    18    8   34 1 
    19    9   10 ar
    20    9   35 1 
    21   10   11 ar
    22   10   36 1 
    23   11   12 ar
    24   12   13 1 
    25   13   14 1 
    26   13   37 1 
    27   13   38 1 
    28   14   15 ar
    29   14   28 ar
    30   15   16 ar
    31   15   39 1 
    32   16   17 1 
    33   16   26 ar
    34   17   31 2 
    35   18   19 1 
    36   18   40 1 
    37   18   41 1 
    38   19   42 1 
    39   19   43 1 
    40   20   21 1 
    41   20   44 1 
    42   20   45 1 
    43   21   46 1 
    44   21   47 1 
    45   22   23 1 
    46   22   30 2 
    47   23   24 1 
    48   23   25 1 
    49   23   48 1 
    50   24   25 1 
    51   24   49 1 
    52   24   50 1 
    53   25   51 1 
    54   25   52 1 
    55   26   27 ar
    56   26   32 1 
    57   27   28 ar
    58   27   53 1 
    59   28   54 1 
@<TRIPOS>SUBSTRUCTURE
1 MOL         1
@<TRIPOS>MOLECULE
query molecule
   55    59     1     0     0
SMALL
NO_CHARGE

@<TRIPOS>ATOM
      1 N          43.2453  -15.6669   25.0285 N.am      1 MOL    -0.2945
      2 N          41.9972  -18.1376   24.5717 N.am      1 MOL    -0.2983
      3 N          41.4283  -13.7921   31.2014 N.ar      1 MOL    -0.1750
      4 N          40.3416  -14.3454   31.7265 N.ar      1 MOL    -0.2425
      5 C          40.3519  -15.6981   32.1244 C.ar      1 MOL     0.2725
      6 C          41.4989  -16.4728   31.8666 C.ar      1 MOL     0.0496
      7 C          41.5251  -17.8314   32.1946 C.ar      1 MOL     0.0138
      8 C          42.6646  -18.5926   31.9367 C.ar      1 MOL     0.0008
      9 C          43.7832  -17.9988   31.3495 C.ar      1 MOL     0.0007
     10 C          43.7626  -16.6425   31.0157 C.ar      1 MOL     0.0103
     11 C          42.6270  -15.8542   31.2633 C.ar      1 MOL     0.0106
     12 C          42.5756  -14.4855   30.9422 C.ar      1 MOL     0.0736
     13 C          43.7568  -13.7967   30.3403 C.3       1 MOL     0.0925
     14 C          43.4905  -13.3747   28.9481 C.ar      1 MOL    -0.0406
     15 C          43.8019  -14.2139   27.8699 C.ar      1 MOL     0.0196
     16 C          43.5650  -13.7837   26.5606 C.ar      1 MOL     0.0723
     17 C          43.9822  -14.6014   25.4079 C.2       1 MOL     0.2495
     18 C          43.7948  -16.5521   24.0005 C.3       1 MOL     0.1268
     19 C          43.4024  -18.0421   24.2274 C.3       1 MOL     0.1265
     20 C          41.6210  -17.4011   25.7686 C.3       1 MOL     0.1265
     21 C          41.8956  -15.8928   25.5221 C.3       1 MOL     0.1268
     22 C          41.0281  -18.7010   23.8098 C.2       1 MOL     0.2187
     23 C          41.3675  -19.0439   22.4065 C.3       1 MOL     0.0752
     24 C          41.2695  -17.8028   21.5696 C.3       1 MOL     0.0134
     25 C          40.2252  -18.8698   21.4770 C.3       1 MOL     0.0134
     26 C          42.9674  -12.5468   26.3419 C.ar      1 MOL     0.1355
     27 C          42.6948  -11.6963   27.4028 C.ar      1 MOL     0.0392
     28 C          42.9446  -12.1102   28.7143 C.ar      1 MOL     0.0066
     29 O          39.3486  -16.1412   32.7031 O.2       1 MOL    -0.2658
     30 O          39.8845  -18.9185   24.2367 O.2       1 MOL    -0.2753
     31 O          45.0340  -14.2620   24.8542 O.2       1 MOL    -0.2699
     32 F          42.6494  -12.1642   25.0847 F         1 MOL    -0.2047
     33 H          40.6597  -18.2916   32.6488 H         1 MOL     0.0625
     34 H          42.6808  -19.6417   32.1935 H         1 MOL     0.0618
     35 H          44.6655  -18.5918   31.1552 H         1 MOL     0.0618
     36 H          44.6373  -16.1964   30.5614 H         1 MOL     0.0624
     37 H          44.6092  -14.5012   30.3364 H         1 MOL     0.0377
     38 H          43.9967  -12.9037   30.9437 H         1 MOL     0.0377
     39 H          44.2348  -15.1873   28.0483 H         1 MOL     0.0629
     40 H          44.9016  -16.4264   23.9621 H         1 MOL     0.0480
     41 H          43.3842  -16.2377   23.0104 H         1 MOL     0.0480
     42 H          43.9902  -18.4664   25.0788 H         1 MOL     0.0480
     43 H          43.6113  -18.6587   23.3262 H         1 MOL     0.0480
     44 H          42.2057  -17.7909   26.6306 H         1 MOL     0.0480
     45 H          40.5378  -17.5652   25.9739 H         1 MOL     0.0480
     46 H          41.7289  -15.2801   26.4351 H         1 MOL     0.0480
     47 H          41.1760  -15.5405   24.7406 H         1 MOL     0.0480
     48 H          42.1513  -19.7363   22.2603 H         1 MOL     0.0394
     49 H          41.9600  -17.7069   20.7425 H         1 MOL     0.0273
     50 H          40.9804  -16.8887   22.0764 H         1 MOL     0.0273
     51 H          40.2363  -19.4641   20.5599 H         1 MOL     0.0273
     52 H          39.2683  -18.6585   21.9216 H         1 MOL     0.0273
     53 H          42.2717  -10.7219   27.2187 H         1 MOL     0.0646
     54 H          42.7152  -11.4556   29.5396 H         1 MOL     0.0621
     55 H          39.4721  -13.8514   31.8488 H         1 MOL     0.1921
@<TRIPOS>BOND
     1    1   18 1 
     2    1   21 1 
     3    1   17 am
     4    2   20 1 
     5    2   22 am
     6    2   19 1 
     7    3    4 ar
     8    3   12 ar
     9    4   55 1 
    10    4    5 ar
    11    5    6 ar
    12    5   29 2 
    13    6    7 ar
    14    6   11 ar
    15    7    8 ar
    16    7   33 1 
    17    8    9 ar
    18    8   34 1 
    19    9   10 ar
    20    9   35 1 
    21   10   11 ar
    22   10   36 1 
    23   11   12 ar
    24   12   13 1 
    25   13   14 1 
    26   13   37 1 
    27   13   38 1 
    28   14   15 ar
    29   14   28 ar
    30   15   16 ar
    31   15   39 1 
    32   16   17 1 
    33   16   26 ar
    34   17   31 2 
    35   18   19 1 
    36   18   40 1 
    37   18   41 1 
    38   19   42 1 
    39   19   43 1 
    40   20   21 1 
    41   20   44 1 
    42   20   45 1 
    43   21   46 1 
    44   21   47 1 
    45   22   23 1 
    46   22   30 2 
    47   23   24 1 
    48   23   25 1 
    49   23   48 1 
    50   24   25 1 
    51   24   49 1 
    52   24   50 1 
    53   25   51 1 
    54   25   52 1 
    55   26   27 ar
    56   26   32 1 
    57   27   28 ar
    58   27   53 1 
    59   28   54 1 
@<TRIPOS>SUBSTRUCTURE
1 MOL         1
@<TRIPOS>MOLECULE
query molecule
   55    59     1     0     0
SMALL
NO_CHARGE

@<TRIPOS>ATOM
      1 N           6.3792   -2.7164   33.8447 N.am      1 MOL    -0.2945
      2 N           4.3848   -4.6701   34.3812 N.am      1 MOL    -0.2983
      3 N           9.2490    2.7841   29.8106 N.ar      1 MOL    -0.1750
      4 N           9.4719    4.0606   29.5649 N.ar      1 MOL    -0.2425
      5 C          10.7549    4.4658   29.1535 C.ar      1 MOL     0.2725
      6 C          11.7707    3.4892   29.0606 C.ar      1 MOL     0.0496
      7 C          13.0739    3.8628   28.7176 C.ar      1 MOL     0.0138
      8 C          14.0797    2.9052   28.6405 C.ar      1 MOL     0.0008
      9 C          13.7850    1.5709   28.9041 C.ar      1 MOL     0.0007
     10 C          12.4872    1.1772   29.2351 C.ar      1 MOL     0.0103
     11 C          11.4573    2.1230   29.3346 C.ar      1 MOL     0.0106
     12 C          10.1430    1.7637   29.6903 C.ar      1 MOL     0.0736
     13 C           9.7317    0.3420   29.9194 C.3       1 MOL     0.0925
     14 C           8.4383    0.1604   30.6377 C.ar      1 MOL    -0.0406
     15 C           8.3983   -0.6108   31.8106 C.ar      1 MOL     0.0196
     16 C           7.1945   -0.7945   32.5185 C.ar      1 MOL     0.0723
     17 C           7.2103   -1.6513   33.7235 C.2       1 MOL     0.2495
     18 C           6.3836   -3.4408   35.1224 C.3       1 MOL     0.1268
     19 C           4.9776   -3.9901   35.5169 C.3       1 MOL     0.1265
     20 C           4.2192   -3.8305   33.1985 C.3       1 MOL     0.1265
     21 C           5.6076   -3.2802   32.7487 C.3       1 MOL     0.1268
     22 C           4.1387   -6.0052   34.2886 C.2       1 MOL     0.2187
     23 C           4.4547   -6.8484   35.4681 C.3       1 MOL     0.0752
     24 C           4.4678   -8.3065   35.1649 C.3       1 MOL     0.0134
     25 C           3.3150   -7.6981   35.9127 C.3       1 MOL     0.0134
     26 C           6.0429   -0.1506   32.0682 C.ar      1 MOL     0.1355
     27 C           6.0590    0.5980   30.8890 C.ar      1 MOL     0.0392
     28 C           7.2442    0.7299   30.1703 C.ar      1 MOL     0.0066
     29 O          10.9230    5.6690   28.8904 O.2       1 MOL    -0.2658
     30 O           3.7228   -6.5141   33.2405 O.2       1 MOL    -0.2753
     31 O           8.0262   -1.3263   34.5960 O.2       1 MOL    -0.2699
     32 F           4.8866   -0.2296   32.7663 F         1 MOL    -0.2047
     33 H          13.2972    4.9010   28.5202 H         1 MOL     0.0625
     34 H          15.0848    3.2015   28.3808 H         1 MOL     0.0618
     35 H          14.5695    0.8270   28.8259 H         1 MOL     0.0618
     36 H          12.2781    0.1326   29.4208 H         1 MOL     0.0624
     37 H          10.5250   -0.1544   30.5134 H         1 MOL     0.0377
     38 H           9.6446   -0.1528   28.9305 H         1 MOL     0.0377
     39 H           9.3038   -1.0809   32.1688 H         1 MOL     0.0629
     40 H           6.7992   -2.7785   35.9153 H         1 MOL     0.0480
     41 H           7.0731   -4.3144   35.0122 H         1 MOL     0.0480
     42 H           4.3150   -3.1351   35.7997 H         1 MOL     0.0480
     43 H           5.0362   -4.6791   36.3873 H         1 MOL     0.0480
     44 H           3.5319   -2.9897   33.4504 H         1 MOL     0.0480
     45 H           3.7430   -4.4318   32.3894 H         1 MOL     0.0480
     46 H           5.4915   -2.5253   31.9462 H         1 MOL     0.0480
     47 H           6.1927   -4.1419   32.3285 H         1 MOL     0.0480
     48 H           5.1245   -6.4247   36.1762 H         1 MOL     0.0394
     49 H           5.1512   -8.9282   35.7281 H         1 MOL     0.0273
     50 H           4.2711   -8.5918   34.1366 H         1 MOL     0.0273
     51 H           3.2645   -7.9487   36.9692 H         1 MOL     0.0273
     52 H           2.3825   -7.6133   35.3778 H         1 MOL     0.0273
     53 H           5.1559    1.0755   30.5396 H         1 MOL     0.0646
     54 H           7.2488    1.2983   29.2493 H         1 MOL     0.0621
     55 H           8.7678    4.7680   29.6611 H         1 MOL     0.1921
@<TRIPOS>BOND
     1    1   18 1 
     2    1   21 1 
     3    1   17 am
     4    2   20 1 
     5    2   22 am
     6    2   19 1 
     7    3    4 ar
     8    3   12 ar
     9    4   55 1 
    10    4    5 ar
    11    5    6 ar
    12    5   29 2 
    13    6    7 ar
    14    6   11 ar
    15    7    8 ar
    16    7   33 1 
    17    8    9 ar
    18    8   34 1 
    19    9   10 ar
    20    9   35 1 
    21   10   11 ar
    22   10   36 1 
    23   11   12 ar
    24   12   13 1 
    25   13   14 1 
    26   13   37 1 
    27   13   38 1 
    28   14   15 ar
    29   14   28 ar
    30   15   16 ar
    31   15   39 1 
    32   16   17 1 
    33   16   26 ar
    34   17   31 2 
    35   18   19 1 
    36   18   40 1 
    37   18   41 1 
    38   19   42 1 
    39   19   43 1 
    40   20   21 1 
    41   20   44 1 
    42   20   45 1 
    43   21   46 1 
    44   21   47 1 
    45   22   23 1 
    46   22   30 2 
    47   23   24 1 
    48   23   25 1 
    49   23   48 1 
    50   24   25 1 
    51   24   49 1 
    52   24   50 1 
    53   25   51 1 
    54   25   52 1 
    55   26   27 ar
    56   26   32 1 
    57   27   28 ar
    58   27   53 1 
    59   28   54 1 
@<TRIPOS>SUBSTRUCTURE
1 MOL         1
@<TRIPOS>MOLECULE
query molecule
   55    59     1     0     0
SMALL
NO_CHARGE

@<TRIPOS>ATOM
      1 N           5.6787   -3.7464   13.8060 N.am      1 MOL    -0.2945
      2 N           7.7532   -5.6883   13.4968 N.am      1 MOL    -0.2983
      3 N           4.0226   -2.9406   20.7777 N.ar      1 MOL    -0.1750
      4 N           3.1010   -3.6144   21.4575 N.ar      1 MOL    -0.2425
      5 C           2.8032   -4.9584   21.1372 C.ar      1 MOL     0.2725
      6 C           3.5182   -5.5650   20.0808 C.ar      1 MOL     0.0496
      7 C           3.2546   -6.8838   19.7006 C.ar      1 MOL     0.0138
      8 C           3.9679   -7.4615   18.6516 C.ar      1 MOL     0.0008
      9 C           4.9566   -6.7397   17.9918 C.ar      1 MOL     0.0007
     10 C           5.2327   -5.4282   18.3661 C.ar      1 MOL     0.0103
     11 C           4.5123   -4.8068   19.3956 C.ar      1 MOL     0.0106
     12 C           4.7465   -3.4660   19.7467 C.ar      1 MOL     0.0736
     13 C           5.7568   -2.6134   19.0464 C.3       1 MOL     0.0925
     14 C           5.2475   -1.9986   17.7937 C.ar      1 MOL    -0.0406
     15 C           5.1791   -2.7408   16.6105 C.ar      1 MOL     0.0196
     16 C           4.7093   -2.1655   15.4192 C.ar      1 MOL     0.0723
     17 C           4.6149   -3.0014   14.2002 C.2       1 MOL     0.2495
     18 C           5.4700   -4.8911   12.9233 C.3       1 MOL     0.1268
     19 C           6.3766   -6.1067   13.3038 C.3       1 MOL     0.1265
     20 C           7.9257   -4.6099   14.4679 C.3       1 MOL     0.1265
     21 C           7.0556   -3.3784   14.0974 C.3       1 MOL     0.1268
     22 C           8.8520   -6.3418   13.0325 C.2       1 MOL     0.2187
     23 C           8.6689   -7.5778   12.2286 C.3       1 MOL     0.0752
     24 C           9.8083   -7.8102   11.2892 C.3       1 MOL     0.0134
     25 C           8.4839   -7.3385   10.7730 C.3       1 MOL     0.0134
     26 C           4.3227   -0.8234   15.4176 C.ar      1 MOL     0.1355
     27 C           4.3905   -0.0673   16.5927 C.ar      1 MOL     0.0392
     28 C           4.8478   -0.6559   17.7784 C.ar      1 MOL     0.0066
     29 O           1.9284   -5.5353   21.8031 O.2       1 MOL    -0.2658
     30 O          10.0029   -5.9656   13.3105 O.2       1 MOL    -0.2753
     31 O           3.5126   -3.0474   13.6428 O.2       1 MOL    -0.2699
     32 F           3.8849   -0.2306   14.2803 F         1 MOL    -0.2047
     33 H           2.4956   -7.4546   20.2168 H         1 MOL     0.0625
     34 H           3.7555   -8.4800   18.3579 H         1 MOL     0.0618
     35 H           5.5135   -7.2014   17.1891 H         1 MOL     0.0618
     36 H           6.0048   -4.8768   17.8478 H         1 MOL     0.0624
     37 H           6.6346   -3.2399   18.8026 H         1 MOL     0.0377
     38 H           6.0514   -1.7972   19.7345 H         1 MOL     0.0377
     39 H           5.4909   -3.7758   16.6012 H         1 MOL     0.0629
     40 H           5.7258   -4.5745   11.8827 H         1 MOL     0.0480
     41 H           4.3924   -5.1739   12.9375 H         1 MOL     0.0480
     42 H           6.3329   -6.9023   12.5287 H         1 MOL     0.0480
     43 H           6.0148   -6.5464   14.2667 H         1 MOL     0.0480
     44 H           9.0030   -4.3407   14.5368 H         1 MOL     0.0480
     45 H           7.6122   -4.9966   15.4699 H         1 MOL     0.0480
     46 H           7.4875   -2.8926   13.1913 H         1 MOL     0.0480
     47 H           7.0615   -2.6271   14.9212 H         1 MOL     0.0480
     48 H           8.1846   -8.3859   12.7168 H         1 MOL     0.0394
     49 H          10.0773   -8.8405   11.0873 H         1 MOL     0.0273
     50 H          10.6141   -7.0868   11.3042 H         1 MOL     0.0273
     51 H           7.9154   -8.0675   10.2104 H         1 MOL     0.0273
     52 H           8.4434   -6.3084   10.4323 H         1 MOL     0.0273
     53 H           4.0908    0.9707   16.5866 H         1 MOL     0.0646
     54 H           4.8944   -0.0710   18.6854 H         1 MOL     0.0621
     55 H           2.5808   -3.2087   22.2166 H         1 MOL     0.1921
@<TRIPOS>BOND
     1    1   18 1 
     2    1   21 1 
     3    1   17 am
     4    2   20 1 
     5    2   22 am
     6    2   19 1 
     7    3    4 ar
     8    3   12 ar
     9    4   55 1 
    10    4    5 ar
    11    5    6 ar
    12    5   29 2 
    13    6    7 ar
    14    6   11 ar
    15    7    8 ar
    16    7   33 1 
    17    8    9 ar
    18    8   34 1 
    19    9   10 ar
    20    9   35 1 
    21   10   11 ar
    22   10   36 1 
    23   11   12 ar
    24   12   13 1 
    25   13   14 1 
    26   13   37 1 
    27   13   38 1 
    28   14   15 ar
    29   14   28 ar
    30   15   16 ar
    31   15   39 1 
    32   16   17 1 
    33   16   26 ar
    34   17   31 2 
    35   18   19 1 
    36   18   40 1 
    37   18   41 1 
    38   19   42 1 
    39   19   43 1 
    40   20   21 1 
    41   20   44 1 
    42   20   45 1 
    43   21   46 1 
    44   21   47 1 
    45   22   23 1 
    46   22   30 2 
    47   23   24 1 
    48   23   25 1 
    49   23   48 1 
    50   24   25 1 
    51   24   49 1 
    52   24   50 1 
    53   25   51 1 
    54   25   52 1 
    55   26   27 ar
    56   26   32 1 
    57   27   28 ar
    58   27   53 1 
    59   28   54 1 
@<TRIPOS>SUBSTRUCTURE
1 MOL         1
@<TRIPOS>MOLECULE
query molecule
   55    59     1     0     0
SMALL
NO_CHARGE

@<TRIPOS>ATOM
      1 N          26.9630  -16.2581   35.2803 N.am      1 MOL    -0.2945
      2 N          26.0496  -18.0368   33.2866 N.am      1 MOL    -0.2983
      3 N          27.8782  -11.3569   31.6034 N.ar      1 MOL    -0.1750
      4 N          28.3434  -11.8556   30.4604 N.ar      1 MOL    -0.2425
      5 C          29.6301  -12.4244   30.3902 C.ar      1 MOL     0.2725
      6 C          30.4297  -12.4176   31.5472 C.ar      1 MOL     0.0496
      7 C          31.7115  -12.9724   31.5328 C.ar      1 MOL     0.0138
      8 C          32.4972  -12.9583   32.6823 C.ar      1 MOL     0.0008
      9 C          32.0124  -12.3634   33.8488 C.ar      1 MOL     0.0007
     10 C          30.7348  -11.8044   33.8740 C.ar      1 MOL     0.0103
     11 C          29.9077  -11.8435   32.7417 C.ar      1 MOL     0.0106
     12 C          28.5934  -11.3446   32.7645 C.ar      1 MOL     0.0736
     13 C          27.9698  -10.7819   33.9929 C.3       1 MOL     0.0925
     14 C          27.4473  -11.7453   34.9948 C.ar      1 MOL    -0.0406
     15 C          27.7430  -13.1104   35.0187 C.ar      1 MOL     0.0196
     16 C          27.2527  -13.9400   36.0361 C.ar      1 MOL     0.0723
     17 C          27.6028  -15.3742   36.0843 C.2       1 MOL     0.2495
     18 C          27.4113  -17.6542   35.3018 C.3       1 MOL     0.1268
     19 C          27.3293  -18.3296   33.9014 C.3       1 MOL     0.1265
     20 C          25.7632  -16.6169   33.1042 C.3       1 MOL     0.1265
     21 C          25.7818  -15.9117   34.4963 C.3       1 MOL     0.1268
     22 C          25.0814  -18.9543   33.0228 C.2       1 MOL     0.2187
     23 C          25.2756  -20.3310   33.5441 C.3       1 MOL     0.0752
     24 C          25.9131  -21.2158   32.5301 C.3       1 MOL     0.0134
     25 C          24.4469  -21.3406   32.8318 C.3       1 MOL     0.0134
     26 C          26.4462  -13.3985   37.0366 C.ar      1 MOL     0.1355
     27 C          26.1156  -12.0453   37.0184 C.ar      1 MOL     0.0392
     28 C          26.6137  -11.2242   36.0027 C.ar      1 MOL     0.0066
     29 O          29.9983  -12.9071   29.3043 O.2       1 MOL    -0.2658
     30 O          24.0414  -18.6618   32.4174 O.2       1 MOL    -0.2753
     31 O          28.5074  -15.6849   36.8650 O.2       1 MOL    -0.2699
     32 F          25.9768  -14.1813   38.0362 F         1 MOL    -0.2047
     33 H          32.0918  -13.4264   30.6288 H         1 MOL     0.0625
     34 H          33.4800  -13.4073   32.6750 H         1 MOL     0.0618
     35 H          32.6252  -12.3369   34.7386 H         1 MOL     0.0618
     36 H          30.3681  -11.3451   34.7820 H         1 MOL     0.0624
     37 H          27.1267  -10.1323   33.6764 H         1 MOL     0.0377
     38 H          28.7380  -10.1585   34.4992 H         1 MOL     0.0377
     39 H          28.3717  -13.5311   34.2469 H         1 MOL     0.0629
     40 H          26.7464  -18.2216   35.9986 H         1 MOL     0.0480
     41 H          28.4482  -17.7032   35.7066 H         1 MOL     0.0480
     42 H          27.4723  -19.4308   33.9643 H         1 MOL     0.0480
     43 H          28.1320  -17.9185   33.2397 H         1 MOL     0.0480
     44 H          24.7796  -16.4934   32.6014 H         1 MOL     0.0480
     45 H          26.5501  -16.1781   32.4453 H         1 MOL     0.0480
     46 H          24.8853  -16.2611   35.0686 H         1 MOL     0.0480
     47 H          25.7142  -14.8050   34.4029 H         1 MOL     0.0480
     48 H          25.5058  -20.4156   34.5750 H         1 MOL     0.0394
     49 H          26.5458  -22.0172   32.8875 H         1 MOL     0.0273
     50 H          26.1673  -20.7637   31.5781 H         1 MOL     0.0273
     51 H          24.1351  -22.2089   33.3981 H         1 MOL     0.0273
     52 H          23.7601  -20.9569   32.0869 H         1 MOL     0.0273
     53 H          25.4819  -11.6333   37.7902 H         1 MOL     0.0646
     54 H          26.3577  -10.1739   35.9945 H         1 MOL     0.0621
     55 H          27.8041  -11.8401   29.6097 H         1 MOL     0.1921
@<TRIPOS>BOND
     1    1   18 1 
     2    1   21 1 
     3    1   17 am
     4    2   20 1 
     5    2   22 am
     6    2   19 1 
     7    3    4 ar
     8    3   12 ar
     9    4   55 1 
    10    4    5 ar
    11    5    6 ar
    12    5   29 2 
    13    6    7 ar
    14    6   11 ar
    15    7    8 ar
    16    7   33 1 
    17    8    9 ar
    18    8   34 1 
    19    9   10 ar
    20    9   35 1 
    21   10   11 ar
    22   10   36 1 
    23   11   12 ar
    24   12   13 1 
    25   13   14 1 
    26   13   37 1 
    27   13   38 1 
    28   14   15 ar
    29   14   28 ar
    30   15   16 ar
    31   15   39 1 
    32   16   17 1 
    33   16   26 ar
    34   17   31 2 
    35   18   19 1 
    36   18   40 1 
    37   18   41 1 
    38   19   42 1 
    39   19   43 1 
    40   20   21 1 
    41   20   44 1 
    42   20   45 1 
    43   21   46 1 
    44   21   47 1 
    45   22   23 1 
    46   22   30 2 
    47   23   24 1 
    48   23   25 1 
    49   23   48 1 
    50   24   25 1 
    51   24   49 1 
    52   24   50 1 
    53   25   51 1 
    54   25   52 1 
    55   26   27 ar
    56   26   32 1 
    57   27   28 ar
    58   27   53 1 
    59   28   54 1 
@<TRIPOS>SUBSTRUCTURE
1 MOL         1
@<TRIPOS>MOLECULE
query molecule
   55    59     1     0     0
SMALL
NO_CHARGE

@<TRIPOS>ATOM
      1 N          44.9303    7.4685   12.5277 N.am      1 MOL    -0.2945
      2 N          45.9393    4.9809   11.5140 N.am      1 MOL    -0.2983
      3 N          41.2394    5.1504   16.8382 N.ar      1 MOL    -0.1750
      4 N          41.2597    4.1826   17.7531 N.ar      1 MOL    -0.2425
      5 C          40.2921    4.1227   18.7800 C.ar      1 MOL     0.2725
      6 C          39.3017    5.1318   18.8219 C.ar      1 MOL     0.0496
      7 C          38.3151    5.1370   19.8154 C.ar      1 MOL     0.0138
      8 C          37.3269    6.1223   19.8276 C.ar      1 MOL     0.0008
      9 C          37.3255    7.1162   18.8505 C.ar      1 MOL     0.0007
     10 C          38.3130    7.1300   17.8674 C.ar      1 MOL     0.0103
     11 C          39.3108    6.1486   17.8197 C.ar      1 MOL     0.0106
     12 C          40.2903    6.1368   16.8047 C.ar      1 MOL     0.0736
     13 C          40.2768    7.1357   15.6901 C.3       1 MOL     0.0925
     14 C          41.5495    7.8780   15.5362 C.ar      1 MOL    -0.0406
     15 C          42.2418    7.8210   14.3157 C.ar      1 MOL     0.0196
     16 C          43.4279    8.5472   14.1425 C.ar      1 MOL     0.0723
     17 C          44.1367    8.5187   12.8458 C.2       1 MOL     0.2495
     18 C          45.5253    7.4188   11.1918 C.3       1 MOL     0.1268
     19 C          45.4647    5.9892   10.5765 C.3       1 MOL     0.1265
     20 C          45.3543    5.0182   12.8567 C.3       1 MOL     0.1265
     21 C          45.3438    6.4439   13.4743 C.3       1 MOL     0.1268
     22 C          46.5906    3.8369   11.1522 C.2       1 MOL     0.2187
     23 C          46.7063    3.5037    9.7077 C.3       1 MOL     0.0752
     24 C          45.3941    2.9451    9.2500 C.3       1 MOL     0.0134
     25 C          46.5782    2.0483    9.4150 C.3       1 MOL     0.0134
     26 C          43.9245    9.3146   15.1982 C.ar      1 MOL     0.1355
     27 C          43.2471    9.3693   16.4177 C.ar      1 MOL     0.0392
     28 C          42.0577    8.6547   16.5850 C.ar      1 MOL     0.0066
     29 O          40.3335    3.1588   19.5646 O.2       1 MOL    -0.2658
     30 O          47.0912    3.0660   11.9872 O.2       1 MOL    -0.2753
     31 O          43.9415    9.4847   12.0984 O.2       1 MOL    -0.2699
     32 F          45.0748   10.0156   15.0520 F         1 MOL    -0.2047
     33 H          38.3171    4.3694   20.5778 H         1 MOL     0.0625
     34 H          36.5661    6.1161   20.5932 H         1 MOL     0.0618
     35 H          36.5598    7.8775   18.8550 H         1 MOL     0.0618
     36 H          38.3049    7.9099   17.1159 H         1 MOL     0.0624
     37 H          39.4714    7.8688   15.8887 H         1 MOL     0.0377
     38 H          40.0746    6.5985   14.7434 H         1 MOL     0.0377
     39 H          41.8573    7.2216   13.5038 H         1 MOL     0.0629
     40 H          46.5951    7.7309   11.2846 H         1 MOL     0.0480
     41 H          45.0126    8.1598   10.5368 H         1 MOL     0.0480
     42 H          46.0681    5.9361    9.6412 H         1 MOL     0.0480
     43 H          44.4064    5.7451   10.3172 H         1 MOL     0.0480
     44 H          45.8979    4.3006   13.5132 H         1 MOL     0.0480
     45 H          44.2983    4.6601   12.7660 H         1 MOL     0.0480
     46 H          46.3814    6.6912   13.8100 H         1 MOL     0.0480
     47 H          44.6814    6.4808   14.3694 H         1 MOL     0.0480
     48 H          47.2450    4.1792    9.0997 H         1 MOL     0.0394
     49 H          45.0743    3.1839    8.2458 H         1 MOL     0.0273
     50 H          44.6242    2.8729   10.0123 H         1 MOL     0.0273
     51 H          47.0025    1.6768    8.4902 H         1 MOL     0.0273
     52 H          46.5761    1.3802   10.2672 H         1 MOL     0.0273
     53 H          43.6401    9.9625   17.2303 H         1 MOL     0.0646
     54 H          41.5293    8.7019   17.5262 H         1 MOL     0.0621
     55 H          41.9712    3.4634   17.7484 H         1 MOL     0.1921
@<TRIPOS>BOND
     1    1   18 1 
     2    1   21 1 
     3    1   17 am
     4    2   20 1 
     5    2   22 am
     6    2   19 1 
     7    3    4 ar
     8    3   12 ar
     9    4   55 1 
    10    4    5 ar
    11    5    6 ar
    12    5   29 2 
    13    6    7 ar
    14    6   11 ar
    15    7    8 ar
    16    7   33 1 
    17    8    9 ar
    18    8   34 1 
    19    9   10 ar
    20    9   35 1 
    21   10   11 ar
    22   10   36 1 
    23   11   12 ar
    24   12   13 1 
    25   13   14 1 
    26   13   37 1 
    27   13   38 1 
    28   14   15 ar
    29   14   28 ar
    30   15   16 ar
    31   15   39 1 
    32   16   17 1 
    33   16   26 ar
    34   17   31 2 
    35   18   19 1 
    36   18   40 1 
    37   18   41 1 
    38   19   42 1 
    39   19   43 1 
    40   20   21 1 
    41   20   44 1 
    42   20   45 1 
    43   21   46 1 
    44   21   47 1 
    45   22   23 1 
    46   22   30 2 
    47   23   24 1 
    48   23   25 1 
    49   23   48 1 
    50   24   25 1 
    51   24   49 1 
    52   24   50 1 
    53   25   51 1 
    54   25   52 1 
    55   26   27 ar
    56   26   32 1 
    57   27   28 ar
    58   27   53 1 
    59   28   54 1 
@<TRIPOS>SUBSTRUCTURE
1 MOL         1
@<TRIPOS>MOLECULE
query molecule
   55    59     1     0     0
SMALL
NO_CHARGE

@<TRIPOS>ATOM
      1 N          45.6618   -7.0933   30.0006 N.am      1 MOL    -0.2945
      2 N          43.8136   -6.0102   31.7811 N.am      1 MOL    -0.2983
      3 N          42.6978  -12.2189   27.0609 N.ar      1 MOL    -0.1750
      4 N          42.2864  -12.6892   25.8861 N.ar      1 MOL    -0.2425
      5 C          42.5479  -14.0213   25.5109 C.ar      1 MOL     0.2725
      6 C          43.2424  -14.8577   26.4050 C.ar      1 MOL     0.0496
      7 C          43.5021  -16.1904   26.0757 C.ar      1 MOL     0.0138
      8 C          44.2051  -17.0050   26.9632 C.ar      1 MOL     0.0008
      9 C          44.6525  -16.4879   28.1804 C.ar      1 MOL     0.0007
     10 C          44.3880  -15.1588   28.5173 C.ar      1 MOL     0.0103
     11 C          43.6744  -14.3204   27.6467 C.ar      1 MOL     0.0106
     12 C          43.3824  -12.9854   27.9647 C.ar      1 MOL     0.0736
     13 C          43.7973  -12.3898   29.2652 C.3       1 MOL     0.0925
     14 C          44.9716  -11.5034   29.1040 C.ar      1 MOL    -0.0406
     15 C          44.7674  -10.1243   29.0142 C.ar      1 MOL     0.0196
     16 C          45.8634   -9.2598   28.9195 C.ar      1 MOL     0.0723
     17 C          45.5904   -7.8213   28.8683 C.2       1 MOL     0.2495
     18 C          45.5087   -5.6497   29.9585 C.3       1 MOL     0.1268
     19 C          44.1082   -5.3030   30.5390 C.3       1 MOL     0.1265
     20 C          44.2894   -7.3879   31.9652 C.3       1 MOL     0.1265
     21 C          45.6835   -7.6460   31.3312 C.3       1 MOL     0.1268
     22 C          42.8480   -5.6098   32.6590 C.2       1 MOL     0.2187
     23 C          42.0497   -4.3946   32.3808 C.3       1 MOL     0.0752
     24 C          40.6022   -4.7511   32.5418 C.3       1 MOL     0.0134
     25 C          41.1642   -4.4470   31.1881 C.3       1 MOL     0.0134
     26 C          47.1550   -9.7690   28.8836 C.ar      1 MOL     0.1355
     27 C          47.3686  -11.1490   28.9496 C.ar      1 MOL     0.0392
     28 C          46.2735  -12.0164   29.0595 C.ar      1 MOL     0.0066
     29 O          42.1616  -14.4034   24.3968 O.2       1 MOL    -0.2658
     30 O          42.6326   -6.2182   33.7234 O.2       1 MOL    -0.2753
     31 O          45.2440   -7.3426   27.7837 O.2       1 MOL    -0.2699
     32 F          48.2179   -8.9350   28.7929 F         1 MOL    -0.2047
     33 H          43.1605  -16.5894   25.1315 H         1 MOL     0.0625
     34 H          44.4051  -18.0350   26.7056 H         1 MOL     0.0618
     35 H          45.2052  -17.1193   28.8605 H         1 MOL     0.0618
     36 H          44.7417  -14.7704   29.4626 H         1 MOL     0.0624
     37 H          44.0686  -13.2090   29.9554 H         1 MOL     0.0377
     38 H          42.9597  -11.7962   29.6691 H         1 MOL     0.0377
     39 H          43.7672   -9.7224   29.0315 H         1 MOL     0.0629
     40 H          45.6253   -5.2846   28.9147 H         1 MOL     0.0480
     41 H          46.3156   -5.1930   30.5794 H         1 MOL     0.0480
     42 H          43.3463   -5.6106   29.7787 H         1 MOL     0.0480
     43 H          43.9965   -4.2065   30.7001 H         1 MOL     0.0480
     44 H          43.5655   -8.0599   31.4344 H         1 MOL     0.0480
     45 H          44.2601   -7.6521   33.0438 H         1 MOL     0.0480
     46 H          45.9137   -8.7339   31.2846 H         1 MOL     0.0480
     47 H          46.4860   -7.1414   31.9172 H         1 MOL     0.0480
     48 H          42.4262   -3.4895   32.7840 H         1 MOL     0.0394
     49 H          39.9618   -4.0083   32.9973 H         1 MOL     0.0273
     50 H          40.3742   -5.7941   32.7320 H         1 MOL     0.0273
     51 H          40.8657   -3.4950   30.7602 H         1 MOL     0.0273
     52 H          41.3052   -5.2731   30.5045 H         1 MOL     0.0273
     53 H          48.3730  -11.5418   28.9168 H         1 MOL     0.0646
     54 H          46.4394  -13.0831   29.1152 H         1 MOL     0.0621
     55 H          41.7799  -12.1246   25.2291 H         1 MOL     0.1921
@<TRIPOS>BOND
     1    1   18 1 
     2    1   21 1 
     3    1   17 am
     4    2   20 1 
     5    2   22 am
     6    2   19 1 
     7    3    4 ar
     8    3   12 ar
     9    4   55 1 
    10    4    5 ar
    11    5    6 ar
    12    5   29 2 
    13    6    7 ar
    14    6   11 ar
    15    7    8 ar
    16    7   33 1 
    17    8    9 ar
    18    8   34 1 
    19    9   10 ar
    20    9   35 1 
    21   10   11 ar
    22   10   36 1 
    23   11   12 ar
    24   12   13 1 
    25   13   14 1 
    26   13   37 1 
    27   13   38 1 
    28   14   15 ar
    29   14   28 ar
    30   15   16 ar
    31   15   39 1 
    32   16   17 1 
    33   16   26 ar
    34   17   31 2 
    35   18   19 1 
    36   18   40 1 
    37   18   41 1 
    38   19   42 1 
    39   19   43 1 
    40   20   21 1 
    41   20   44 1 
    42   20   45 1 
    43   21   46 1 
    44   21   47 1 
    45   22   23 1 
    46   22   30 2 
    47   23   24 1 
    48   23   25 1 
    49   23   48 1 
    50   24   25 1 
    51   24   49 1 
    52   24   50 1 
    53   25   51 1 
    54   25   52 1 
    55   26   27 ar
    56   26   32 1 
    57   27   28 ar
    58   27   53 1 
    59   28   54 1 
@<TRIPOS>SUBSTRUCTURE
1 MOL         1
@<TRIPOS>MOLECULE
query molecule
   55    59     1     0     0
SMALL
NO_CHARGE

@<TRIPOS>ATOM
      1 N          18.2067    0.8369    5.6821 N.am      1 MOL    -0.2945
      2 N          16.5043   -0.6738    4.0307 N.am      1 MOL    -0.2983
      3 N          24.4190    2.5354    4.6771 N.ar      1 MOL    -0.1750
      4 N          25.1400    2.0179    5.6612 N.ar      1 MOL    -0.2425
      5 C          24.9005    0.7045    6.1246 C.ar      1 MOL     0.2725
      6 C          23.9175   -0.0640    5.4643 C.ar      1 MOL     0.0496
      7 C          23.5886   -1.3464    5.8836 C.ar      1 MOL     0.0138
      8 C          22.6516   -2.1173    5.1977 C.ar      1 MOL     0.0008
      9 C          22.0366   -1.6125    4.0500 C.ar      1 MOL     0.0007
     10 C          22.3248   -0.3115    3.6386 C.ar      1 MOL     0.0103
     11 C          23.2271    0.4939    4.3535 C.ar      1 MOL     0.0106
     12 C          23.4354    1.8459    4.0337 C.ar      1 MOL     0.0736
     13 C          22.5646    2.5679    3.0493 C.3       1 MOL     0.0925
     14 C          21.4326    3.1947    3.8008 C.ar      1 MOL    -0.0406
     15 C          20.5424    2.3967    4.5265 C.ar      1 MOL     0.0196
     16 C          19.4879    2.9203    5.2756 C.ar      1 MOL     0.0723
     17 C          18.5986    2.0577    6.0918 C.2       1 MOL     0.2495
     18 C          16.9837    0.2864    6.2746 C.3       1 MOL     0.1268
     19 C          15.9347    0.0856    5.1376 C.3       1 MOL     0.1265
     20 C          17.7892   -0.2109    3.5086 C.3       1 MOL     0.1265
     21 C          18.8026   -0.0081    4.6728 C.3       1 MOL     0.1268
     22 C          15.8662   -1.6962    3.3995 C.2       1 MOL     0.2187
     23 C          14.5359   -2.0925    3.9153 C.3       1 MOL     0.0752
     24 C          13.7868   -3.0157    3.0322 C.3       1 MOL     0.0134
     25 C          13.4595   -1.5488    3.0385 C.3       1 MOL     0.0134
     26 C          19.3222    4.3148    5.2514 C.ar      1 MOL     0.1355
     27 C          20.1945    5.1391    4.5304 C.ar      1 MOL     0.0392
     28 C          21.2530    4.5794    3.8082 C.ar      1 MOL     0.0066
     29 O          25.5581    0.3097    7.0979 O.2       1 MOL    -0.2658
     30 O          16.3807   -2.3204    2.4598 O.2       1 MOL    -0.2753
     31 O          18.1626    2.5541    7.1432 O.2       1 MOL    -0.2699
     32 F          18.3036    4.9039    5.9225 F         1 MOL    -0.2047
     33 H          24.0744   -1.7592    6.7586 H         1 MOL     0.0625
     34 H          22.4066   -3.1094    5.5474 H         1 MOL     0.0618
     35 H          21.3350   -2.2175    3.5014 H         1 MOL     0.0618
     36 H          21.8310    0.0851    2.7622 H         1 MOL     0.0624
     37 H          22.1649    1.8436    2.3210 H         1 MOL     0.0377
     38 H          23.1526    3.3532    2.5492 H         1 MOL     0.0377
     39 H          20.6891    1.3213    4.5127 H         1 MOL     0.0629
     40 H          16.6127    0.9791    7.0621 H         1 MOL     0.0480
     41 H          17.2267   -0.6903    6.7549 H         1 MOL     0.0480
     42 H          15.6365    1.0926    4.7550 H         1 MOL     0.0480
     43 H          15.0203   -0.4259    5.5102 H         1 MOL     0.0480
     44 H          17.6265    0.7771    3.0101 H         1 MOL     0.0480
     45 H          18.1620   -0.9227    2.7419 H         1 MOL     0.0480
     46 H          19.7407    0.4626    4.3033 H         1 MOL     0.0480
     47 H          19.0607   -0.9918    5.1304 H         1 MOL     0.0480
     48 H          14.4327   -2.0933    4.9691 H         1 MOL     0.0394
     49 H          13.0735   -3.6772    3.5084 H         1 MOL     0.0273
     50 H          14.3223   -3.3950    2.1700 H         1 MOL     0.0273
     51 H          12.5323   -1.2568    3.5147 H         1 MOL     0.0273
     52 H          13.7753   -0.9854    2.1681 H         1 MOL     0.0273
     53 H          20.0453    6.2079    4.5312 H         1 MOL     0.0646
     54 H          21.9318    5.2121    3.2562 H         1 MOL     0.0621
     55 H          25.8769    2.5271    6.1177 H         1 MOL     0.1921
@<TRIPOS>BOND
     1    1   18 1 
     2    1   21 1 
     3    1   17 am
     4    2   20 1 
     5    2   22 am
     6    2   19 1 
     7    3    4 ar
     8    3   12 ar
     9    4   55 1 
    10    4    5 ar
    11    5    6 ar
    12    5   29 2 
    13    6    7 ar
    14    6   11 ar
    15    7    8 ar
    16    7   33 1 
    17    8    9 ar
    18    8   34 1 
    19    9   10 ar
    20    9   35 1 
    21   10   11 ar
    22   10   36 1 
    23   11   12 ar
    24   12   13 1 
    25   13   14 1 
    26   13   37 1 
    27   13   38 1 
    28   14   15 ar
    29   14   28 ar
    30   15   16 ar
    31   15   39 1 
    32   16   17 1 
    33   16   26 ar
    34   17   31 2 
    35   18   19 1 
    36   18   40 1 
    37   18   41 1 
    38   19   42 1 
    39   19   43 1 
    40   20   21 1 
    41   20   44 1 
    42   20   45 1 
    43   21   46 1 
    44   21   47 1 
    45   22   23 1 
    46   22   30 2 
    47   23   24 1 
    48   23   25 1 
    49   23   48 1 
    50   24   25 1 
    51   24   49 1 
    52   24   50 1 
    53   25   51 1 
    54   25   52 1 
    55   26   27 ar
    56   26   32 1 
    57   27   28 ar
    58   27   53 1 
    59   28   54 1 
@<TRIPOS>SUBSTRUCTURE
1 MOL         1
@<TRIPOS>MOLECULE
query molecule
   55    59     1     0     0
SMALL
NO_CHARGE

@<TRIPOS>ATOM
      1 N          25.5237   -8.2635   34.2923 N.am      1 MOL    -0.2945
      2 N          23.0656   -8.7369   33.0353 N.am      1 MOL    -0.2983
      3 N          31.5386  -12.6793   31.2140 N.ar      1 MOL    -0.1750
      4 N          32.7372  -13.2371   31.3241 N.ar      1 MOL    -0.2425
      5 C          33.3571  -13.3622   32.5839 C.ar      1 MOL     0.2725
      6 C          32.6594  -12.8948   33.7181 C.ar      1 MOL     0.0496
      7 C          33.2412  -13.0199   34.9849 C.ar      1 MOL     0.0138
      8 C          32.5461  -12.6005   36.1178 C.ar      1 MOL     0.0008
      9 C          31.2746  -12.0425   35.9890 C.ar      1 MOL     0.0007
     10 C          30.7017  -11.8947   34.7252 C.ar      1 MOL     0.0103
     11 C          31.3684  -12.3156   33.5597 C.ar      1 MOL     0.0106
     12 C          30.8007  -12.2343   32.2759 C.ar      1 MOL     0.0736
     13 C          29.4229  -11.7365   31.9903 C.3       1 MOL     0.0925
     14 C          29.1702  -10.3618   32.4734 C.ar      1 MOL    -0.0406
     15 C          28.0840  -10.1559   33.3358 C.ar      1 MOL     0.0196
     16 C          27.8359   -8.8808   33.8550 C.ar      1 MOL     0.0723
     17 C          26.7020   -8.7013   34.7876 C.2       1 MOL     0.2495
     18 C          24.3297   -8.2286   35.1293 C.3       1 MOL     0.1268
     19 C          23.1764   -9.0328   34.4593 C.3       1 MOL     0.1265
     20 C          24.2733   -8.6494   32.2173 C.3       1 MOL     0.1265
     21 C          25.3653   -7.8109   32.9180 C.3       1 MOL     0.1268
     22 C          21.8984   -8.7461   32.3670 C.2       1 MOL     0.2187
     23 C          20.6517   -9.0030   33.0953 C.3       1 MOL     0.0752
     24 C          20.5181  -10.4795   33.1407 C.3       1 MOL     0.0134
     25 C          19.6241   -9.6507   32.2574 C.3       1 MOL     0.0134
     26 C          28.6475   -7.8099   33.4857 C.ar      1 MOL     0.1355
     27 C          29.7262   -8.0086   32.6231 C.ar      1 MOL     0.0392
     28 C          29.9902   -9.2868   32.1205 C.ar      1 MOL     0.0066
     29 O          34.4814  -13.8728   32.6427 O.2       1 MOL    -0.2658
     30 O          21.8366   -8.4772   31.1686 O.2       1 MOL    -0.2753
     31 O          26.8779   -9.0184   35.9680 O.2       1 MOL    -0.2699
     32 F          28.3934   -6.5656   33.9560 F         1 MOL    -0.2047
     33 H          34.2271  -13.4484   35.0862 H         1 MOL     0.0625
     34 H          32.9918  -12.7121   37.0954 H         1 MOL     0.0618
     35 H          30.7325  -11.7308   36.8700 H         1 MOL     0.0618
     36 H          29.7130  -11.4620   34.6449 H         1 MOL     0.0624
     37 H          28.7042  -12.4134   32.4963 H         1 MOL     0.0377
     38 H          29.2578  -11.7629   30.8974 H         1 MOL     0.0377
     39 H          27.4434  -10.9829   33.6058 H         1 MOL     0.0629
     40 H          24.0192   -7.1625   35.2485 H         1 MOL     0.0480
     41 H          24.5594   -8.6359   36.1380 H         1 MOL     0.0480
     42 H          22.1980   -8.8148   34.9483 H         1 MOL     0.0480
     43 H          23.3744  -10.1256   34.5674 H         1 MOL     0.0480
     44 H          24.0046   -8.2122   31.2267 H         1 MOL     0.0480
     45 H          24.6502   -9.6849   32.0445 H         1 MOL     0.0480
     46 H          25.0680   -6.7348   32.9365 H         1 MOL     0.0480
     47 H          26.3376   -7.8949   32.3855 H         1 MOL     0.0480
     48 H          20.4246   -8.3967   33.9257 H         1 MOL     0.0394
     49 H          20.0556  -10.9105   34.0193 H         1 MOL     0.0273
     50 H          21.2828  -11.0593   32.6392 H         1 MOL     0.0273
     51 H          18.5916   -9.5604   32.5684 H         1 MOL     0.0273
     52 H          19.8182   -9.6981   31.1917 H         1 MOL     0.0273
     53 H          30.3556   -7.1777   32.3461 H         1 MOL     0.0646
     54 H          30.8307   -9.4472   31.4628 H         1 MOL     0.0621
     55 H          33.2427  -13.5951   30.5328 H         1 MOL     0.1921
@<TRIPOS>BOND
     1    1   18 1 
     2    1   21 1 
     3    1   17 am
     4    2   20 1 
     5    2   22 am
     6    2   19 1 
     7    3    4 ar
     8    3   12 ar
     9    4   55 1 
    10    4    5 ar
    11    5    6 ar
    12    5   29 2 
    13    6    7 ar
    14    6   11 ar
    15    7    8 ar
    16    7   33 1 
    17    8    9 ar
    18    8   34 1 
    19    9   10 ar
    20    9   35 1 
    21   10   11 ar
    22   10   36 1 
    23   11   12 ar
    24   12   13 1 
    25   13   14 1 
    26   13   37 1 
    27   13   38 1 
    28   14   15 ar
    29   14   28 ar
    30   15   16 ar
    31   15   39 1 
    32   16   17 1 
    33   16   26 ar
    34   17   31 2 
    35   18   19 1 
    36   18   40 1 
    37   18   41 1 
    38   19   42 1 
    39   19   43 1 
    40   20   21 1 
    41   20   44 1 
    42   20   45 1 
    43   21   46 1 
    44   21   47 1 
    45   22   23 1 
    46   22   30 2 
    47   23   24 1 
    48   23   25 1 
    49   23   48 1 
    50   24   25 1 
    51   24   49 1 
    52   24   50 1 
    53   25   51 1 
    54   25   52 1 
    55   26   27 ar
    56   26   32 1 
    57   27   28 ar
    58   27   53 1 
    59   28   54 1 
@<TRIPOS>SUBSTRUCTURE
1 MOL         1
@<TRIPOS>MOLECULE
query molecule
   55    59     1     0     0
SMALL
NO_CHARGE

@<TRIPOS>ATOM
      1 N          48.7063  -13.5875   20.9240 N.am      1 MOL    -0.2945
      2 N          51.3739  -14.2871   20.1111 N.am      1 MOL    -0.2983
      3 N          44.8697  -14.5052   16.2745 N.ar      1 MOL    -0.1750
      4 N          44.9712  -14.9678   15.0397 N.ar      1 MOL    -0.2425
      5 C          43.8171  -15.3991   14.3350 C.ar      1 MOL     0.2725
      6 C          42.5522  -15.2523   14.9599 C.ar      1 MOL     0.0496
      7 C          41.3788  -15.6255   14.2926 C.ar      1 MOL     0.0138
      8 C          40.1458  -15.4441   14.9049 C.ar      1 MOL     0.0008
      9 C          40.0589  -14.8832   16.1786 C.ar      1 MOL     0.0007
     10 C          41.2213  -14.5124   16.8544 C.ar      1 MOL     0.0103
     11 C          42.4884  -14.6973   16.2709 C.ar      1 MOL     0.0106
     12 C          43.6799  -14.3220   16.9205 C.ar      1 MOL     0.0736
     13 C          43.6643  -13.6959   18.2718 C.3       1 MOL     0.0925
     14 C          44.5248  -14.3813   19.2596 C.ar      1 MOL    -0.0406
     15 C          45.6059  -13.6979   19.8397 C.ar      1 MOL     0.0196
     16 C          46.3600  -14.3074   20.8510 C.ar      1 MOL     0.0723
     17 C          47.4859  -13.6083   21.5108 C.2       1 MOL     0.2495
     18 C          49.8522  -13.0312   21.6466 C.3       1 MOL     0.1268
     19 C          51.1329  -13.9146   21.4973 C.3       1 MOL     0.1265
     20 C          50.2272  -14.8538   19.3943 C.3       1 MOL     0.1265
     21 C          48.9399  -14.0048   19.5508 C.3       1 MOL     0.1268
     22 C          52.6067  -14.4946   19.5630 C.2       1 MOL     0.2187
     23 C          53.8202  -14.2867   20.3913 C.3       1 MOL     0.0752
     24 C          54.1534  -12.8610   20.6472 C.3       1 MOL     0.0134
     25 C          54.9074  -13.6290   19.6026 C.3       1 MOL     0.0134
     26 C          46.0343  -15.6034   21.2621 C.ar      1 MOL     0.1355
     27 C          44.9903  -16.3026   20.6585 C.ar      1 MOL     0.0392
     28 C          44.2402  -15.6946   19.6493 C.ar      1 MOL     0.0066
     29 O          43.9626  -15.8639   13.2004 O.2       1 MOL    -0.2658
     30 O          52.7489  -14.9238   18.4125 O.2       1 MOL    -0.2753
     31 O          47.2514  -13.1266   22.6258 O.2       1 MOL    -0.2699
     32 F          46.7349  -16.1978   22.2567 F         1 MOL    -0.2047
     33 H          41.4294  -16.0515   13.3014 H         1 MOL     0.0625
     34 H          39.2338  -15.7263   14.3806 H         1 MOL     0.0618
     35 H          39.0909  -14.7385   16.6398 H         1 MOL     0.0618
     36 H          41.1433  -14.0703   17.8359 H         1 MOL     0.0624
     37 H          42.6249  -13.7072   18.6520 H         1 MOL     0.0377
     38 H          44.0169  -12.6509   18.1743 H         1 MOL     0.0377
     39 H          45.8470  -12.6968   19.5136 H         1 MOL     0.0629
     40 H          49.5840  -12.8968   22.7191 H         1 MOL     0.0480
     41 H          50.0683  -12.0195   21.2216 H         1 MOL     0.0480
     42 H          50.9970  -14.8544   22.0864 H         1 MOL     0.0480
     43 H          52.0314  -13.3928   21.9004 H         1 MOL     0.0480
     44 H          50.0384  -15.8740   19.8080 H         1 MOL     0.0480
     45 H          50.4944  -14.9649   18.3184 H         1 MOL     0.0480
     46 H          48.0446  -14.5372   19.1636 H         1 MOL     0.0480
     47 H          49.0651  -13.0735   18.9399 H         1 MOL     0.0480
     48 H          54.0497  -15.0579   21.0831 H         1 MOL     0.0394
     49 H          54.7068  -12.6426   21.5548 H         1 MOL     0.0273
     50 H          53.4524  -12.1147   20.2997 H         1 MOL     0.0273
     51 H          55.9267  -13.9093   19.8408 H         1 MOL     0.0273
     52 H          54.6904  -13.3777   18.5715 H         1 MOL     0.0273
     53 H          44.7599  -17.3096   20.9713 H         1 MOL     0.0646
     54 H          43.4369  -16.2375   19.1756 H         1 MOL     0.0621
     55 H          45.8469  -15.0229   14.5452 H         1 MOL     0.1921
@<TRIPOS>BOND
     1    1   18 1 
     2    1   21 1 
     3    1   17 am
     4    2   20 1 
     5    2   22 am
     6    2   19 1 
     7    3    4 ar
     8    3   12 ar
     9    4   55 1 
    10    4    5 ar
    11    5    6 ar
    12    5   29 2 
    13    6    7 ar
    14    6   11 ar
    15    7    8 ar
    16    7   33 1 
    17    8    9 ar
    18    8   34 1 
    19    9   10 ar
    20    9   35 1 
    21   10   11 ar
    22   10   36 1 
    23   11   12 ar
    24   12   13 1 
    25   13   14 1 
    26   13   37 1 
    27   13   38 1 
    28   14   15 ar
    29   14   28 ar
    30   15   16 ar
    31   15   39 1 
    32   16   17 1 
    33   16   26 ar
    34   17   31 2 
    35   18   19 1 
    36   18   40 1 
    37   18   41 1 
    38   19   42 1 
    39   19   43 1 
    40   20   21 1 
    41   20   44 1 
    42   20   45 1 
    43   21   46 1 
    44   21   47 1 
    45   22   23 1 
    46   22   30 2 
    47   23   24 1 
    48   23   25 1 
    49   23   48 1 
    50   24   25 1 
    51   24   49 1 
    52   24   50 1 
    53   25   51 1 
    54   25   52 1 
    55   26   27 ar
    56   26   32 1 
    57   27   28 ar
    58   27   53 1 
    59   28   54 1 
@<TRIPOS>SUBSTRUCTURE
1 MOL         1
@<TRIPOS>MOLECULE
query molecule
   55    59     1     0     0
SMALL
NO_CHARGE

@<TRIPOS>ATOM
      1 N          16.7486  -18.2021   31.7219 N.am      1 MOL    -0.2945
      2 N          19.3927  -17.1862   32.0985 N.am      1 MOL    -0.2983
      3 N           9.8856  -16.8341   32.7638 N.ar      1 MOL    -0.1750
      4 N           8.5702  -17.0211   32.8202 N.ar      1 MOL    -0.2425
      5 C           7.7720  -16.3121   33.7446 C.ar      1 MOL     0.2725
      6 C           8.4127  -15.4068   34.6207 C.ar      1 MOL     0.0496
      7 C           7.6784  -14.6623   35.5468 C.ar      1 MOL     0.0138
      8 C           8.3181  -13.7724   36.4104 C.ar      1 MOL     0.0008
      9 C           9.7058  -13.6384   36.3665 C.ar      1 MOL     0.0007
     10 C          10.4519  -14.3795   35.4497 C.ar      1 MOL     0.0103
     11 C           9.8255  -15.2571   34.5514 C.ar      1 MOL     0.0106
     12 C          10.5576  -15.9832   33.5936 C.ar      1 MOL     0.0736
     13 C          12.0455  -15.8371   33.4664 C.3       1 MOL     0.0925
     14 C          12.7869  -17.1273   33.5652 C.ar      1 MOL    -0.0406
     15 C          13.8076  -17.4218   32.6454 C.ar      1 MOL     0.0196
     16 C          14.5357  -18.6151   32.7344 C.ar      1 MOL     0.0723
     17 C          15.6172  -18.9468   31.7781 C.2       1 MOL     0.2495
     18 C          17.8583  -18.7282   30.9214 C.3       1 MOL     0.1268
     19 C          19.2312  -18.5553   31.6347 C.3       1 MOL     0.1265
     20 C          18.3132  -16.6513   32.9235 C.3       1 MOL     0.1265
     21 C          16.9063  -16.8824   32.3060 C.3       1 MOL     0.1268
     22 C          20.5679  -16.5007   32.0662 C.2       1 MOL     0.2187
     23 C          21.8070  -17.2722   31.8424 C.3       1 MOL     0.0752
     24 C          22.2244  -17.8184   33.1715 C.3       1 MOL     0.0134
     25 C          23.0162  -16.7294   32.5119 C.3       1 MOL     0.0134
     26 C          14.2173  -19.5217   33.7566 C.ar      1 MOL     0.1355
     27 C          13.2042  -19.2428   34.6742 C.ar      1 MOL     0.0392
     28 C          12.4925  -18.0489   34.5797 C.ar      1 MOL     0.0066
     29 O           6.5493  -16.5272   33.7562 O.2       1 MOL    -0.2658
     30 O          20.6460  -15.2775   32.2453 O.2       1 MOL    -0.2753
     31 O          15.4545  -19.9737   31.1032 O.2       1 MOL    -0.2699
     32 F          14.8989  -20.6884   33.8741 F         1 MOL    -0.2047
     33 H           6.6030  -14.7679   35.5893 H         1 MOL     0.0625
     34 H           7.7413  -13.1878   37.1117 H         1 MOL     0.0618
     35 H          10.2053  -12.9615   37.0433 H         1 MOL     0.0618
     36 H          11.5273  -14.2745   35.4278 H         1 MOL     0.0624
     37 H          12.4034  -15.1736   34.2781 H         1 MOL     0.0377
     38 H          12.2596  -15.3789   32.4818 H         1 MOL     0.0377
     39 H          14.0384  -16.7159   31.8579 H         1 MOL     0.0629
     40 H          17.8739  -18.1693   29.9551 H         1 MOL     0.0480
     41 H          17.6589  -19.8010   30.6989 H         1 MOL     0.0480
     42 H          20.0660  -18.8138   30.9451 H         1 MOL     0.0480
     43 H          19.2869  -19.2360   32.5176 H         1 MOL     0.0480
     44 H          18.4894  -15.5625   33.0899 H         1 MOL     0.0480
     45 H          18.3621  -17.1578   33.9188 H         1 MOL     0.0480
     46 H          16.7526  -16.1326   31.4937 H         1 MOL     0.0480
     47 H          16.1095  -16.7227   33.0710 H         1 MOL     0.0480
     48 H          21.8420  -17.8898   30.9844 H         1 MOL     0.0394
     49 H          22.6671  -18.8019   33.2004 H         1 MOL     0.0273
     50 H          21.6118  -17.5157   34.0123 H         1 MOL     0.0273
     51 H          23.9886  -17.0239   32.1341 H         1 MOL     0.0273
     52 H          22.9236  -15.7293   32.9169 H         1 MOL     0.0273
     53 H          12.9679  -19.9429   35.4592 H         1 MOL     0.0646
     54 H          11.7052  -17.8181   35.2827 H         1 MOL     0.0621
     55 H           8.1002  -17.6729   32.2150 H         1 MOL     0.1921
@<TRIPOS>BOND
     1    1   18 1 
     2    1   21 1 
     3    1   17 am
     4    2   20 1 
     5    2   22 am
     6    2   19 1 
     7    3    4 ar
     8    3   12 ar
     9    4   55 1 
    10    4    5 ar
    11    5    6 ar
    12    5   29 2 
    13    6    7 ar
    14    6   11 ar
    15    7    8 ar
    16    7   33 1 
    17    8    9 ar
    18    8   34 1 
    19    9   10 ar
    20    9   35 1 
    21   10   11 ar
    22   10   36 1 
    23   11   12 ar
    24   12   13 1 
    25   13   14 1 
    26   13   37 1 
    27   13   38 1 
    28   14   15 ar
    29   14   28 ar
    30   15   16 ar
    31   15   39 1 
    32   16   17 1 
    33   16   26 ar
    34   17   31 2 
    35   18   19 1 
    36   18   40 1 
    37   18   41 1 
    38   19   42 1 
    39   19   43 1 
    40   20   21 1 
    41   20   44 1 
    42   20   45 1 
    43   21   46 1 
    44   21   47 1 
    45   22   23 1 
    46   22   30 2 
    47   23   24 1 
    48   23   25 1 
    49   23   48 1 
    50   24   25 1 
    51   24   49 1 
    52   24   50 1 
    53   25   51 1 
    54   25   52 1 
    55   26   27 ar
    56   26   32 1 
    57   27   28 ar
    58   27   53 1 
    59   28   54 1 
@<TRIPOS>SUBSTRUCTURE
1 MOL         1
@<TRIPOS>MOLECULE
query molecule
   55    59     1     0     0
SMALL
NO_CHARGE

@<TRIPOS>ATOM
      1 N          48.7802   -1.1212   13.4994 N.am      1 MOL    -0.2945
      2 N          47.7980   -1.1647   10.8641 N.am      1 MOL    -0.2983
      3 N          45.6755   -1.8488   19.5497 N.ar      1 MOL    -0.1750
      4 N          45.7276   -2.1518   20.8402 N.ar      1 MOL    -0.2425
      5 C          45.1384   -1.3457   21.8274 C.ar      1 MOL     0.2725
      6 C          44.5043   -0.1601   21.4242 C.ar      1 MOL     0.0496
      7 C          43.8913    0.6783   22.3585 C.ar      1 MOL     0.0138
      8 C          43.2932    1.8687   21.9433 C.ar      1 MOL     0.0008
      9 C          43.3113    2.2281   20.5950 C.ar      1 MOL     0.0007
     10 C          43.9152    1.3900   19.6570 C.ar      1 MOL     0.0103
     11 C          44.5081    0.1794   20.0438 C.ar      1 MOL     0.0106
     12 C          45.1016   -0.6920   19.1144 C.ar      1 MOL     0.0736
     13 C          45.1178   -0.3849   17.6582 C.3       1 MOL     0.0925
     14 C          46.4725    0.0019   17.1991 C.ar      1 MOL    -0.0406
     15 C          47.1230   -0.7770   16.2378 C.ar      1 MOL     0.0196
     16 C          48.4059   -0.4260   15.8084 C.ar      1 MOL     0.0723
     17 C          49.0936   -1.2714   14.8100 C.2       1 MOL     0.2495
     18 C          49.3556   -2.0679   12.5477 C.3       1 MOL     0.1268
     19 C          48.3914   -2.3863   11.3725 C.3       1 MOL     0.1265
     20 C          47.0608   -0.3889   11.8488 C.3       1 MOL     0.1265
     21 C          48.0110    0.0128   13.0042 C.3       1 MOL     0.1268
     22 C          48.0169   -0.6500    9.6294 C.2       1 MOL     0.2187
     23 C          49.0044   -1.3253    8.7526 C.3       1 MOL     0.0752
     24 C          48.5904   -1.2707    7.3253 C.3       1 MOL     0.0134
     25 C          48.4519   -2.5455    8.0938 C.3       1 MOL     0.0134
     26 C          49.0284    0.7085   16.3252 C.ar      1 MOL     0.1355
     27 C          48.3799    1.4992   17.2725 C.ar      1 MOL     0.0392
     28 C          47.1005    1.1452   17.7114 C.ar      1 MOL     0.0066
     29 O          45.2243   -1.7150   23.0071 O.2       1 MOL    -0.2658
     30 O          47.5093    0.4147    9.2479 O.2       1 MOL    -0.2753
     31 O          49.8933   -2.1061   15.2373 O.2       1 MOL    -0.2699
     32 F          50.2676    1.0553   15.9034 F         1 MOL    -0.2047
     33 H          43.8858    0.4093   23.4047 H         1 MOL     0.0625
     34 H          42.8223    2.5168   22.6676 H         1 MOL     0.0618
     35 H          42.8588    3.1555   20.2778 H         1 MOL     0.0618
     36 H          43.9228    1.6772   18.6139 H         1 MOL     0.0624
     37 H          44.4276    0.4582   17.4667 H         1 MOL     0.0377
     38 H          44.7953   -1.2802   17.0974 H         1 MOL     0.0377
     39 H          46.6349   -1.6480   15.8277 H         1 MOL     0.0629
     40 H          49.6529   -2.9985   13.0824 H         1 MOL     0.0480
     41 H          50.2837   -1.6093   12.1246 H         1 MOL     0.0480
     42 H          47.5660   -3.0493   11.7240 H         1 MOL     0.0480
     43 H          48.9237   -2.9066   10.5425 H         1 MOL     0.0480
     44 H          46.2230   -1.0219   12.2370 H         1 MOL     0.0480
     45 H          46.6092    0.5061   11.3618 H         1 MOL     0.0480
     46 H          47.4604    0.4847   13.8472 H         1 MOL     0.0480
     47 H          48.7332    0.7659   12.6029 H         1 MOL     0.0480
     48 H          50.0207   -1.2549    9.0456 H         1 MOL     0.0394
     49 H          49.3865   -1.2155    6.5972 H         1 MOL     0.0273
     50 H          47.6801   -0.7300    7.1134 H         1 MOL     0.0273
     51 H          49.1582   -3.3339    7.8515 H         1 MOL     0.0273
     52 H          47.4533   -2.8496    8.3857 H         1 MOL     0.0273
     53 H          48.8650    2.3807   17.6629 H         1 MOL     0.0646
     54 H          46.5979    1.7542   18.4487 H         1 MOL     0.0621
     55 H          46.1930   -2.9839   21.1843 H         1 MOL     0.1921
@<TRIPOS>BOND
     1    1   18 1 
     2    1   21 1 
     3    1   17 am
     4    2   20 1 
     5    2   22 am
     6    2   19 1 
     7    3    4 ar
     8    3   12 ar
     9    4   55 1 
    10    4    5 ar
    11    5    6 ar
    12    5   29 2 
    13    6    7 ar
    14    6   11 ar
    15    7    8 ar
    16    7   33 1 
    17    8    9 ar
    18    8   34 1 
    19    9   10 ar
    20    9   35 1 
    21   10   11 ar
    22   10   36 1 
    23   11   12 ar
    24   12   13 1 
    25   13   14 1 
    26   13   37 1 
    27   13   38 1 
    28   14   15 ar
    29   14   28 ar
    30   15   16 ar
    31   15   39 1 
    32   16   17 1 
    33   16   26 ar
    34   17   31 2 
    35   18   19 1 
    36   18   40 1 
    37   18   41 1 
    38   19   42 1 
    39   19   43 1 
    40   20   21 1 
    41   20   44 1 
    42   20   45 1 
    43   21   46 1 
    44   21   47 1 
    45   22   23 1 
    46   22   30 2 
    47   23   24 1 
    48   23   25 1 
    49   23   48 1 
    50   24   25 1 
    51   24   49 1 
    52   24   50 1 
    53   25   51 1 
    54   25   52 1 
    55   26   27 ar
    56   26   32 1 
    57   27   28 ar
    58   27   53 1 
    59   28   54 1 
@<TRIPOS>SUBSTRUCTURE
1 MOL         1
@<TRIPOS>MOLECULE
query molecule
   55    59     1     0     0
SMALL
NO_CHARGE

@<TRIPOS>ATOM
      1 N          16.8506   12.9413   25.8200 N.am      1 MOL    -0.2945
      2 N          17.3925   12.3223   28.5517 N.am      1 MOL    -0.2983
      3 N          13.1035    9.2486   22.1713 N.ar      1 MOL    -0.1750
      4 N          11.7871    9.4160   22.2735 N.ar      1 MOL    -0.2425
      5 C          11.0775    8.8520   23.3552 C.ar      1 MOL     0.2725
      6 C          11.7912    8.0859   24.3061 C.ar      1 MOL     0.0496
      7 C          11.1292    7.4670   25.3722 C.ar      1 MOL     0.0138
      8 C          11.8379    6.6875   26.2868 C.ar      1 MOL     0.0008
      9 C          13.2179    6.5320   26.1541 C.ar      1 MOL     0.0007
     10 C          13.8921    7.1614   25.1085 C.ar      1 MOL     0.0103
     11 C          13.2000    7.9347   24.1587 C.ar      1 MOL     0.0106
     12 C          13.8452    8.5345   23.0637 C.ar      1 MOL     0.0736
     13 C          15.3132    8.3771   22.8387 C.3       1 MOL     0.0925
     14 C          16.0533    9.6484   22.7927 C.ar      1 MOL    -0.0406
     15 C          15.7983   10.6705   23.7120 C.ar      1 MOL     0.0196
     16 C          16.5158   11.8632   23.6549 C.ar      1 MOL     0.0723
     17 C          16.2089   12.9258   24.6315 C.2       1 MOL     0.2495
     18 C          16.4093   13.8723   26.8572 C.3       1 MOL     0.1268
     19 C          16.2321   13.1476   28.2276 C.3       1 MOL     0.1265
     20 C          17.8729   11.4317   27.5010 C.3       1 MOL     0.1265
     21 C          18.0172   12.1294   26.1239 C.3       1 MOL     0.1268
     22 C          17.8599   12.1412   29.8259 C.2       1 MOL     0.2187
     23 C          17.2679   12.9658   30.9084 C.3       1 MOL     0.0752
     24 C          17.4454   12.4181   32.2786 C.3       1 MOL     0.0134
     25 C          16.1466   12.2112   31.5555 C.3       1 MOL     0.0134
     26 C          17.4937   12.0345   22.6778 C.ar      1 MOL     0.1355
     27 C          17.7586   11.0217   21.7570 C.ar      1 MOL     0.0392
     28 C          17.0368    9.8235   21.8118 C.ar      1 MOL     0.0066
     29 O           9.8523    9.0637   23.4206 O.2       1 MOL    -0.2658
     30 O          18.7555   11.3261   30.0894 O.2       1 MOL    -0.2753
     31 O          15.3205   13.7252   24.3157 O.2       1 MOL    -0.2699
     32 F          18.1950   13.1913   22.6182 F         1 MOL    -0.2047
     33 H          10.0620    7.5915   25.4845 H         1 MOL     0.0625
     34 H          11.3129    6.2035   27.0981 H         1 MOL     0.0618
     35 H          13.7568    5.9186   26.8639 H         1 MOL     0.0618
     36 H          14.9650    7.0298   25.0180 H         1 MOL     0.0624
     37 H          15.4559    7.8648   21.8665 H         1 MOL     0.0377
     38 H          15.7268    7.7606   23.6591 H         1 MOL     0.0377
     39 H          15.0363   10.5308   24.4681 H         1 MOL     0.0629
     40 H          15.4614   14.3601   26.5348 H         1 MOL     0.0480
     41 H          17.1882   14.6651   26.9648 H         1 MOL     0.0480
     42 H          15.3397   12.4750   28.1694 H         1 MOL     0.0480
     43 H          16.0527   13.8796   29.0481 H         1 MOL     0.0480
     44 H          17.1177   10.6106   27.3952 H         1 MOL     0.0480
     45 H          18.8290   10.9641   27.8267 H         1 MOL     0.0480
     46 H          18.1559   11.3709   25.3188 H         1 MOL     0.0480
     47 H          18.9148   12.7917   26.1332 H         1 MOL     0.0480
     48 H          17.1838   14.0035   30.7106 H         1 MOL     0.0394
     49 H          17.4193   13.1270   33.0997 H         1 MOL     0.0273
     50 H          18.1041   11.5665   32.3798 H         1 MOL     0.0273
     51 H          15.2978   12.7888   31.8990 H         1 MOL     0.0273
     52 H          15.9595   11.2116   31.1790 H         1 MOL     0.0273
     53 H          18.5180   11.1616   21.0029 H         1 MOL     0.0646
     54 H          17.2409    9.0381   21.1003 H         1 MOL     0.0621
     55 H          11.2551    9.9358   21.5945 H         1 MOL     0.1921
@<TRIPOS>BOND
     1    1   18 1 
     2    1   21 1 
     3    1   17 am
     4    2   20 1 
     5    2   22 am
     6    2   19 1 
     7    3    4 ar
     8    3   12 ar
     9    4   55 1 
    10    4    5 ar
    11    5    6 ar
    12    5   29 2 
    13    6    7 ar
    14    6   11 ar
    15    7    8 ar
    16    7   33 1 
    17    8    9 ar
    18    8   34 1 
    19    9   10 ar
    20    9   35 1 
    21   10   11 ar
    22   10   36 1 
    23   11   12 ar
    24   12   13 1 
    25   13   14 1 
    26   13   37 1 
    27   13   38 1 
    28   14   15 ar
    29   14   28 ar
    30   15   16 ar
    31   15   39 1 
    32   16   17 1 
    33   16   26 ar
    34   17   31 2 
    35   18   19 1 
    36   18   40 1 
    37   18   41 1 
    38   19   42 1 
    39   19   43 1 
    40   20   21 1 
    41   20   44 1 
    42   20   45 1 
    43   21   46 1 
    44   21   47 1 
    45   22   23 1 
    46   22   30 2 
    47   23   24 1 
    48   23   25 1 
    49   23   48 1 
    50   24   25 1 
    51   24   49 1 
    52   24   50 1 
    53   25   51 1 
    54   25   52 1 
    55   26   27 ar
    56   26   32 1 
    57   27   28 ar
    58   27   53 1 
    59   28   54 1 
@<TRIPOS>SUBSTRUCTURE
1 MOL         1
@<TRIPOS>MOLECULE
query molecule
   55    59     1     0     0
SMALL
NO_CHARGE

@<TRIPOS>ATOM
      1 N          32.5342    5.2022    0.8093 N.am      1 MOL    -0.2945
      2 N          34.7839    6.9656    0.8106 N.am      1 MOL    -0.2983
      3 N          28.4387    4.2025    4.2079 N.ar      1 MOL    -0.1750
      4 N          27.2007    4.5843    3.9268 N.ar      1 MOL    -0.2425
      5 C          26.1069    3.7733    4.2894 C.ar      1 MOL     0.2725
      6 C          26.3590    2.5559    4.9596 C.ar      1 MOL     0.0496
      7 C          25.3120    1.7195    5.3622 C.ar      1 MOL     0.0138
      8 C          25.5787    0.5296    6.0443 C.ar      1 MOL     0.0008
      9 C          26.8992    0.1583    6.3062 C.ar      1 MOL     0.0007
     10 C          27.9517    0.9777    5.8946 C.ar      1 MOL     0.0103
     11 C          27.7076    2.1917    5.2369 C.ar      1 MOL     0.0106
     12 C          28.7558    3.0456    4.8539 C.ar      1 MOL     0.0736
     13 C          30.1852    2.7310    5.1412 C.3       1 MOL     0.0925
     14 C          30.9830    2.4185    3.9259 C.ar      1 MOL    -0.0406
     15 C          31.0699    3.3194    2.8596 C.ar      1 MOL     0.0196
     16 C          31.8500    3.0339    1.7358 C.ar      1 MOL     0.0723
     17 C          31.9522    3.9987    0.6193 C.2       1 MOL     0.2495
     18 C          32.7065    6.1238   -0.3105 C.3       1 MOL     0.1268
     19 C          34.2097    6.5237   -0.4542 C.3       1 MOL     0.1265
     20 C          34.4892    6.1715    1.9988 C.3       1 MOL     0.1265
     21 C          33.0116    5.7140    2.0758 C.3       1 MOL     0.1268
     22 C          35.8296    7.8398    0.9026 C.2       1 MOL     0.2187
     23 C          36.5110    8.2522   -0.3525 C.3       1 MOL     0.0752
     24 C          37.6056    7.2776   -0.6671 C.3       1 MOL     0.0134
     25 C          37.9307    8.6575   -0.1743 C.3       1 MOL     0.0134
     26 C          32.5325    1.8155    1.6789 C.ar      1 MOL     0.1355
     27 C          32.4579    0.9026    2.7297 C.ar      1 MOL     0.0392
     28 C          31.6804    1.2043    3.8515 C.ar      1 MOL     0.0066
     29 O          24.9687    4.1895    4.0206 O.2       1 MOL    -0.2658
     30 O          36.2160    8.2970    1.9905 O.2       1 MOL    -0.2753
     31 O          31.5325    3.6101   -0.4776 O.2       1 MOL    -0.2699
     32 F          33.3057    1.5237    0.6088 F         1 MOL    -0.2047
     33 H          24.2870    1.9952    5.1551 H         1 MOL     0.0625
     34 H          24.7668   -0.1044    6.3698 H         1 MOL     0.0618
     35 H          27.1070   -0.7614    6.8341 H         1 MOL     0.0618
     36 H          28.9710    0.6762    6.0941 H         1 MOL     0.0624
     37 H          30.2250    1.8589    5.8230 H         1 MOL     0.0377
     38 H          30.6383    3.6168    5.6224 H         1 MOL     0.0377
     39 H          30.5147    4.2425    2.9160 H         1 MOL     0.0629
     40 H          32.0950    7.0380   -0.1070 H         1 MOL     0.0480
     41 H          32.3170    5.6573   -1.2415 H         1 MOL     0.0480
     42 H          34.3333    7.3339   -1.2081 H         1 MOL     0.0480
     43 H          34.7828    5.6331   -0.8074 H         1 MOL     0.0480
     44 H          34.7742    6.7384    2.9146 H         1 MOL     0.0480
     45 H          35.1251    5.2546    1.9586 H         1 MOL     0.0480
     46 H          32.3711    6.5844    2.3583 H         1 MOL     0.0480
     47 H          32.8657    4.9326    2.8549 H         1 MOL     0.0480
     48 H          35.8931    8.6282   -1.1271 H         1 MOL     0.0394
     49 H          37.8189    7.0706   -1.7082 H         1 MOL     0.0273
     50 H          37.7750    6.4780    0.0444 H         1 MOL     0.0273
     51 H          38.3458    9.3353   -0.9125 H         1 MOL     0.0273
     52 H          38.2902    8.7514    0.8423 H         1 MOL     0.0273
     53 H          33.0158   -0.0210    2.6821 H         1 MOL     0.0646
     54 H          31.6327    0.5001    4.6693 H         1 MOL     0.0621
     55 H          26.9948    5.4486    3.4599 H         1 MOL     0.1921
@<TRIPOS>BOND
     1    1   18 1 
     2    1   21 1 
     3    1   17 am
     4    2   20 1 
     5    2   22 am
     6    2   19 1 
     7    3    4 ar
     8    3   12 ar
     9    4   55 1 
    10    4    5 ar
    11    5    6 ar
    12    5   29 2 
    13    6    7 ar
    14    6   11 ar
    15    7    8 ar
    16    7   33 1 
    17    8    9 ar
    18    8   34 1 
    19    9   10 ar
    20    9   35 1 
    21   10   11 ar
    22   10   36 1 
    23   11   12 ar
    24   12   13 1 
    25   13   14 1 
    26   13   37 1 
    27   13   38 1 
    28   14   15 ar
    29   14   28 ar
    30   15   16 ar
    31   15   39 1 
    32   16   17 1 
    33   16   26 ar
    34   17   31 2 
    35   18   19 1 
    36   18   40 1 
    37   18   41 1 
    38   19   42 1 
    39   19   43 1 
    40   20   21 1 
    41   20   44 1 
    42   20   45 1 
    43   21   46 1 
    44   21   47 1 
    45   22   23 1 
    46   22   30 2 
    47   23   24 1 
    48   23   25 1 
    49   23   48 1 
    50   24   25 1 
    51   24   49 1 
    52   24   50 1 
    53   25   51 1 
    54   25   52 1 
    55   26   27 ar
    56   26   32 1 
    57   27   28 ar
    58   27   53 1 
    59   28   54 1 
@<TRIPOS>SUBSTRUCTURE
1 MOL         1
@<TRIPOS>MOLECULE
query molecule
   55    59     1     0     0
SMALL
NO_CHARGE

@<TRIPOS>ATOM
      1 N          44.7935  -14.3252   24.7427 N.am      1 MOL    -0.2945
      2 N          46.8555  -13.3843   23.0436 N.am      1 MOL    -0.2983
      3 N          41.2743  -13.9657   31.2920 N.ar      1 MOL    -0.1750
      4 N          40.2413  -14.5794   31.8494 N.ar      1 MOL    -0.2425
      5 C          40.3338  -15.9345   32.2235 C.ar      1 MOL     0.2725
      6 C          41.5243  -16.6360   31.9427 C.ar      1 MOL     0.0496
      7 C          41.6534  -17.9843   32.2923 C.ar      1 MOL     0.0138
      8 C          42.8371  -18.6691   32.0164 C.ar      1 MOL     0.0008
      9 C          43.8938  -18.0096   31.3858 C.ar      1 MOL     0.0007
     10 C          43.7701  -16.6636   31.0319 C.ar      1 MOL     0.0103
     11 C          42.5929  -15.9494   31.3027 C.ar      1 MOL     0.0106
     12 C          42.4445  -14.5912   30.9751 C.ar      1 MOL     0.0736
     13 C          43.5345  -13.8175   30.3138 C.3       1 MOL     0.0925
     14 C          43.1651  -13.4220   28.9364 C.ar      1 MOL    -0.0406
     15 C          43.5153  -14.2332   27.8488 C.ar      1 MOL     0.0196
     16 C          43.2158  -13.8261   26.5414 C.ar      1 MOL     0.0723
     17 C          43.6470  -14.6476   25.3943 C.2       1 MOL     0.2495
     18 C          45.1816  -15.1258   23.5792 C.3       1 MOL     0.1268
     19 C          45.8670  -14.2782   22.4658 C.3       1 MOL     0.1265
     20 C          46.3356  -12.4664   24.0539 C.3       1 MOL     0.1265
     21 C          45.7183  -13.2983   25.2184 C.3       1 MOL     0.1268
     22 C          48.1951  -13.4678   22.8412 C.2       1 MOL     0.2187
     23 C          48.7182  -14.6025   22.0393 C.3       1 MOL     0.0752
     24 C          49.9150  -14.2245   21.2416 C.3       1 MOL     0.0134
     25 C          48.5786  -14.3637   20.5739 C.3       1 MOL     0.0134
     26 C          42.5259  -12.6393   26.3300 C.ar      1 MOL     0.1355
     27 C          42.1610  -11.8464   27.4120 C.ar      1 MOL     0.0392
     28 C          42.4835  -12.2230   28.7133 C.ar      1 MOL     0.0066
     29 O          39.3630  -16.4498   32.7954 O.2       1 MOL    -0.2658
     30 O          49.0011  -12.6968   23.3842 O.2       1 MOL    -0.2753
     31 O          42.9170  -15.5940   25.0860 O.2       1 MOL    -0.2699
     32 F          42.2065  -12.2318   25.0814 F         1 MOL    -0.2047
     33 H          40.8372  -18.4975   32.7801 H         1 MOL     0.0625
     34 H          42.9354  -19.7092   32.2926 H         1 MOL     0.0618
     35 H          44.8089  -18.5445   31.1750 H         1 MOL     0.0618
     36 H          44.5986  -16.1667   30.5469 H         1 MOL     0.0624
     37 H          44.4416  -14.4459   30.2682 H         1 MOL     0.0377
     38 H          43.7246  -12.9043   30.9054 H         1 MOL     0.0377
     39 H          44.0291  -15.1671   28.0205 H         1 MOL     0.0629
     40 H          44.2870  -15.6562   23.1822 H         1 MOL     0.0480
     41 H          45.9134  -15.8982   23.9221 H         1 MOL     0.0480
     42 H          45.1047  -13.6497   21.9437 H         1 MOL     0.0480
     43 H          46.3557  -14.9230   21.7027 H         1 MOL     0.0480
     44 H          45.5571  -11.8254   23.5779 H         1 MOL     0.0480
     45 H          47.1562  -11.8074   24.4144 H         1 MOL     0.0480
     46 H          45.2041  -12.6476   25.9583 H         1 MOL     0.0480
     47 H          46.5592  -13.8159   25.7453 H         1 MOL     0.0480
     48 H          48.6050  -15.5672   22.4646 H         1 MOL     0.0394
     49 H          50.6393  -15.0066   21.0560 H         1 MOL     0.0273
     50 H          50.2818  -13.2158   21.3763 H         1 MOL     0.0273
     51 H          48.4360  -15.2375   19.9481 H         1 MOL     0.0273
     52 H          48.0736  -13.4529   20.2723 H         1 MOL     0.0273
     53 H          41.6262  -10.9280   27.2352 H         1 MOL     0.0646
     54 H          42.2077  -11.5897   29.5409 H         1 MOL     0.0621
     55 H          39.3647  -14.1132   32.0079 H         1 MOL     0.1921
@<TRIPOS>BOND
     1    1   18 1 
     2    1   21 1 
     3    1   17 am
     4    2   20 1 
     5    2   22 am
     6    2   19 1 
     7    3    4 ar
     8    3   12 ar
     9    4   55 1 
    10    4    5 ar
    11    5    6 ar
    12    5   29 2 
    13    6    7 ar
    14    6   11 ar
    15    7    8 ar
    16    7   33 1 
    17    8    9 ar
    18    8   34 1 
    19    9   10 ar
    20    9   35 1 
    21   10   11 ar
    22   10   36 1 
    23   11   12 ar
    24   12   13 1 
    25   13   14 1 
    26   13   37 1 
    27   13   38 1 
    28   14   15 ar
    29   14   28 ar
    30   15   16 ar
    31   15   39 1 
    32   16   17 1 
    33   16   26 ar
    34   17   31 2 
    35   18   19 1 
    36   18   40 1 
    37   18   41 1 
    38   19   42 1 
    39   19   43 1 
    40   20   21 1 
    41   20   44 1 
    42   20   45 1 
    43   21   46 1 
    44   21   47 1 
    45   22   23 1 
    46   22   30 2 
    47   23   24 1 
    48   23   25 1 
    49   23   48 1 
    50   24   25 1 
    51   24   49 1 
    52   24   50 1 
    53   25   51 1 
    54   25   52 1 
    55   26   27 ar
    56   26   32 1 
    57   27   28 ar
    58   27   53 1 
    59   28   54 1 
@<TRIPOS>SUBSTRUCTURE
1 MOL         1
@<TRIPOS>MOLECULE
query molecule
   55    59     1     0     0
SMALL
NO_CHARGE

@<TRIPOS>ATOM
      1 N          10.1648    0.4499   33.3036 N.am      1 MOL    -0.2945
      2 N           9.9703    3.0985   34.2812 N.am      1 MOL    -0.2983
      3 N          11.9778   -4.4978   35.7635 N.ar      1 MOL    -0.1750
      4 N          13.2400   -4.8309   35.5595 N.ar      1 MOL    -0.2425
      5 C          13.6204   -6.1793   35.7033 C.ar      1 MOL     0.2725
      6 C          12.6204   -7.1484   35.9380 C.ar      1 MOL     0.0496
      7 C          12.9392   -8.5108   35.9805 C.ar      1 MOL     0.0138
      8 C          11.9446   -9.4568   36.2331 C.ar      1 MOL     0.0008
      9 C          10.6284   -9.0471   36.4533 C.ar      1 MOL     0.0007
     10 C          10.3007   -7.6906   36.4033 C.ar      1 MOL     0.0103
     11 C          11.2753   -6.7195   36.1296 C.ar      1 MOL     0.0106
     12 C          10.9547   -5.3530   36.0508 C.ar      1 MOL     0.0736
     13 C           9.5591   -4.8405   36.2802 C.3       1 MOL     0.0925
     14 C           9.1216   -3.8861   35.2279 C.ar      1 MOL    -0.0406
     15 C           9.8267   -2.7057   35.0088 C.ar      1 MOL     0.0196
     16 C           9.5420   -1.8485   33.9315 C.ar      1 MOL     0.0723
     17 C          10.4934   -0.7529   33.7722 C.2       1 MOL     0.2495
     18 C          11.2705    1.3613   33.0375 C.3       1 MOL     0.1268
     19 C          11.2473    2.4054   34.1741 C.3       1 MOL     0.1265
     20 C           8.7368    2.3199   34.0801 C.3       1 MOL     0.1265
     21 C           8.8842    1.0753   33.1410 C.3       1 MOL     0.1268
     22 C           9.8520    4.3098   34.9126 C.2       1 MOL     0.2187
     23 C          11.0433    4.9749   35.5057 C.3       1 MOL     0.0752
     24 C          11.6685    4.2957   36.6750 C.3       1 MOL     0.0134
     25 C          10.7314    5.4371   36.8979 C.3       1 MOL     0.0134
     26 C           8.4690   -2.1578   33.1190 C.ar      1 MOL     0.1355
     27 C           7.6838   -3.2909   33.3744 C.ar      1 MOL     0.0392
     28 C           8.0155   -4.1554   34.4236 C.ar      1 MOL     0.0066
     29 O          14.8332   -6.4439   35.6576 O.2       1 MOL    -0.2658
     30 O           8.7646    4.9122   34.9799 O.2       1 MOL    -0.2753
     31 O          11.6631   -1.0320   34.0991 O.2       1 MOL    -0.2699
     32 F           8.1586   -1.3975   32.0439 F         1 MOL    -0.2047
     33 H          13.9576   -8.8323   35.8185 H         1 MOL     0.0625
     34 H          12.1936  -10.5076   36.2619 H         1 MOL     0.0618
     35 H           9.8627   -9.7802   36.6616 H         1 MOL     0.0618
     36 H           9.2770   -7.3847   36.5714 H         1 MOL     0.0624
     37 H           9.5259   -4.3285   37.2593 H         1 MOL     0.0377
     38 H           8.8685   -5.7056   36.2778 H         1 MOL     0.0377
     39 H          10.6483   -2.4587   35.6710 H         1 MOL     0.0629
     40 H          11.1450    1.8144   32.0320 H         1 MOL     0.0480
     41 H          12.2271    0.7891   33.0527 H         1 MOL     0.0480
     42 H          12.0661    3.1491   34.0817 H         1 MOL     0.0480
     43 H          11.4034    1.8457   35.1312 H         1 MOL     0.0480
     44 H           7.9327    2.9972   33.7050 H         1 MOL     0.0480
     45 H           8.4140    1.9445   35.0843 H         1 MOL     0.0480
     46 H           8.8083    1.4131   32.0763 H         1 MOL     0.0480
     47 H           8.0755    0.3323   33.3146 H         1 MOL     0.0480
     48 H          11.6099    5.5852   34.8467 H         1 MOL     0.0394
     49 H          12.7232    4.4802   36.8425 H         1 MOL     0.0273
     50 H          11.3065    3.2982   36.8918 H         1 MOL     0.0273
     51 H          11.1992    6.3445   37.2574 H         1 MOL     0.0273
     52 H           9.7630    5.1730   37.3067 H         1 MOL     0.0273
     53 H           6.8296   -3.5079   32.7500 H         1 MOL     0.0646
     54 H           7.4253   -5.0430   34.5994 H         1 MOL     0.0621
     55 H          13.9471   -4.1666   35.2935 H         1 MOL     0.1921
@<TRIPOS>BOND
     1    1   18 1 
     2    1   21 1 
     3    1   17 am
     4    2   20 1 
     5    2   22 am
     6    2   19 1 
     7    3    4 ar
     8    3   12 ar
     9    4   55 1 
    10    4    5 ar
    11    5    6 ar
    12    5   29 2 
    13    6    7 ar
    14    6   11 ar
    15    7    8 ar
    16    7   33 1 
    17    8    9 ar
    18    8   34 1 
    19    9   10 ar
    20    9   35 1 
    21   10   11 ar
    22   10   36 1 
    23   11   12 ar
    24   12   13 1 
    25   13   14 1 
    26   13   37 1 
    27   13   38 1 
    28   14   15 ar
    29   14   28 ar
    30   15   16 ar
    31   15   39 1 
    32   16   17 1 
    33   16   26 ar
    34   17   31 2 
    35   18   19 1 
    36   18   40 1 
    37   18   41 1 
    38   19   42 1 
    39   19   43 1 
    40   20   21 1 
    41   20   44 1 
    42   20   45 1 
    43   21   46 1 
    44   21   47 1 
    45   22   23 1 
    46   22   30 2 
    47   23   24 1 
    48   23   25 1 
    49   23   48 1 
    50   24   25 1 
    51   24   49 1 
    52   24   50 1 
    53   25   51 1 
    54   25   52 1 
    55   26   27 ar
    56   26   32 1 
    57   27   28 ar
    58   27   53 1 
    59   28   54 1 
@<TRIPOS>SUBSTRUCTURE
1 MOL         1
@<TRIPOS>MOLECULE
query molecule
   55    59     1     0     0
SMALL
NO_CHARGE

@<TRIPOS>ATOM
      1 N           5.0774   -8.6371   14.1165 N.am      1 MOL    -0.2945
      2 N           3.4296   -8.1704   16.4097 N.am      1 MOL    -0.2983
      3 N           6.3561   -3.0230   12.9428 N.ar      1 MOL    -0.1750
      4 N           5.1540   -2.4538   12.9437 N.ar      1 MOL    -0.2425
      5 C           4.3245   -2.5134   14.0863 C.ar      1 MOL     0.2725
      6 C           4.8127   -3.1864   15.2277 C.ar      1 MOL     0.0496
      7 C           4.0357   -3.3015   16.3823 C.ar      1 MOL     0.0138
      8 C           4.5352   -3.9731   17.4961 C.ar      1 MOL     0.0008
      9 C           5.8136   -4.5243   17.4792 C.ar      1 MOL     0.0007
     10 C           6.5975   -4.4097   16.3345 C.ar      1 MOL     0.0103
     11 C           6.1158   -3.7612   15.1864 C.ar      1 MOL     0.0106
     12 C           6.8847   -3.6870   14.0111 C.ar      1 MOL     0.0736
     13 C           8.2462   -4.3026   13.8924 C.3       1 MOL     0.0925
     14 C           8.2331   -5.7011   13.3748 C.ar      1 MOL    -0.0406
     15 C           7.0770   -6.4862   13.4189 C.ar      1 MOL     0.0196
     16 C           7.0600   -7.8028   12.9372 C.ar      1 MOL     0.0723
     17 C           5.7835   -8.5645   12.9572 C.2       1 MOL     0.2495
     18 C           3.6525   -8.9598   14.0630 C.3       1 MOL     0.1268
     19 C           2.8208   -8.1289   15.0911 C.3       1 MOL     0.1265
     20 C           4.8232   -7.7240   16.4400 C.3       1 MOL     0.1265
     21 C           5.6921   -8.5449   15.4383 C.3       1 MOL     0.1268
     22 C           2.7637   -8.3691   17.5786 C.2       1 MOL     0.2187
     23 C           1.2967   -8.5942   17.5582 C.3       1 MOL     0.0752
     24 C           0.8881   -9.6594   18.5238 C.3       1 MOL     0.0134
     25 C           0.8776   -9.9266   17.0505 C.3       1 MOL     0.0134
     26 C           8.2369   -8.3464   12.4268 C.ar      1 MOL     0.1355
     27 C           9.4080   -7.5839   12.3779 C.ar      1 MOL     0.0392
     28 C           9.4051   -6.2635   12.8467 C.ar      1 MOL     0.0066
     29 O           3.2062   -1.9743   14.0263 O.2       1 MOL    -0.2658
     30 O           3.3317   -8.2988   18.6830 O.2       1 MOL    -0.2753
     31 O           5.3741   -9.0030   11.8697 O.2       1 MOL    -0.2699
     32 F           8.2638   -9.6239   11.9768 F         1 MOL    -0.2047
     33 H           3.0456   -2.8713   16.4134 H         1 MOL     0.0625
     34 H           3.9276   -4.0688   18.3848 H         1 MOL     0.0618
     35 H           6.1980   -5.0411   18.3454 H         1 MOL     0.0618
     36 H           7.5909   -4.8377   16.3236 H         1 MOL     0.0624
     37 H           8.7199   -4.3051   14.8923 H         1 MOL     0.0377
     38 H           8.8447   -3.6852   13.1933 H         1 MOL     0.0377
     39 H           6.1695   -6.0666   13.8316 H         1 MOL     0.0629
     40 H           3.5398  -10.0444   14.3092 H         1 MOL     0.0480
     41 H           3.2820   -8.8032   13.0249 H         1 MOL     0.0480
     42 H           1.7798   -8.5191   15.1567 H         1 MOL     0.0480
     43 H           2.7686   -7.0614   14.7683 H         1 MOL     0.0480
     44 H           5.2167   -7.8014   17.4780 H         1 MOL     0.0480
     45 H           4.8424   -6.6454   16.1458 H         1 MOL     0.0480
     46 H           5.8059   -9.5823   15.8385 H         1 MOL     0.0480
     47 H           6.7112   -8.1058   15.3394 H         1 MOL     0.0480
     48 H           0.6998   -7.7257   17.4305 H         1 MOL     0.0394
     49 H          -0.0844   -9.5618   18.9919 H         1 MOL     0.0273
     50 H           1.6671  -10.1568   19.0885 H         1 MOL     0.0273
     51 H          -0.0925   -9.9734   16.5679 H         1 MOL     0.0273
     52 H           1.6581  -10.5606   16.6513 H         1 MOL     0.0273
     53 H          10.3154   -8.0145   11.9793 H         1 MOL     0.0646
     54 H          10.3132   -5.6790   12.8042 H         1 MOL     0.0621
     55 H           4.7924   -1.9649   12.1431 H         1 MOL     0.1921
@<TRIPOS>BOND
     1    1   18 1 
     2    1   21 1 
     3    1   17 am
     4    2   20 1 
     5    2   22 am
     6    2   19 1 
     7    3    4 ar
     8    3   12 ar
     9    4   55 1 
    10    4    5 ar
    11    5    6 ar
    12    5   29 2 
    13    6    7 ar
    14    6   11 ar
    15    7    8 ar
    16    7   33 1 
    17    8    9 ar
    18    8   34 1 
    19    9   10 ar
    20    9   35 1 
    21   10   11 ar
    22   10   36 1 
    23   11   12 ar
    24   12   13 1 
    25   13   14 1 
    26   13   37 1 
    27   13   38 1 
    28   14   15 ar
    29   14   28 ar
    30   15   16 ar
    31   15   39 1 
    32   16   17 1 
    33   16   26 ar
    34   17   31 2 
    35   18   19 1 
    36   18   40 1 
    37   18   41 1 
    38   19   42 1 
    39   19   43 1 
    40   20   21 1 
    41   20   44 1 
    42   20   45 1 
    43   21   46 1 
    44   21   47 1 
    45   22   23 1 
    46   22   30 2 
    47   23   24 1 
    48   23   25 1 
    49   23   48 1 
    50   24   25 1 
    51   24   49 1 
    52   24   50 1 
    53   25   51 1 
    54   25   52 1 
    55   26   27 ar
    56   26   32 1 
    57   27   28 ar
    58   27   53 1 
    59   28   54 1 
@<TRIPOS>SUBSTRUCTURE
1 MOL         1
@<TRIPOS>MOLECULE
query molecule
   55    59     1     0     0
SMALL
NO_CHARGE

@<TRIPOS>ATOM
      1 N           0.4457  -20.1620   33.9999 N.am      1 MOL    -0.2945
      2 N          -0.6646  -18.0624   35.5985 N.am      1 MOL    -0.2983
      3 N          -0.1356  -17.3901   28.1698 N.ar      1 MOL    -0.1750
      4 N           0.4214  -16.5263   27.3283 N.ar      1 MOL    -0.2425
      5 C           0.1419  -16.5979   25.9513 C.ar      1 MOL     0.2725
      6 C          -0.7739  -17.5614   25.4916 C.ar      1 MOL     0.0496
      7 C          -1.1472  -17.6278   24.1451 C.ar      1 MOL     0.0138
      8 C          -2.0466  -18.6040   23.7129 C.ar      1 MOL     0.0008
      9 C          -2.5767  -19.5208   24.6225 C.ar      1 MOL     0.0007
     10 C          -2.2173  -19.4586   25.9695 C.ar      1 MOL     0.0103
     11 C          -1.3216  -18.4831   26.4305 C.ar      1 MOL     0.0106
     12 C          -0.9522  -18.4059   27.7807 C.ar      1 MOL     0.0736
     13 C          -1.4293  -19.3879   28.7996 C.3       1 MOL     0.0925
     14 C          -0.3191  -20.0279   29.5577 C.ar      1 MOL    -0.0406
     15 C          -0.4569  -20.2398   30.9391 C.ar      1 MOL     0.0196
     16 C           0.5532  -20.8910   31.6612 C.ar      1 MOL     0.0723
     17 C           0.3943  -21.1695   33.1047 C.2       1 MOL     0.2495
     18 C           0.1826  -20.4183   35.4146 C.3       1 MOL     0.1268
     19 C          -0.9171  -19.4493   35.9626 C.3       1 MOL     0.1265
     20 C          -0.2868  -17.8168   34.2091 C.3       1 MOL     0.1265
     21 C           0.8073  -18.7944   33.6867 C.3       1 MOL     0.1268
     22 C          -1.0022  -16.9849   36.3695 C.2       1 MOL     0.2187
     23 C          -1.6751  -17.2441   37.6707 C.3       1 MOL     0.0752
     24 C          -3.1513  -17.0686   37.5923 C.3       1 MOL     0.0134
     25 C          -2.2968  -16.0181   38.2491 C.3       1 MOL     0.0134
     26 C           1.7124  -21.3059   31.0024 C.ar      1 MOL     0.1355
     27 C           1.8711  -21.0825   29.6375 C.ar      1 MOL     0.0392
     28 C           0.8547  -20.4497   28.9224 C.ar      1 MOL     0.0066
     29 O           0.7594  -15.8247   25.1933 O.2       1 MOL    -0.2658
     30 O          -0.7390  -15.8189   36.0274 O.2       1 MOL    -0.2753
     31 O           0.1978  -22.3504   33.4156 O.2       1 MOL    -0.2699
     32 F           2.6976  -21.9356   31.6854 F         1 MOL    -0.2047
     33 H          -0.7392  -16.9220   23.4361 H         1 MOL     0.0625
     34 H          -2.3355  -18.6506   22.6729 H         1 MOL     0.0618
     35 H          -3.2689  -20.2784   24.2849 H         1 MOL     0.0618
     36 H          -2.6360  -20.1704   26.6679 H         1 MOL     0.0624
     37 H          -2.0057  -20.1772   28.2830 H         1 MOL     0.0377
     38 H          -2.0765  -18.8505   29.5194 H         1 MOL     0.0377
     39 H          -1.3528  -19.9087   31.4446 H         1 MOL     0.0629
     40 H           1.1390  -20.2592   35.9730 H         1 MOL     0.0480
     41 H          -0.1129  -21.4847   35.5442 H         1 MOL     0.0480
     42 H          -0.9931  -19.5348   37.0692 H         1 MOL     0.0480
     43 H          -1.8933  -19.7544   35.5141 H         1 MOL     0.0480
     44 H           0.0524  -16.7586   34.1058 H         1 MOL     0.0480
     45 H          -1.2012  -17.9394   33.5763 H         1 MOL     0.0480
     46 H           1.7835  -18.5694   34.1786 H         1 MOL     0.0480
     47 H           0.9442  -18.6920   32.5854 H         1 MOL     0.0480
     48 H          -1.2382  -17.9919   38.2823 H         1 MOL     0.0394
     49 H          -3.7557  -17.6733   38.2583 H         1 MOL     0.0273
     50 H          -3.5727  -16.8115   36.6283 H         1 MOL     0.0273
     51 H          -2.3551  -15.9436   39.3291 H         1 MOL     0.0273
     52 H          -2.1711  -15.0932   37.6929 H         1 MOL     0.0273
     53 H           2.7705  -21.4036   29.1354 H         1 MOL     0.0646
     54 H           0.9748  -20.2838   27.8601 H         1 MOL     0.0621
     55 H           1.0467  -15.8013   27.6307 H         1 MOL     0.1921
@<TRIPOS>BOND
     1    1   18 1 
     2    1   21 1 
     3    1   17 am
     4    2   20 1 
     5    2   22 am
     6    2   19 1 
     7    3    4 ar
     8    3   12 ar
     9    4   55 1 
    10    4    5 ar
    11    5    6 ar
    12    5   29 2 
    13    6    7 ar
    14    6   11 ar
    15    7    8 ar
    16    7   33 1 
    17    8    9 ar
    18    8   34 1 
    19    9   10 ar
    20    9   35 1 
    21   10   11 ar
    22   10   36 1 
    23   11   12 ar
    24   12   13 1 
    25   13   14 1 
    26   13   37 1 
    27   13   38 1 
    28   14   15 ar
    29   14   28 ar
    30   15   16 ar
    31   15   39 1 
    32   16   17 1 
    33   16   26 ar
    34   17   31 2 
    35   18   19 1 
    36   18   40 1 
    37   18   41 1 
    38   19   42 1 
    39   19   43 1 
    40   20   21 1 
    41   20   44 1 
    42   20   45 1 
    43   21   46 1 
    44   21   47 1 
    45   22   23 1 
    46   22   30 2 
    47   23   24 1 
    48   23   25 1 
    49   23   48 1 
    50   24   25 1 
    51   24   49 1 
    52   24   50 1 
    53   25   51 1 
    54   25   52 1 
    55   26   27 ar
    56   26   32 1 
    57   27   28 ar
    58   27   53 1 
    59   28   54 1 
@<TRIPOS>SUBSTRUCTURE
1 MOL         1
@<TRIPOS>MOLECULE
query molecule
   55    59     1     0     0
SMALL
NO_CHARGE

@<TRIPOS>ATOM
      1 N          41.1862    5.7322   21.0220 N.am      1 MOL    -0.2945
      2 N          38.7249    5.2455   19.7103 N.am      1 MOL    -0.2983
      3 N          45.3822    1.2548   19.1504 N.ar      1 MOL    -0.1750
      4 N          44.8196    0.0559   19.0430 N.ar      1 MOL    -0.2425
      5 C          44.1185   -0.5244   20.1272 C.ar      1 MOL     0.2725
      6 C          43.9903    0.2362   21.3144 C.ar      1 MOL     0.0496
      7 C          43.2435   -0.2201   22.4038 C.ar      1 MOL     0.0138
      8 C          43.1209    0.5528   23.5618 C.ar      1 MOL     0.0008
      9 C          43.7648    1.7877   23.6490 C.ar      1 MOL     0.0007
     10 C          44.5205    2.2550   22.5773 C.ar      1 MOL     0.0103
     11 C          44.6321    1.5114   21.3899 C.ar      1 MOL     0.0106
     12 C          45.3555    2.0051   20.2888 C.ar      1 MOL     0.0736
     13 C          46.1061    3.2962   20.3277 C.3       1 MOL     0.0925
     14 C          45.3244    4.4937   19.9345 C.ar      1 MOL    -0.0406
     15 C          44.2065    4.9096   20.6662 C.ar      1 MOL     0.0196
     16 C          43.5013    6.0640   20.3103 C.ar      1 MOL     0.0723
     17 C          42.3104    6.4787   21.0874 C.2       1 MOL     0.2495
     18 C          39.9703    6.1566   21.7061 C.3       1 MOL     0.1268
     19 C          38.8151    6.3361   20.6756 C.3       1 MOL     0.1265
     20 C          39.9669    4.7079   19.1527 C.3       1 MOL     0.1265
     21 C          41.0482    4.5059   20.2546 C.3       1 MOL     0.1268
     22 C          37.5512    4.9019   19.1020 C.2       1 MOL     0.2187
     23 C          36.2891    5.3748   19.7193 C.3       1 MOL     0.0752
     24 C          35.1733    5.4784   18.7497 C.3       1 MOL     0.0134
     25 C          35.8972    6.7115   19.1968 C.3       1 MOL     0.0134
     26 C          43.9311    6.8168   19.2168 C.ar      1 MOL     0.1355
     27 C          45.0412    6.4142   18.4714 C.ar      1 MOL     0.0392
     28 C          45.7344    5.2518   18.8276 C.ar      1 MOL     0.0066
     29 O          43.6608   -1.6708   19.9701 O.2       1 MOL    -0.2658
     30 O          37.5120    4.1475   18.1163 O.2       1 MOL    -0.2753
     31 O          42.3958    7.5327   21.7271 O.2       1 MOL    -0.2699
     32 F          43.2710    7.9453   18.8620 F         1 MOL    -0.2047
     33 H          42.7417   -1.1764   22.3521 H         1 MOL     0.0625
     34 H          42.5259    0.1998   24.3925 H         1 MOL     0.0618
     35 H          43.6739    2.3842   24.5456 H         1 MOL     0.0618
     36 H          45.0219    3.2153   22.6546 H         1 MOL     0.0624
     37 H          46.9673    3.2099   19.6348 H         1 MOL     0.0377
     38 H          46.4744    3.4513   21.3616 H         1 MOL     0.0377
     39 H          43.8823    4.3311   21.5205 H         1 MOL     0.0629
     40 H          40.1650    7.1069   22.2535 H         1 MOL     0.0480
     41 H          39.6981    5.3761   22.4553 H         1 MOL     0.0480
     42 H          39.0143    7.2759   20.1006 H         1 MOL     0.0480
     43 H          37.8335    6.4593   21.1871 H         1 MOL     0.0480
     44 H          40.3534    5.4347   18.3985 H         1 MOL     0.0480
     45 H          39.7483    3.7500   18.6287 H         1 MOL     0.0480
     46 H          42.0327    4.2341   19.8137 H         1 MOL     0.0480
     47 H          40.7432    3.6907   20.9532 H         1 MOL     0.0480
     48 H          36.1325    5.1026   20.7308 H         1 MOL     0.0394
     49 H          34.1724    5.3336   19.1392 H         1 MOL     0.0273
     50 H          35.3670    5.1363   17.7403 H         1 MOL     0.0273
     51 H          35.3571    7.3659   19.8702 H         1 MOL     0.0273
     52 H          36.5542    7.1727   18.4703 H         1 MOL     0.0273
     53 H          45.3635    7.0011   17.6242 H         1 MOL     0.0646
     54 H          46.5943    4.9435   18.2508 H         1 MOL     0.0621
     55 H          44.8592   -0.4810   18.1933 H         1 MOL     0.1921
@<TRIPOS>BOND
     1    1   18 1 
     2    1   21 1 
     3    1   17 am
     4    2   20 1 
     5    2   22 am
     6    2   19 1 
     7    3    4 ar
     8    3   12 ar
     9    4   55 1 
    10    4    5 ar
    11    5    6 ar
    12    5   29 2 
    13    6    7 ar
    14    6   11 ar
    15    7    8 ar
    16    7   33 1 
    17    8    9 ar
    18    8   34 1 
    19    9   10 ar
    20    9   35 1 
    21   10   11 ar
    22   10   36 1 
    23   11   12 ar
    24   12   13 1 
    25   13   14 1 
    26   13   37 1 
    27   13   38 1 
    28   14   15 ar
    29   14   28 ar
    30   15   16 ar
    31   15   39 1 
    32   16   17 1 
    33   16   26 ar
    34   17   31 2 
    35   18   19 1 
    36   18   40 1 
    37   18   41 1 
    38   19   42 1 
    39   19   43 1 
    40   20   21 1 
    41   20   44 1 
    42   20   45 1 
    43   21   46 1 
    44   21   47 1 
    45   22   23 1 
    46   22   30 2 
    47   23   24 1 
    48   23   25 1 
    49   23   48 1 
    50   24   25 1 
    51   24   49 1 
    52   24   50 1 
    53   25   51 1 
    54   25   52 1 
    55   26   27 ar
    56   26   32 1 
    57   27   28 ar
    58   27   53 1 
    59   28   54 1 
@<TRIPOS>SUBSTRUCTURE
1 MOL         1
@<TRIPOS>MOLECULE
query molecule
   55    59     1     0     0
SMALL
NO_CHARGE

@<TRIPOS>ATOM
      1 N          46.0861   -9.5651   27.4270 N.am      1 MOL    -0.2945
      2 N          46.2265   -7.0558   28.7352 N.am      1 MOL    -0.2983
      3 N          41.2241  -13.9227   31.5208 N.ar      1 MOL    -0.1750
      4 N          40.2437  -14.7897   31.7414 N.ar      1 MOL    -0.2425
      5 C          40.4382  -16.1674   31.5052 C.ar      1 MOL     0.2725
      6 C          41.6764  -16.5901   30.9758 C.ar      1 MOL     0.0496
      7 C          41.8931  -17.9310   30.6372 C.ar      1 MOL     0.0138
      8 C          43.1256  -18.3344   30.1214 C.ar      1 MOL     0.0008
      9 C          44.1561  -17.4065   29.9648 C.ar      1 MOL     0.0007
     10 C          43.9449  -16.0671   30.2920 C.ar      1 MOL     0.0103
     11 C          42.7013  -15.6224   30.7672 C.ar      1 MOL     0.0106
     12 C          42.4453  -14.2642   31.0265 C.ar      1 MOL     0.0736
     13 C          43.4395  -13.1759   30.7760 C.3       1 MOL     0.0925
     14 C          43.7158  -12.8783   29.3438 C.ar      1 MOL    -0.0406
     15 C          44.7848  -12.0268   29.0195 C.ar      1 MOL     0.0196
     16 C          45.1114  -11.7822   27.6776 C.ar      1 MOL     0.0723
     17 C          46.2474  -10.9014   27.3378 C.2       1 MOL     0.2495
     18 C          47.1795   -8.6689   27.0773 C.3       1 MOL     0.1268
     19 C          47.4513   -7.6881   28.2548 C.3       1 MOL     0.1265
     20 C          45.0745   -7.9226   28.9850 C.3       1 MOL     0.1265
     21 C          44.8489   -8.9161   27.8160 C.3       1 MOL     0.1268
     22 C          46.1905   -5.7961   29.2580 C.2       1 MOL     0.2187
     23 C          47.4588   -5.0278   29.3101 C.3       1 MOL     0.0752
     24 C          48.1844   -5.3747   30.5746 C.3       1 MOL     0.0134
     25 C          47.5298   -4.0344   30.4104 C.3       1 MOL     0.0134
     26 C          44.3655  -12.3735   26.6592 C.ar      1 MOL     0.1355
     27 C          43.2880  -13.1966   26.9653 C.ar      1 MOL     0.0392
     28 C          42.9742  -13.4329   28.3001 C.ar      1 MOL     0.0066
     29 O          39.4967  -16.9408   31.7540 O.2       1 MOL    -0.2658
     30 O          45.1431   -5.2702   29.6632 O.2       1 MOL    -0.2753
     31 O          47.2965  -11.4462   26.9784 O.2       1 MOL    -0.2699
     32 F          44.6784  -12.1555   25.3603 F         1 MOL    -0.2047
     33 H          41.1050  -18.6579   30.7725 H         1 MOL     0.0625
     34 H          43.2868  -19.3671   29.8491 H         1 MOL     0.0618
     35 H          45.1190  -17.7254   29.5926 H         1 MOL     0.0618
     36 H          44.7526  -15.3573   30.1725 H         1 MOL     0.0624
     37 H          44.3931  -13.4748   31.2558 H         1 MOL     0.0377
     38 H          43.0603  -12.2497   31.2515 H         1 MOL     0.0377
     39 H          45.3650  -11.5639   29.8053 H         1 MOL     0.0629
     40 H          46.8808   -8.0964   26.1662 H         1 MOL     0.0480
     41 H          48.0827   -9.2686   26.8277 H         1 MOL     0.0480
     42 H          48.1828   -6.9022   27.9636 H         1 MOL     0.0480
     43 H          47.8918   -8.2707   29.1011 H         1 MOL     0.0480
     44 H          44.1707   -7.2949   29.1579 H         1 MOL     0.0480
     45 H          45.2751   -8.5036   29.9185 H         1 MOL     0.0480
     46 H          44.4616   -8.3560   26.9293 H         1 MOL     0.0480
     47 H          44.0946   -9.6895   28.0839 H         1 MOL     0.0480
     48 H          47.9879   -4.9329   28.3992 H         1 MOL     0.0394
     49 H          49.2660   -5.4003   30.5402 H         1 MOL     0.0273
     50 H          47.6922   -6.0598   31.2559 H         1 MOL     0.0273
     51 H          48.2028   -3.1956   30.2745 H         1 MOL     0.0273
     52 H          46.6221   -3.8606   30.9740 H         1 MOL     0.0273
     53 H          42.7082  -13.6547   26.1799 H         1 MOL     0.0646
     54 H          42.1399  -14.0795   28.5404 H         1 MOL     0.0621
     55 H          39.3286  -14.5059   32.0469 H         1 MOL     0.1921
@<TRIPOS>BOND
     1    1   18 1 
     2    1   21 1 
     3    1   17 am
     4    2   20 1 
     5    2   22 am
     6    2   19 1 
     7    3    4 ar
     8    3   12 ar
     9    4   55 1 
    10    4    5 ar
    11    5    6 ar
    12    5   29 2 
    13    6    7 ar
    14    6   11 ar
    15    7    8 ar
    16    7   33 1 
    17    8    9 ar
    18    8   34 1 
    19    9   10 ar
    20    9   35 1 
    21   10   11 ar
    22   10   36 1 
    23   11   12 ar
    24   12   13 1 
    25   13   14 1 
    26   13   37 1 
    27   13   38 1 
    28   14   15 ar
    29   14   28 ar
    30   15   16 ar
    31   15   39 1 
    32   16   17 1 
    33   16   26 ar
    34   17   31 2 
    35   18   19 1 
    36   18   40 1 
    37   18   41 1 
    38   19   42 1 
    39   19   43 1 
    40   20   21 1 
    41   20   44 1 
    42   20   45 1 
    43   21   46 1 
    44   21   47 1 
    45   22   23 1 
    46   22   30 2 
    47   23   24 1 
    48   23   25 1 
    49   23   48 1 
    50   24   25 1 
    51   24   49 1 
    52   24   50 1 
    53   25   51 1 
    54   25   52 1 
    55   26   27 ar
    56   26   32 1 
    57   27   28 ar
    58   27   53 1 
    59   28   54 1 
@<TRIPOS>SUBSTRUCTURE
1 MOL         1
@<TRIPOS>MOLECULE
query molecule
   55    59     1     0     0
SMALL
NO_CHARGE

@<TRIPOS>ATOM
      1 N          45.7563    6.3646   12.8346 N.am      1 MOL    -0.2945
      2 N          46.2569    6.7850   10.0439 N.am      1 MOL    -0.2983
      3 N          41.6705    4.4671   16.5653 N.ar      1 MOL    -0.1750
      4 N          41.6709    3.5486   17.5271 N.ar      1 MOL    -0.2425
      5 C          40.8427    3.6821   18.6673 C.ar      1 MOL     0.2725
      6 C          40.0081    4.8211   18.7622 C.ar      1 MOL     0.0496
      7 C          39.1455    5.0005   19.8497 C.ar      1 MOL     0.0138
      8 C          38.3004    6.1107   19.9032 C.ar      1 MOL     0.0008
      9 C          38.3246    7.0533   18.8753 C.ar      1 MOL     0.0007
     10 C          39.1897    6.8937   17.7937 C.ar      1 MOL     0.0103
     11 C          40.0403    5.7807   17.7049 C.ar      1 MOL     0.0106
     12 C          40.8885    5.5861   16.5957 C.ar      1 MOL     0.0736
     13 C          40.9077    6.5217   15.4334 C.3       1 MOL     0.0925
     14 C          42.1712    7.2841   15.3329 C.ar      1 MOL    -0.0406
     15 C          43.3239    6.6746   14.8210 C.ar      1 MOL     0.0196
     16 C          44.5113    7.4049   14.6788 C.ar      1 MOL     0.0723
     17 C          45.7343    6.7822   14.1193 C.2       1 MOL     0.2495
     18 C          46.9803    5.8253   12.2485 C.3       1 MOL     0.1268
     19 C          47.3755    6.6313   10.9682 C.3       1 MOL     0.1265
     20 C          44.9658    7.1619   10.6187 C.3       1 MOL     0.1265
     21 C          44.6254    6.3981   11.9316 C.3       1 MOL     0.1268
     22 C          46.4144    6.9331    8.6934 C.2       1 MOL     0.2187
     23 C          47.7893    7.1062    8.1584 C.3       1 MOL     0.0752
     24 C          48.1385    8.5634    8.1620 C.3       1 MOL     0.0134
     25 C          47.8535    7.8500    6.8720 C.3       1 MOL     0.0134
     26 C          44.5367    8.7457   15.0785 C.ar      1 MOL     0.1355
     27 C          43.3951    9.3579   15.6004 C.ar      1 MOL     0.0392
     28 C          42.2098    8.6275   15.7263 C.ar      1 MOL     0.0066
     29 O          40.8697    2.7728   19.5157 O.2       1 MOL    -0.2658
     30 O          45.4621    6.9190    7.8987 O.2       1 MOL    -0.2753
     31 O          46.7171    6.7259   14.8689 O.2       1 MOL    -0.2699
     32 F          45.6745    9.4726   14.9589 F         1 MOL    -0.2047
     33 H          39.1275    4.2733   20.6490 H         1 MOL     0.0625
     34 H          37.6277    6.2416   20.7380 H         1 MOL     0.0618
     35 H          37.6733    7.9129   18.9170 H         1 MOL     0.0618
     36 H          39.2031    7.6334   17.0062 H         1 MOL     0.0624
     37 H          40.0721    7.2361   15.5435 H         1 MOL     0.0377
     38 H          40.7887    5.9292   14.5061 H         1 MOL     0.0377
     39 H          43.2972    5.6349   14.5271 H         1 MOL     0.0629
     40 H          46.7910    4.7580   11.9751 H         1 MOL     0.0480
     41 H          47.7937    5.8438   13.0069 H         1 MOL     0.0480
     42 H          48.2203    6.1376   10.4355 H         1 MOL     0.0480
     43 H          47.7105    7.6510   11.2763 H         1 MOL     0.0480
     44 H          44.1669    6.9864    9.8597 H         1 MOL     0.0480
     45 H          44.9915    8.2592   10.8330 H         1 MOL     0.0480
     46 H          44.3509    5.3426   11.6882 H         1 MOL     0.0480
     47 H          43.7561    6.8622   12.4526 H         1 MOL     0.0480
     48 H          48.5019    6.3788    8.4439 H         1 MOL     0.0394
     49 H          49.1719    8.8310    8.3466 H         1 MOL     0.0273
     50 H          47.3789    9.2607    8.4956 H         1 MOL     0.0273
     51 H          48.7114    7.6631    6.2359 H         1 MOL     0.0273
     52 H          46.9137    8.0756    6.3844 H         1 MOL     0.0273
     53 H          43.4288   10.3937   15.9044 H         1 MOL     0.0646
     54 H          41.3251    9.1013   16.1254 H         1 MOL     0.0621
     55 H          42.2535    2.7250   17.4759 H         1 MOL     0.1921
@<TRIPOS>BOND
     1    1   18 1 
     2    1   21 1 
     3    1   17 am
     4    2   20 1 
     5    2   22 am
     6    2   19 1 
     7    3    4 ar
     8    3   12 ar
     9    4   55 1 
    10    4    5 ar
    11    5    6 ar
    12    5   29 2 
    13    6    7 ar
    14    6   11 ar
    15    7    8 ar
    16    7   33 1 
    17    8    9 ar
    18    8   34 1 
    19    9   10 ar
    20    9   35 1 
    21   10   11 ar
    22   10   36 1 
    23   11   12 ar
    24   12   13 1 
    25   13   14 1 
    26   13   37 1 
    27   13   38 1 
    28   14   15 ar
    29   14   28 ar
    30   15   16 ar
    31   15   39 1 
    32   16   17 1 
    33   16   26 ar
    34   17   31 2 
    35   18   19 1 
    36   18   40 1 
    37   18   41 1 
    38   19   42 1 
    39   19   43 1 
    40   20   21 1 
    41   20   44 1 
    42   20   45 1 
    43   21   46 1 
    44   21   47 1 
    45   22   23 1 
    46   22   30 2 
    47   23   24 1 
    48   23   25 1 
    49   23   48 1 
    50   24   25 1 
    51   24   49 1 
    52   24   50 1 
    53   25   51 1 
    54   25   52 1 
    55   26   27 ar
    56   26   32 1 
    57   27   28 ar
    58   27   53 1 
    59   28   54 1 
@<TRIPOS>SUBSTRUCTURE
1 MOL         1
@<TRIPOS>MOLECULE
query molecule
   55    59     1     0     0
SMALL
NO_CHARGE

@<TRIPOS>ATOM
      1 N          16.4125   -3.4957   36.7293 N.am      1 MOL    -0.2945
      2 N          14.0049   -4.8200   36.0248 N.am      1 MOL    -0.2983
      3 N          23.5597   -6.9241   36.5915 N.ar      1 MOL    -0.1750
      4 N          24.6549   -7.3735   35.9934 N.ar      1 MOL    -0.2425
      5 C          24.5664   -8.1723   34.8332 C.ar      1 MOL     0.2725
      6 C          23.2822   -8.4833   34.3347 C.ar      1 MOL     0.0496
      7 C          23.1367   -9.2758   33.1887 C.ar      1 MOL     0.0138
      8 C          21.8635   -9.5897   32.7103 C.ar      1 MOL     0.0008
      9 C          20.7372   -9.0995   33.3662 C.ar      1 MOL     0.0007
     10 C          20.8838   -8.2960   34.4994 C.ar      1 MOL     0.0103
     11 C          22.1379   -7.9753   35.0234 C.ar      1 MOL     0.0106
     12 C          22.2856   -7.1940   36.1839 C.ar      1 MOL     0.0736
     13 C          21.1724   -6.6702   37.0260 C.3       1 MOL     0.0925
     14 C          20.6437   -5.3197   36.7165 C.ar      1 MOL    -0.0406
     15 C          19.3760   -4.9414   37.2104 C.ar      1 MOL     0.0196
     16 C          18.8372   -3.6832   36.9016 C.ar      1 MOL     0.0723
     17 C          17.5316   -3.2546   37.4424 C.2       1 MOL     0.2495
     18 C          15.1431   -2.9004   37.1357 C.3       1 MOL     0.1268
     19 C          14.0217   -3.9796   37.2127 C.3       1 MOL     0.1265
     20 C          15.2900   -5.4056   35.6543 C.3       1 MOL     0.1265
     21 C          16.3947   -4.3200   35.5342 C.3       1 MOL     0.1268
     22 C          12.8845   -5.3033   35.4201 C.2       1 MOL     0.2187
     23 C          11.5600   -4.9858   36.0047 C.3       1 MOL     0.0752
     24 C          10.6076   -4.4535   34.9886 C.3       1 MOL     0.0134
     25 C          11.2536   -3.5262   35.9672 C.3       1 MOL     0.0134
     26 C          19.5468   -2.8083   36.0799 C.ar      1 MOL     0.1355
     27 C          20.8097   -3.1641   35.6207 C.ar      1 MOL     0.0392
     28 C          21.3530   -4.3972   35.9538 C.ar      1 MOL     0.0066
     29 O          25.6239   -8.5586   34.3099 O.2       1 MOL    -0.2658
     30 O          12.9268   -6.0547   34.4322 O.2       1 MOL    -0.2753
     31 O          17.5432   -2.6458   38.5169 O.2       1 MOL    -0.2699
     32 F          19.0162   -1.6122   35.7295 F         1 MOL    -0.2047
     33 H          24.0107   -9.6483   32.6739 H         1 MOL     0.0625
     34 H          21.7507  -10.2118   31.8324 H         1 MOL     0.0618
     35 H          19.7514   -9.3419   33.0034 H         1 MOL     0.0618
     36 H          20.0007   -7.9108   34.9865 H         1 MOL     0.0624
     37 H          21.5536   -6.6315   38.0733 H         1 MOL     0.0377
     38 H          20.3304   -7.3846   36.9760 H         1 MOL     0.0377
     39 H          18.8155   -5.6262   37.8319 H         1 MOL     0.0629
     40 H          14.8627   -2.1307   36.3779 H         1 MOL     0.0480
     41 H          15.2686   -2.3882   38.1164 H         1 MOL     0.0480
     42 H          13.0207   -3.4945   37.3148 H         1 MOL     0.0480
     43 H          14.1767   -4.6303   38.1047 H         1 MOL     0.0480
     44 H          15.1741   -5.9508   34.6915 H         1 MOL     0.0480
     45 H          15.5777   -6.1456   36.4383 H         1 MOL     0.0480
     46 H          16.1719   -3.6574   34.6606 H         1 MOL     0.0480
     47 H          17.3989   -4.7699   35.3784 H         1 MOL     0.0480
     48 H          11.2407   -5.6224   36.7873 H         1 MOL     0.0394
     49 H           9.5523   -4.6394   35.1570 H         1 MOL     0.0273
     50 H          10.9623   -4.3972   33.9673 H         1 MOL     0.0273
     51 H          10.6484   -3.1423   36.7780 H         1 MOL     0.0273
     52 H          12.0586   -2.8970   35.6061 H         1 MOL     0.0273
     53 H          21.3671   -2.4752   35.0006 H         1 MOL     0.0646
     54 H          22.3455   -4.6545   35.6038 H         1 MOL     0.0621
     55 H          25.5788   -7.1761   36.3355 H         1 MOL     0.1921
@<TRIPOS>BOND
     1    1   18 1 
     2    1   21 1 
     3    1   17 am
     4    2   20 1 
     5    2   22 am
     6    2   19 1 
     7    3    4 ar
     8    3   12 ar
     9    4   55 1 
    10    4    5 ar
    11    5    6 ar
    12    5   29 2 
    13    6    7 ar
    14    6   11 ar
    15    7    8 ar
    16    7   33 1 
    17    8    9 ar
    18    8   34 1 
    19    9   10 ar
    20    9   35 1 
    21   10   11 ar
    22   10   36 1 
    23   11   12 ar
    24   12   13 1 
    25   13   14 1 
    26   13   37 1 
    27   13   38 1 
    28   14   15 ar
    29   14   28 ar
    30   15   16 ar
    31   15   39 1 
    32   16   17 1 
    33   16   26 ar
    34   17   31 2 
    35   18   19 1 
    36   18   40 1 
    37   18   41 1 
    38   19   42 1 
    39   19   43 1 
    40   20   21 1 
    41   20   44 1 
    42   20   45 1 
    43   21   46 1 
    44   21   47 1 
    45   22   23 1 
    46   22   30 2 
    47   23   24 1 
    48   23   25 1 
    49   23   48 1 
    50   24   25 1 
    51   24   49 1 
    52   24   50 1 
    53   25   51 1 
    54   25   52 1 
    55   26   27 ar
    56   26   32 1 
    57   27   28 ar
    58   27   53 1 
    59   28   54 1 
@<TRIPOS>SUBSTRUCTURE
1 MOL         1
@<TRIPOS>MOLECULE
query molecule
   55    59     1     0     0
SMALL
NO_CHARGE

@<TRIPOS>ATOM
      1 N           4.5599   -4.8652   34.2773 N.am      1 MOL    -0.2945
      2 N           4.9603   -2.3650   32.9839 N.am      1 MOL    -0.2983
      3 N          10.3471   -7.7512   36.4813 N.ar      1 MOL    -0.1750
      4 N          11.3591   -7.8010   35.6203 N.ar      1 MOL    -0.2425
      5 C          11.8083   -6.6319   34.9688 C.ar      1 MOL     0.2725
      6 C          11.1728   -5.4092   35.2767 C.ar      1 MOL     0.0496
      7 C          11.5883   -4.2128   34.6888 C.ar      1 MOL     0.0138
      8 C          10.9556   -3.0094   35.0019 C.ar      1 MOL     0.0008
      9 C           9.9036   -2.9920   35.9174 C.ar      1 MOL     0.0007
     10 C           9.4775   -4.1796   36.5123 C.ar      1 MOL     0.0103
     11 C          10.0915   -5.4035   36.2030 C.ar      1 MOL     0.0106
     12 C           9.6573   -6.6105   36.7753 C.ar      1 MOL     0.0736
     13 C           8.4664   -6.6760   37.6794 C.3       1 MOL     0.0925
     14 C           7.2752   -7.1861   36.9484 C.ar      1 MOL    -0.0406
     15 C           6.3275   -6.3063   36.3997 C.ar      1 MOL     0.0196
     16 C           5.1954   -6.7844   35.7210 C.ar      1 MOL     0.0723
     17 C           4.1916   -5.8865   35.0934 C.2       1 MOL     0.2495
     18 C           3.5170   -4.3135   33.3982 C.3       1 MOL     0.1268
     19 C           3.6005   -2.7652   33.2854 C.3       1 MOL     0.1265
     20 C           5.9425   -2.7919   33.9760 C.3       1 MOL     0.1265
     21 C           5.9112   -4.3467   34.1353 C.3       1 MOL     0.1268
     22 C           5.3524   -1.6147   31.9229 C.2       1 MOL     0.2187
     23 C           4.3508   -1.3136   30.8639 C.3       1 MOL     0.0752
     24 C           4.8475   -0.3536   29.8389 C.3       1 MOL     0.0134
     25 C           3.9397    0.1133   30.9394 C.3       1 MOL     0.0134
     26 C           5.0133   -8.1771   35.6416 C.ar      1 MOL     0.1355
     27 C           5.9603   -9.0610   36.1632 C.ar      1 MOL     0.0392
     28 C           7.0897   -8.5663   36.8106 C.ar      1 MOL     0.0066
     29 O          12.7427   -6.7391   34.1574 O.2       1 MOL    -0.2658
     30 O           6.5296   -1.2503   31.7818 O.2       1 MOL    -0.2753
     31 O           3.0024   -6.1830   35.2878 O.2       1 MOL    -0.2699
     32 F           3.9191   -8.7019   35.0354 F         1 MOL    -0.2047
     33 H          12.4026   -4.2216   33.9804 H         1 MOL     0.0625
     34 H          11.2797   -2.0916   34.5346 H         1 MOL     0.0618
     35 H           9.4194   -2.0598   36.1673 H         1 MOL     0.0618
     36 H           8.6627   -4.1572   37.2231 H         1 MOL     0.0624
     37 H           8.2518   -5.6645   38.0630 H         1 MOL     0.0377
     38 H           8.6915   -7.3691   38.5102 H         1 MOL     0.0377
     39 H           6.4822   -5.2427   36.4902 H         1 MOL     0.0629
     40 H           2.5194   -4.6414   33.7704 H         1 MOL     0.0480
     41 H           3.6556   -4.7433   32.3771 H         1 MOL     0.0480
     42 H           3.3247   -2.3125   34.2675 H         1 MOL     0.0480
     43 H           2.9061   -2.3652   32.5149 H         1 MOL     0.0480
     44 H           5.6811   -2.3128   34.9494 H         1 MOL     0.0480
     45 H           6.9546   -2.4438   33.6790 H         1 MOL     0.0480
     46 H           6.5142   -4.6704   35.0092 H         1 MOL     0.0480
     47 H           6.3653   -4.7969   33.2197 H         1 MOL     0.0480
     48 H           3.6580   -2.0804   30.6196 H         1 MOL     0.0394
     49 H           4.4142   -0.4042   28.8444 H         1 MOL     0.0273
     50 H           5.8878   -0.0542   29.9059 H         1 MOL     0.0273
     51 H           2.9284    0.3608   30.6474 H         1 MOL     0.0273
     52 H           4.4020    0.7214   31.7110 H         1 MOL     0.0273
     53 H           5.8179  -10.1268   36.0669 H         1 MOL     0.0646
     54 H           7.8275   -9.2448   37.2124 H         1 MOL     0.0621
     55 H          11.8393   -8.6561   35.4003 H         1 MOL     0.1921
@<TRIPOS>BOND
     1    1   18 1 
     2    1   21 1 
     3    1   17 am
     4    2   20 1 
     5    2   22 am
     6    2   19 1 
     7    3    4 ar
     8    3   12 ar
     9    4   55 1 
    10    4    5 ar
    11    5    6 ar
    12    5   29 2 
    13    6    7 ar
    14    6   11 ar
    15    7    8 ar
    16    7   33 1 
    17    8    9 ar
    18    8   34 1 
    19    9   10 ar
    20    9   35 1 
    21   10   11 ar
    22   10   36 1 
    23   11   12 ar
    24   12   13 1 
    25   13   14 1 
    26   13   37 1 
    27   13   38 1 
    28   14   15 ar
    29   14   28 ar
    30   15   16 ar
    31   15   39 1 
    32   16   17 1 
    33   16   26 ar
    34   17   31 2 
    35   18   19 1 
    36   18   40 1 
    37   18   41 1 
    38   19   42 1 
    39   19   43 1 
    40   20   21 1 
    41   20   44 1 
    42   20   45 1 
    43   21   46 1 
    44   21   47 1 
    45   22   23 1 
    46   22   30 2 
    47   23   24 1 
    48   23   25 1 
    49   23   48 1 
    50   24   25 1 
    51   24   49 1 
    52   24   50 1 
    53   25   51 1 
    54   25   52 1 
    55   26   27 ar
    56   26   32 1 
    57   27   28 ar
    58   27   53 1 
    59   28   54 1 
@<TRIPOS>SUBSTRUCTURE
1 MOL         1
@<TRIPOS>MOLECULE
query molecule
   55    59     1     0     0
SMALL
NO_CHARGE

@<TRIPOS>ATOM
      1 N          24.7610    5.5095    2.3993 N.am      1 MOL    -0.2945
      2 N          22.4856    6.9073    3.3702 N.am      1 MOL    -0.2983
      3 N          30.2063    0.3936    5.7618 N.ar      1 MOL    -0.1750
      4 N          30.9731   -0.6822    5.6507 N.ar      1 MOL    -0.2425
      5 C          31.7387   -0.9437    4.5038 C.ar      1 MOL     0.2725
      6 C          31.7695    0.0405    3.4971 C.ar      1 MOL     0.0496
      7 C          32.6075   -0.0979    2.3900 C.ar      1 MOL     0.0138
      8 C          32.6524    0.9043    1.4209 C.ar      1 MOL     0.0008
      9 C          31.8424    2.0337    1.5435 C.ar      1 MOL     0.0007
     10 C          31.0008    2.1769    2.6443 C.ar      1 MOL     0.0103
     11 C          30.9550    1.1974    3.6476 C.ar      1 MOL     0.0106
     12 C          30.1357    1.3405    4.7811 C.ar      1 MOL     0.0736
     13 C          29.2101    2.4966    4.9637 C.3       1 MOL     0.0925
     14 C          28.0269    2.4722    4.0628 C.ar      1 MOL    -0.0406
     15 C          27.5784    3.7010    3.5529 C.ar      1 MOL     0.0196
     16 C          26.4705    3.7624    2.6946 C.ar      1 MOL     0.0723
     17 C          26.0333    5.0872    2.2027 C.2       1 MOL     0.2495
     18 C          24.3112    6.7200    1.7097 C.3       1 MOL     0.1268
     19 C          23.5028    7.6525    2.6542 C.3       1 MOL     0.1265
     20 C          22.9651    5.7610    4.1273 C.3       1 MOL     0.1265
     21 C          23.7802    4.8040    3.2141 C.3       1 MOL     0.1268
     22 C          21.1491    7.1426    3.3476 C.2       1 MOL     0.2187
     23 C          20.6101    7.9209    2.2126 C.3       1 MOL     0.0752
     24 C          20.8024    9.3841    2.3522 C.3       1 MOL     0.0134
     25 C          19.4569    8.7722    2.6085 C.3       1 MOL     0.0134
     26 C          25.8320    2.5781    2.3262 C.ar      1 MOL     0.1355
     27 C          26.2595    1.3502    2.8325 C.ar      1 MOL     0.0392
     28 C          27.3535    1.3000    3.7022 C.ar      1 MOL     0.0066
     29 O          32.3317   -2.0269    4.4381 O.2       1 MOL    -0.2658
     30 O          20.3666    6.6279    4.1615 O.2       1 MOL    -0.2753
     31 O          26.8870    5.7499    1.5989 O.2       1 MOL    -0.2699
     32 F          24.7849    2.6006    1.4657 F         1 MOL    -0.2047
     33 H          33.2282   -0.9747    2.2886 H         1 MOL     0.0625
     34 H          33.3199    0.8064    0.5772 H         1 MOL     0.0618
     35 H          31.8694    2.8001    0.7858 H         1 MOL     0.0618
     36 H          30.3730    3.0540    2.7327 H         1 MOL     0.0624
     37 H          29.7825    3.4215    4.7500 H         1 MOL     0.0377
     38 H          28.8538    2.5003    6.0094 H         1 MOL     0.0377
     39 H          28.0940    4.6103    3.8273 H         1 MOL     0.0629
     40 H          23.6419    6.4114    0.8700 H         1 MOL     0.0480
     41 H          25.1883    7.2457    1.2716 H         1 MOL     0.0480
     42 H          23.0267    8.4929    2.0980 H         1 MOL     0.0480
     43 H          24.1996    8.1006    3.4066 H         1 MOL     0.0480
     44 H          22.1027    5.2443    4.6009 H         1 MOL     0.0480
     45 H          23.6346    6.1379    4.9305 H         1 MOL     0.0480
     46 H          23.0774    4.2745    2.5241 H         1 MOL     0.0480
     47 H          24.3047    4.0336    3.8240 H         1 MOL     0.0480
     48 H          20.6466    7.4340    1.2704 H         1 MOL     0.0394
     49 H          20.9145    9.9448    1.4328 H         1 MOL     0.0273
     50 H          21.3544    9.7259    3.2198 H         1 MOL     0.0273
     51 H          18.6928    8.9133    1.8538 H         1 MOL     0.0273
     52 H          19.1356    8.7032    3.6394 H         1 MOL     0.0273
     53 H          25.7447    0.4436    2.5482 H         1 MOL     0.0646
     54 H          27.6794    0.3451    4.0874 H         1 MOL     0.0621
     55 H          31.0676   -1.3673    6.3968 H         1 MOL     0.1921
@<TRIPOS>BOND
     1    1   18 1 
     2    1   21 1 
     3    1   17 am
     4    2   20 1 
     5    2   22 am
     6    2   19 1 
     7    3    4 ar
     8    3   12 ar
     9    4   55 1 
    10    4    5 ar
    11    5    6 ar
    12    5   29 2 
    13    6    7 ar
    14    6   11 ar
    15    7    8 ar
    16    7   33 1 
    17    8    9 ar
    18    8   34 1 
    19    9   10 ar
    20    9   35 1 
    21   10   11 ar
    22   10   36 1 
    23   11   12 ar
    24   12   13 1 
    25   13   14 1 
    26   13   37 1 
    27   13   38 1 
    28   14   15 ar
    29   14   28 ar
    30   15   16 ar
    31   15   39 1 
    32   16   17 1 
    33   16   26 ar
    34   17   31 2 
    35   18   19 1 
    36   18   40 1 
    37   18   41 1 
    38   19   42 1 
    39   19   43 1 
    40   20   21 1 
    41   20   44 1 
    42   20   45 1 
    43   21   46 1 
    44   21   47 1 
    45   22   23 1 
    46   22   30 2 
    47   23   24 1 
    48   23   25 1 
    49   23   48 1 
    50   24   25 1 
    51   24   49 1 
    52   24   50 1 
    53   25   51 1 
    54   25   52 1 
    55   26   27 ar
    56   26   32 1 
    57   27   28 ar
    58   27   53 1 
    59   28   54 1 
@<TRIPOS>SUBSTRUCTURE
1 MOL         1
@<TRIPOS>MOLECULE
query molecule
   55    59     1     0     0
SMALL
NO_CHARGE

@<TRIPOS>ATOM
      1 N          46.8852  -14.4110   17.8700 N.am      1 MOL    -0.2945
      2 N          44.2123  -14.0131   18.2283 N.am      1 MOL    -0.2983
      3 N          45.7259  -16.9261   22.2044 N.ar      1 MOL    -0.1750
      4 N          44.3997  -16.8467   22.3127 N.ar      1 MOL    -0.2425
      5 C          43.8058  -15.9162   23.1851 C.ar      1 MOL     0.2725
      6 C          44.6531  -15.0739   23.9344 C.ar      1 MOL     0.0496
      7 C          44.1089  -14.1035   24.7804 C.ar      1 MOL     0.0138
      8 C          44.9440  -13.2621   25.5078 C.ar      1 MOL     0.0008
      9 C          46.3299  -13.3967   25.4066 C.ar      1 MOL     0.0007
     10 C          46.8845  -14.3706   24.5723 C.ar      1 MOL     0.0103
     11 C          46.0658  -15.2236   23.8172 C.ar      1 MOL     0.0106
     12 C          46.6009  -16.2019   22.9594 C.ar      1 MOL     0.0736
     13 C          48.0742  -16.4747   22.8593 C.3       1 MOL     0.0925
     14 C          48.7098  -15.9040   21.6411 C.ar      1 MOL    -0.0406
     15 C          48.0952  -15.9539   20.3849 C.ar      1 MOL     0.0196
     16 C          48.6722  -15.3196   19.2765 C.ar      1 MOL     0.0723
     17 C          47.9384  -15.2621   17.9925 C.2       1 MOL     0.2495
     18 C          46.0908  -14.4468   16.6430 C.3       1 MOL     0.1268
     19 C          44.6295  -13.9511   16.8404 C.3       1 MOL     0.1265
     20 C          45.0593  -13.3344   19.2101 C.3       1 MOL     0.1265
     21 C          46.5706  -13.3894   18.8587 C.3       1 MOL     0.1268
     22 C          43.0288  -14.5314   18.6638 C.2       1 MOL     0.2187
     23 C          42.1297  -15.1949   17.6886 C.3       1 MOL     0.0752
     24 C          41.3127  -14.2106   16.9209 C.3       1 MOL     0.0134
     25 C          40.6872  -15.0124   18.0227 C.3       1 MOL     0.0134
     26 C          49.9182  -14.7148   19.4115 C.ar      1 MOL     0.1355
     27 C          50.5722  -14.6953   20.6414 C.ar      1 MOL     0.0392
     28 C          49.9665  -15.2812   21.7598 C.ar      1 MOL     0.0066
     29 O          42.5663  -15.8910   23.2532 O.2       1 MOL    -0.2658
     30 O          42.7025  -14.5216   19.8635 O.2       1 MOL    -0.2753
     31 O          48.3298  -16.0048   17.0864 O.2       1 MOL    -0.2699
     32 F          50.5044  -14.1280   18.3475 F         1 MOL    -0.2047
     33 H          43.0334  -14.0008   24.8512 H         1 MOL     0.0625
     34 H          44.5168  -12.5078   26.1518 H         1 MOL     0.0618
     35 H          46.9746  -12.7443   25.9777 H         1 MOL     0.0618
     36 H          47.9610  -14.4652   24.5067 H         1 MOL     0.0624
     37 H          48.2347  -17.5693   22.8647 H         1 MOL     0.0377
     38 H          48.5667  -16.0233   23.7490 H         1 MOL     0.0377
     39 H          47.1546  -16.4737   20.2734 H         1 MOL     0.0629
     40 H          46.0930  -15.4968   16.2635 H         1 MOL     0.0480
     41 H          46.5879  -13.8086   15.8737 H         1 MOL     0.0480
     42 H          43.9102  -14.5075   16.2022 H         1 MOL     0.0480
     43 H          44.5867  -12.8740   16.5343 H         1 MOL     0.0480
     44 H          44.8668  -13.7892   20.2085 H         1 MOL     0.0480
     45 H          44.7515  -12.2608   19.2652 H         1 MOL     0.0480
     46 H          47.1785  -13.5641   19.7762 H         1 MOL     0.0480
     47 H          46.8769  -12.4011   18.4346 H         1 MOL     0.0480
     48 H          42.4984  -16.0823   17.2431 H         1 MOL     0.0394
     49 H          41.0482  -14.4873   15.9068 H         1 MOL     0.0273
     50 H          41.4946  -13.1664   17.1233 H         1 MOL     0.0273
     51 H          40.0032  -15.7917   17.7075 H         1 MOL     0.0273
     52 H          40.4527  -14.4774   18.9344 H         1 MOL     0.0273
     53 H          51.5385  -14.2224   20.7330 H         1 MOL     0.0646
     54 H          50.4658  -15.2489   22.7175 H         1 MOL     0.0621
     55 H          43.7784  -17.4414   21.7958 H         1 MOL     0.1921
@<TRIPOS>BOND
     1    1   18 1 
     2    1   21 1 
     3    1   17 am
     4    2   20 1 
     5    2   22 am
     6    2   19 1 
     7    3    4 ar
     8    3   12 ar
     9    4   55 1 
    10    4    5 ar
    11    5    6 ar
    12    5   29 2 
    13    6    7 ar
    14    6   11 ar
    15    7    8 ar
    16    7   33 1 
    17    8    9 ar
    18    8   34 1 
    19    9   10 ar
    20    9   35 1 
    21   10   11 ar
    22   10   36 1 
    23   11   12 ar
    24   12   13 1 
    25   13   14 1 
    26   13   37 1 
    27   13   38 1 
    28   14   15 ar
    29   14   28 ar
    30   15   16 ar
    31   15   39 1 
    32   16   17 1 
    33   16   26 ar
    34   17   31 2 
    35   18   19 1 
    36   18   40 1 
    37   18   41 1 
    38   19   42 1 
    39   19   43 1 
    40   20   21 1 
    41   20   44 1 
    42   20   45 1 
    43   21   46 1 
    44   21   47 1 
    45   22   23 1 
    46   22   30 2 
    47   23   24 1 
    48   23   25 1 
    49   23   48 1 
    50   24   25 1 
    51   24   49 1 
    52   24   50 1 
    53   25   51 1 
    54   25   52 1 
    55   26   27 ar
    56   26   32 1 
    57   27   28 ar
    58   27   53 1 
    59   28   54 1 
@<TRIPOS>SUBSTRUCTURE
1 MOL         1
@<TRIPOS>MOLECULE
query molecule
   55    59     1     0     0
SMALL
NO_CHARGE

@<TRIPOS>ATOM
      1 N          11.2560    5.1497   26.9852 N.am      1 MOL    -0.2945
      2 N          11.7847    7.2092   25.0829 N.am      1 MOL    -0.2983
      3 N           7.5145    0.3741   25.6310 N.ar      1 MOL    -0.1750
      4 N           7.1423   -0.2278   24.5068 N.ar      1 MOL    -0.2425
      5 C           5.8814   -0.8315   24.3822 C.ar      1 MOL     0.2725
      6 C           5.0399   -0.8244   25.5136 C.ar      1 MOL     0.0496
      7 C           3.7586   -1.3648   25.4549 C.ar      1 MOL     0.0138
      8 C           2.9532   -1.3874   26.5904 C.ar      1 MOL     0.0008
      9 C           3.4168   -0.8678   27.7970 C.ar      1 MOL     0.0007
     10 C           4.6889   -0.3027   27.8655 C.ar      1 MOL     0.0103
     11 C           5.5146   -0.2575   26.7319 C.ar      1 MOL     0.0106
     12 C           6.7886    0.3267   26.7786 C.ar      1 MOL     0.0736
     13 C           7.3669    0.8694   28.0464 C.3       1 MOL     0.0925
     14 C           7.6790    2.3141   27.9817 C.ar      1 MOL    -0.0406
     15 C           9.0075    2.7533   28.0818 C.ar      1 MOL     0.0196
     16 C           9.3014    4.1222   28.0256 C.ar      1 MOL     0.0723
     17 C          10.7120    4.5824   28.0878 C.2       1 MOL     0.2495
     18 C          12.5527    5.8141   27.0290 C.3       1 MOL     0.1268
     19 C          12.4722    7.2289   26.3687 C.3       1 MOL     0.1265
     20 C          10.5104    6.4883   25.0332 C.3       1 MOL     0.1265
     21 C          10.6277    5.0853   25.6742 C.3       1 MOL     0.1268
     22 C          12.0713    8.0314   24.0320 C.2       1 MOL     0.2187
     23 C          13.0917    9.0849   24.2118 C.3       1 MOL     0.0752
     24 C          13.9706    9.2628   23.0287 C.3       1 MOL     0.0134
     25 C          14.4829    8.5382   24.2301 C.3       1 MOL     0.0134
     26 C           8.2577    5.0432   27.8950 C.ar      1 MOL     0.1355
     27 C           6.9346    4.6126   27.8008 C.ar      1 MOL     0.0392
     28 C           6.6456    3.2479   27.8408 C.ar      1 MOL     0.0066
     29 O           5.5865   -1.3414   23.2897 O.2       1 MOL    -0.2658
     30 O          11.4592    7.9811   22.9524 O.2       1 MOL    -0.2753
     31 O          11.3038    4.4670   29.1665 O.2       1 MOL    -0.2699
     32 F           8.5194    6.3723   27.8536 F         1 MOL    -0.2047
     33 H           3.4000   -1.7839   24.5258 H         1 MOL     0.0625
     34 H           1.9669   -1.8248   26.5331 H         1 MOL     0.0618
     35 H           2.7903   -0.9013   28.6751 H         1 MOL     0.0618
     36 H           5.0434    0.1096   28.7998 H         1 MOL     0.0624
     37 H           8.3051    0.3208   28.2548 H         1 MOL     0.0377
     38 H           6.6379    0.7057   28.8620 H         1 MOL     0.0377
     39 H           9.8073    2.0362   28.1973 H         1 MOL     0.0629
     40 H          13.2837    5.1839   26.4660 H         1 MOL     0.0480
     41 H          12.9022    5.8851   28.0828 H         1 MOL     0.0480
     42 H          13.4904    7.6593   26.2210 H         1 MOL     0.0480
     43 H          11.9081    7.9172   27.0424 H         1 MOL     0.0480
     44 H          10.1680    6.4123   23.9771 H         1 MOL     0.0480
     45 H           9.7563    7.0839   25.6009 H         1 MOL     0.0480
     46 H          11.2692    4.4405   25.0232 H         1 MOL     0.0480
     47 H           9.6345    4.5924   25.7667 H         1 MOL     0.0480
     48 H          12.7939    9.8938   24.8288 H         1 MOL     0.0394
     49 H          14.3520   10.2632   22.8778 H         1 MOL     0.0273
     50 H          13.7547    8.6648   22.1578 H         1 MOL     0.0273
     51 H          15.1906    9.0645   24.8633 H         1 MOL     0.0273
     52 H          14.5925    7.4631   24.1564 H         1 MOL     0.0273
     53 H           6.1347    5.3310   27.6974 H         1 MOL     0.0646
     54 H           5.6224    2.9096   27.7664 H         1 MOL     0.0621
     55 H           7.7605   -0.2917   23.7145 H         1 MOL     0.1921
@<TRIPOS>BOND
     1    1   18 1 
     2    1   21 1 
     3    1   17 am
     4    2   20 1 
     5    2   22 am
     6    2   19 1 
     7    3    4 ar
     8    3   12 ar
     9    4   55 1 
    10    4    5 ar
    11    5    6 ar
    12    5   29 2 
    13    6    7 ar
    14    6   11 ar
    15    7    8 ar
    16    7   33 1 
    17    8    9 ar
    18    8   34 1 
    19    9   10 ar
    20    9   35 1 
    21   10   11 ar
    22   10   36 1 
    23   11   12 ar
    24   12   13 1 
    25   13   14 1 
    26   13   37 1 
    27   13   38 1 
    28   14   15 ar
    29   14   28 ar
    30   15   16 ar
    31   15   39 1 
    32   16   17 1 
    33   16   26 ar
    34   17   31 2 
    35   18   19 1 
    36   18   40 1 
    37   18   41 1 
    38   19   42 1 
    39   19   43 1 
    40   20   21 1 
    41   20   44 1 
    42   20   45 1 
    43   21   46 1 
    44   21   47 1 
    45   22   23 1 
    46   22   30 2 
    47   23   24 1 
    48   23   25 1 
    49   23   48 1 
    50   24   25 1 
    51   24   49 1 
    52   24   50 1 
    53   25   51 1 
    54   25   52 1 
    55   26   27 ar
    56   26   32 1 
    57   27   28 ar
    58   27   53 1 
    59   28   54 1 
@<TRIPOS>SUBSTRUCTURE
1 MOL         1
@<TRIPOS>MOLECULE
query molecule
   55    59     1     0     0
SMALL
NO_CHARGE

@<TRIPOS>ATOM
      1 N          38.4795    9.5540   27.4444 N.am      1 MOL    -0.2945
      2 N          40.4756    9.7513   25.3986 N.am      1 MOL    -0.2983
      3 N          33.8431    7.0723   32.9986 N.ar      1 MOL    -0.1750
      4 N          32.5299    6.8895   33.0296 N.ar      1 MOL    -0.2425
      5 C          31.6430    7.9806   32.9398 C.ar      1 MOL     0.2725
      6 C          32.1926    9.2733   32.8020 C.ar      1 MOL     0.0496
      7 C          31.3627   10.3886   32.6627 C.ar      1 MOL     0.0138
      8 C          31.9148   11.6584   32.4962 C.ar      1 MOL     0.0008
      9 C          33.3005   11.8243   32.4804 C.ar      1 MOL     0.0007
     10 C          34.1399   10.7174   32.6276 C.ar      1 MOL     0.0103
     11 C          33.6102    9.4281   32.7834 C.ar      1 MOL     0.0106
     12 C          34.4373    8.2971   32.9053 C.ar      1 MOL     0.0736
     13 C          35.9341    8.4073   32.9173 C.3       1 MOL     0.0925
     14 C          36.4997    7.9158   31.6375 C.ar      1 MOL    -0.0406
     15 C          36.9110    8.8220   30.6665 C.ar      1 MOL     0.0196
     16 C          37.3818    8.4207   29.3791 C.ar      1 MOL     0.0723
     17 C          37.6173    9.5487   28.4835 C.2       1 MOL     0.2495
     18 C          39.0258   10.8578   27.0918 C.3       1 MOL     0.1268
     19 C          40.4066   10.7966   26.4126 C.3       1 MOL     0.1265
     20 C          39.9522    8.4451   25.7690 C.3       1 MOL     0.1265
     21 C          38.5655    8.5496   26.4193 C.3       1 MOL     0.1268
     22 C          41.4061    9.7603   24.3908 C.2       1 MOL     0.2187
     23 C          42.4214   10.8369   24.3994 C.3       1 MOL     0.0752
     24 C          41.9224   12.0558   23.7015 C.3       1 MOL     0.0134
     25 C          42.9641   11.1851   23.0639 C.3       1 MOL     0.0134
     26 C          37.4640    7.0575   29.1553 C.ar      1 MOL     0.1355
     27 C          37.0868    6.1241   30.1360 C.ar      1 MOL     0.0392
     28 C          36.6096    6.5546   31.3706 C.ar      1 MOL     0.0066
     29 O          30.4263    7.7419   32.9518 O.2       1 MOL    -0.2658
     30 O          41.4795    8.8609   23.5399 O.2       1 MOL    -0.2753
     31 O          37.0293   10.5975   28.8111 O.2       1 MOL    -0.2699
     32 F          37.8663    6.5321   27.9782 F         1 MOL    -0.2047
     33 H          30.2900   10.2622   32.6772 H         1 MOL     0.0625
     34 H          31.2669   12.5149   32.3810 H         1 MOL     0.0618
     35 H          33.7229   12.8099   32.3548 H         1 MOL     0.0618
     36 H          35.2125   10.8600   32.6185 H         1 MOL     0.0624
     37 H          36.3376    7.7960   33.7410 H         1 MOL     0.0377
     38 H          36.2129    9.4687   33.0456 H         1 MOL     0.0377
     39 H          36.8500    9.8858   30.8751 H         1 MOL     0.0629
     40 H          39.0685   11.4983   28.0022 H         1 MOL     0.0480
     41 H          38.2867   11.3313   26.3920 H         1 MOL     0.0480
     42 H          41.1932   10.5892   27.1760 H         1 MOL     0.0480
     43 H          40.6406   11.7831   25.9500 H         1 MOL     0.0480
     44 H          40.6781    7.9843   26.4774 H         1 MOL     0.0480
     45 H          39.9106    7.8034   24.8608 H         1 MOL     0.0480
     46 H          38.2160    7.5683   26.8018 H         1 MOL     0.0480
     47 H          37.8538    8.8726   25.6077 H         1 MOL     0.0480
     48 H          42.9956   10.9039   25.2891 H         1 MOL     0.0394
     49 H          42.2537   13.0053   24.1039 H         1 MOL     0.0273
     50 H          40.9294   12.0108   23.2735 H         1 MOL     0.0273
     51 H          43.9805   11.5626   23.0595 H         1 MOL     0.0273
     52 H          42.6528   10.5617   22.2365 H         1 MOL     0.0273
     53 H          37.1477    5.0656   29.9349 H         1 MOL     0.0646
     54 H          36.3142    5.8423   32.1269 H         1 MOL     0.0621
     55 H          32.1096    5.9785   33.1076 H         1 MOL     0.1921
@<TRIPOS>BOND
     1    1   18 1 
     2    1   21 1 
     3    1   17 am
     4    2   20 1 
     5    2   22 am
     6    2   19 1 
     7    3    4 ar
     8    3   12 ar
     9    4   55 1 
    10    4    5 ar
    11    5    6 ar
    12    5   29 2 
    13    6    7 ar
    14    6   11 ar
    15    7    8 ar
    16    7   33 1 
    17    8    9 ar
    18    8   34 1 
    19    9   10 ar
    20    9   35 1 
    21   10   11 ar
    22   10   36 1 
    23   11   12 ar
    24   12   13 1 
    25   13   14 1 
    26   13   37 1 
    27   13   38 1 
    28   14   15 ar
    29   14   28 ar
    30   15   16 ar
    31   15   39 1 
    32   16   17 1 
    33   16   26 ar
    34   17   31 2 
    35   18   19 1 
    36   18   40 1 
    37   18   41 1 
    38   19   42 1 
    39   19   43 1 
    40   20   21 1 
    41   20   44 1 
    42   20   45 1 
    43   21   46 1 
    44   21   47 1 
    45   22   23 1 
    46   22   30 2 
    47   23   24 1 
    48   23   25 1 
    49   23   48 1 
    50   24   25 1 
    51   24   49 1 
    52   24   50 1 
    53   25   51 1 
    54   25   52 1 
    55   26   27 ar
    56   26   32 1 
    57   27   28 ar
    58   27   53 1 
    59   28   54 1 
@<TRIPOS>SUBSTRUCTURE
1 MOL         1
@<TRIPOS>MOLECULE
query molecule
   55    59     1     0     0
SMALL
NO_CHARGE

@<TRIPOS>ATOM
      1 N          34.7350  -21.4367   16.9006 N.am      1 MOL    -0.2945
      2 N          34.2201  -20.9274   19.6596 N.am      1 MOL    -0.2983
      3 N          33.8008  -19.9733   10.0382 N.ar      1 MOL    -0.1750
      4 N          33.0226  -20.7263    9.2747 N.ar      1 MOL    -0.2425
      5 C          31.7941  -21.2246    9.7622 C.ar      1 MOL     0.2725
      6 C          31.3996  -20.8625   11.0703 C.ar      1 MOL     0.0496
      7 C          30.1818  -21.3174   11.5845 C.ar      1 MOL     0.0138
      8 C          29.7817  -20.9522   12.8692 C.ar      1 MOL     0.0008
      9 C          30.5971  -20.1287   13.6460 C.ar      1 MOL     0.0007
     10 C          31.8184  -19.6795   13.1403 C.ar      1 MOL     0.0103
     11 C          32.2543  -20.0348   11.8526 C.ar      1 MOL     0.0106
     12 C          33.4821  -19.6069   11.3143 C.ar      1 MOL     0.0736
     13 C          34.4486  -18.7403   12.0314 C.3       1 MOL     0.0925
     14 C          35.3810  -19.4169   12.9524 C.ar      1 MOL    -0.0406
     15 C          34.9388  -20.3057   13.9354 C.ar      1 MOL     0.0196
     16 C          35.8490  -20.9374   14.7873 C.ar      1 MOL     0.0723
     17 C          35.3419  -21.9010   15.7846 C.2       1 MOL     0.2495
     18 C          33.8105  -22.3078   17.6187 C.3       1 MOL     0.1268
     19 C          34.0489  -22.2779   19.1557 C.3       1 MOL     0.1265
     20 C          35.1844  -20.0989   18.9391 C.3       1 MOL     0.1265
     21 C          34.9190  -20.0865   17.4083 C.3       1 MOL     0.1268
     22 C          33.7491  -20.4662   20.8477 C.2       1 MOL     0.2187
     23 C          33.1235  -21.3949   21.8181 C.3       1 MOL     0.0752
     24 C          33.8874  -21.3394   23.1093 C.3       1 MOL     0.0134
     25 C          33.9654  -22.5484   22.2367 C.3       1 MOL     0.0134
     26 C          37.2077  -20.6628   14.6704 C.ar      1 MOL     0.1355
     27 C          37.6649  -19.7590   13.7099 C.ar      1 MOL     0.0392
     28 C          36.7521  -19.1352   12.8515 C.ar      1 MOL     0.0066
     29 O          31.1315  -21.9641    9.0265 O.2       1 MOL    -0.2658
     30 O          33.7821  -19.2587   21.1399 O.2       1 MOL    -0.2753
     31 O          35.4214  -23.0976   15.4894 O.2       1 MOL    -0.2699
     32 F          38.0976  -21.2734   15.4885 F         1 MOL    -0.2047
     33 H          29.5524  -21.9565   10.9828 H         1 MOL     0.0625
     34 H          28.8417  -21.3123   13.2606 H         1 MOL     0.0618
     35 H          30.2815  -19.8439   14.6388 H         1 MOL     0.0618
     36 H          32.4399  -19.0430   13.7562 H         1 MOL     0.0624
     37 H          33.8614  -18.0097   12.6303 H         1 MOL     0.0377
     38 H          35.0474  -18.1903   11.2775 H         1 MOL     0.0377
     39 H          33.8818  -20.5110   14.0344 H         1 MOL     0.0629
     40 H          33.9043  -23.3459   17.2247 H         1 MOL     0.0480
     41 H          32.7725  -21.9541   17.4052 H         1 MOL     0.0480
     42 H          34.9778  -22.8503   19.3967 H         1 MOL     0.0480
     43 H          33.2009  -22.7624   19.6930 H         1 MOL     0.0480
     44 H          36.2013  -20.5221   19.1268 H         1 MOL     0.0480
     45 H          35.1665  -19.0656   19.3610 H         1 MOL     0.0480
     46 H          35.7635  -19.6032   16.8665 H         1 MOL     0.0480
     47 H          33.9911  -19.5055   17.1942 H         1 MOL     0.0480
     48 H          32.0639  -21.4197   21.8225 H         1 MOL     0.0394
     49 H          33.3257  -21.4448   24.0285 H         1 MOL     0.0273
     50 H          34.7714  -20.7134   23.1337 H         1 MOL     0.0273
     51 H          33.4509  -23.4294   22.6002 H         1 MOL     0.0273
     52 H          34.8844  -22.7029   21.6856 H         1 MOL     0.0273
     53 H          38.7200  -19.5457   13.6277 H         1 MOL     0.0646
     54 H          37.1040  -18.4342   12.1089 H         1 MOL     0.0621
     55 H          33.2664  -20.9717    8.3307 H         1 MOL     0.1921
@<TRIPOS>BOND
     1    1   18 1 
     2    1   21 1 
     3    1   17 am
     4    2   20 1 
     5    2   22 am
     6    2   19 1 
     7    3    4 ar
     8    3   12 ar
     9    4   55 1 
    10    4    5 ar
    11    5    6 ar
    12    5   29 2 
    13    6    7 ar
    14    6   11 ar
    15    7    8 ar
    16    7   33 1 
    17    8    9 ar
    18    8   34 1 
    19    9   10 ar
    20    9   35 1 
    21   10   11 ar
    22   10   36 1 
    23   11   12 ar
    24   12   13 1 
    25   13   14 1 
    26   13   37 1 
    27   13   38 1 
    28   14   15 ar
    29   14   28 ar
    30   15   16 ar
    31   15   39 1 
    32   16   17 1 
    33   16   26 ar
    34   17   31 2 
    35   18   19 1 
    36   18   40 1 
    37   18   41 1 
    38   19   42 1 
    39   19   43 1 
    40   20   21 1 
    41   20   44 1 
    42   20   45 1 
    43   21   46 1 
    44   21   47 1 
    45   22   23 1 
    46   22   30 2 
    47   23   24 1 
    48   23   25 1 
    49   23   48 1 
    50   24   25 1 
    51   24   49 1 
    52   24   50 1 
    53   25   51 1 
    54   25   52 1 
    55   26   27 ar
    56   26   32 1 
    57   27   28 ar
    58   27   53 1 
    59   28   54 1 
@<TRIPOS>SUBSTRUCTURE
1 MOL         1
@<TRIPOS>MOLECULE
query molecule
   55    59     1     0     0
SMALL
NO_CHARGE

@<TRIPOS>ATOM
      1 N           4.4956   -5.3822   19.3543 N.am      1 MOL    -0.2945
      2 N           4.0223   -7.1242   17.1966 N.am      1 MOL    -0.2983
      3 N           4.4694   -1.6266   16.2094 N.ar      1 MOL    -0.1750
      4 N           4.0488   -2.1033   15.0514 N.ar      1 MOL    -0.2425
      5 C           3.7823   -1.2072   13.9974 C.ar      1 MOL     0.2725
      6 C           3.9793    0.1747   14.2286 C.ar      1 MOL     0.0496
      7 C           3.7483    1.1034   13.2108 C.ar      1 MOL     0.0138
      8 C           3.9428    2.4644   13.4437 C.ar      1 MOL     0.0008
      9 C           4.3639    2.9116   14.6964 C.ar      1 MOL     0.0007
     10 C           4.5961    1.9957   15.7228 C.ar      1 MOL     0.0103
     11 C           4.4175    0.6185   15.5123 C.ar      1 MOL     0.0106
     12 C           4.6668   -0.3196   16.5316 C.ar      1 MOL     0.0736
     13 C           5.1609    0.0950   17.8830 C.3       1 MOL     0.0925
     14 C           4.8401   -0.8482   18.9795 C.ar      1 MOL    -0.0406
     15 C           5.2275   -2.1914   18.9345 C.ar      1 MOL     0.0196
     16 C           4.8909   -3.0615   19.9684 C.ar      1 MOL     0.0723
     17 C           5.3333   -4.4616   19.8791 C.2       1 MOL     0.2495
     18 C           4.8457   -6.7853   19.5215 C.3       1 MOL     0.1268
     19 C           5.1263   -7.3691   18.1120 C.3       1 MOL     0.1265
     20 C           3.5127   -5.7506   17.1300 C.3       1 MOL     0.1265
     21 C           3.3232   -5.1139   18.5458 C.3       1 MOL     0.1268
     22 C           3.7946   -7.9075   16.0992 C.2       1 MOL     0.2187
     23 C           4.8984   -8.7889   15.6276 C.3       1 MOL     0.0752
     24 C           5.9780   -7.9559   14.9996 C.3       1 MOL     0.0134
     25 C           5.0326   -8.7456   14.1461 C.3       1 MOL     0.0134
     26 C           4.1764   -2.5937   21.0622 C.ar      1 MOL     0.1355
     27 C           3.8036   -1.2523   21.1388 C.ar      1 MOL     0.0392
     28 C           4.1373   -0.3780   20.0980 C.ar      1 MOL     0.0066
     29 O           3.3801   -1.6792   12.9220 O.2       1 MOL    -0.2658
     30 O           2.7243   -7.8845   15.4787 O.2       1 MOL    -0.2753
     31 O           6.4544   -4.7228   20.3039 O.2       1 MOL    -0.2699
     32 F           3.8373   -3.4409   22.0592 F         1 MOL    -0.2047
     33 H           3.4166    0.7584   12.2424 H         1 MOL     0.0625
     34 H           3.7650    3.1739   12.6489 H         1 MOL     0.0618
     35 H           4.5094    3.9671   14.8729 H         1 MOL     0.0618
     36 H           4.9196    2.3504   16.6923 H         1 MOL     0.0624
     37 H           4.7036    1.0742   18.1313 H         1 MOL     0.0377
     38 H           6.2624    0.2027   17.8329 H         1 MOL     0.0377
     39 H           5.7736   -2.5615   18.0777 H         1 MOL     0.0629
     40 H           4.0020   -7.3172   20.0188 H         1 MOL     0.0480
     41 H           5.7479   -6.8685   20.1696 H         1 MOL     0.0480
     42 H           5.3301   -8.4633   18.1555 H         1 MOL     0.0480
     43 H           6.0339   -6.8646   17.6981 H         1 MOL     0.0480
     44 H           2.5966   -5.7174   16.5037 H         1 MOL     0.0480
     45 H           4.2994   -5.1438   16.6076 H         1 MOL     0.0480
     46 H           2.4286   -5.5552   19.0457 H         1 MOL     0.0480
     47 H           3.1737   -4.0132   18.4620 H         1 MOL     0.0480
     48 H           5.1282   -9.6359   16.2114 H         1 MOL     0.0394
     49 H           6.9992   -8.3172   15.0611 H         1 MOL     0.0273
     50 H           5.8426   -6.8802   14.9980 H         1 MOL     0.0273
     51 H           5.4408   -9.6198   13.6565 H         1 MOL     0.0273
     52 H           4.2830   -8.1693   13.6126 H         1 MOL     0.0273
     53 H           3.2579   -0.8920   21.9965 H         1 MOL     0.0646
     54 H           3.8503    0.6617   20.1532 H         1 MOL     0.0621
     55 H           3.9084   -3.0817   14.8831 H         1 MOL     0.1921
@<TRIPOS>BOND
     1    1   18 1 
     2    1   21 1 
     3    1   17 am
     4    2   20 1 
     5    2   22 am
     6    2   19 1 
     7    3    4 ar
     8    3   12 ar
     9    4   55 1 
    10    4    5 ar
    11    5    6 ar
    12    5   29 2 
    13    6    7 ar
    14    6   11 ar
    15    7    8 ar
    16    7   33 1 
    17    8    9 ar
    18    8   34 1 
    19    9   10 ar
    20    9   35 1 
    21   10   11 ar
    22   10   36 1 
    23   11   12 ar
    24   12   13 1 
    25   13   14 1 
    26   13   37 1 
    27   13   38 1 
    28   14   15 ar
    29   14   28 ar
    30   15   16 ar
    31   15   39 1 
    32   16   17 1 
    33   16   26 ar
    34   17   31 2 
    35   18   19 1 
    36   18   40 1 
    37   18   41 1 
    38   19   42 1 
    39   19   43 1 
    40   20   21 1 
    41   20   44 1 
    42   20   45 1 
    43   21   46 1 
    44   21   47 1 
    45   22   23 1 
    46   22   30 2 
    47   23   24 1 
    48   23   25 1 
    49   23   48 1 
    50   24   25 1 
    51   24   49 1 
    52   24   50 1 
    53   25   51 1 
    54   25   52 1 
    55   26   27 ar
    56   26   32 1 
    57   27   28 ar
    58   27   53 1 
    59   28   54 1 
@<TRIPOS>SUBSTRUCTURE
1 MOL         1
@<TRIPOS>MOLECULE
query molecule
   55    59     1     0     0
SMALL
NO_CHARGE

@<TRIPOS>ATOM
      1 N          44.5935   -1.2493   30.4206 N.am      1 MOL    -0.2945
      2 N          41.9020   -1.0169   29.5009 N.am      1 MOL    -0.2983
      3 N          46.0928   -7.0073   30.0835 N.ar      1 MOL    -0.1750
      4 N          45.0981   -7.8602   29.8645 N.ar      1 MOL    -0.2425
      5 C          45.1720   -8.7816   28.7990 C.ar      1 MOL     0.2725
      6 C          46.2838   -8.7209   27.9324 C.ar      1 MOL     0.0496
      7 C          46.3722   -9.5766   26.8304 C.ar      1 MOL     0.0138
      8 C          47.4604   -9.4946   25.9625 C.ar      1 MOL     0.0008
      9 C          48.4720   -8.5620   26.1979 C.ar      1 MOL     0.0007
     10 C          48.3977   -7.7099   27.3016 C.ar      1 MOL     0.0103
     11 C          47.3089   -7.7675   28.1865 C.ar      1 MOL     0.0106
     12 C          47.2131   -6.9218   29.3076 C.ar      1 MOL     0.0736
     13 C          48.3151   -5.9719   29.6548 C.3       1 MOL     0.0925
     14 C          47.9617   -4.5463   29.4626 C.ar      1 MOL    -0.0406
     15 C          46.9708   -3.9345   30.2442 C.ar      1 MOL     0.0196
     16 C          46.6519   -2.5725   30.0767 C.ar      1 MOL     0.0723
     17 C          45.5762   -2.0210   30.9260 C.2       1 MOL     0.2495
     18 C          43.5920   -0.6744   31.3211 C.3       1 MOL     0.1268
     19 C          42.1596   -1.1651   30.9288 C.3       1 MOL     0.1265
     20 C          42.9731   -1.3584   28.5632 C.3       1 MOL     0.1265
     21 C          44.3794   -0.9222   29.0276 C.3       1 MOL     0.1268
     22 C          40.6504   -1.0109   28.9476 C.2       1 MOL     0.2187
     23 C          39.4810   -1.1561   29.8462 C.3       1 MOL     0.0752
     24 C          38.7874   -2.4427   29.5226 C.3       1 MOL     0.0134
     25 C          38.1599   -1.1247   29.1744 C.3       1 MOL     0.0134
     26 C          47.3832   -1.8292   29.1539 C.ar      1 MOL     0.1355
     27 C          48.3641   -2.4283   28.3599 C.ar      1 MOL     0.0392
     28 C          48.6477   -3.7876   28.5077 C.ar      1 MOL     0.0066
     29 O          44.2569   -9.6117   28.6808 O.2       1 MOL    -0.2658
     30 O          40.4805   -0.9316   27.7208 O.2       1 MOL    -0.2753
     31 O          45.6276   -2.3386   32.1236 O.2       1 MOL    -0.2699
     32 F          47.1702   -0.4986   29.0105 F         1 MOL    -0.2047
     33 H          45.5909  -10.3003   26.6489 H         1 MOL     0.0625
     34 H          47.5210  -10.1547   25.1099 H         1 MOL     0.0618
     35 H          49.3162   -8.5032   25.5266 H         1 MOL     0.0618
     36 H          49.1922   -6.9972   27.4776 H         1 MOL     0.0624
     37 H          49.1844   -6.1985   29.0050 H         1 MOL     0.0377
     38 H          48.5924   -6.1224   30.7161 H         1 MOL     0.0377
     39 H          46.4349   -4.5242   30.9734 H         1 MOL     0.0629
     40 H          43.6459    0.4382   31.2263 H         1 MOL     0.0480
     41 H          43.8455   -0.9383   32.3717 H         1 MOL     0.0480
     42 H          41.3791   -0.6172   31.5047 H         1 MOL     0.0480
     43 H          42.0773   -2.2484   31.1903 H         1 MOL     0.0480
     44 H          42.7266   -0.9461   27.5592 H         1 MOL     0.0480
     45 H          42.9846   -2.4756   28.4738 H         1 MOL     0.0480
     46 H          44.4860    0.1823   28.9079 H         1 MOL     0.0480
     47 H          45.1654   -1.4129   28.4092 H         1 MOL     0.0480
     48 H          39.6223   -0.8595   30.8525 H         1 MOL     0.0394
     49 H          38.3423   -2.9919   30.3432 H         1 MOL     0.0273
     50 H          39.1946   -3.0197   28.7005 H         1 MOL     0.0273
     51 H          37.3018   -0.8495   29.7769 H         1 MOL     0.0273
     52 H          38.1507   -0.8232   28.1347 H         1 MOL     0.0273
     53 H          48.9052   -1.8362   27.6372 H         1 MOL     0.0646
     54 H          49.4049   -4.2489   27.8912 H         1 MOL     0.0621
     55 H          44.2621   -7.8897   30.4234 H         1 MOL     0.1921
@<TRIPOS>BOND
     1    1   18 1 
     2    1   21 1 
     3    1   17 am
     4    2   20 1 
     5    2   22 am
     6    2   19 1 
     7    3    4 ar
     8    3   12 ar
     9    4   55 1 
    10    4    5 ar
    11    5    6 ar
    12    5   29 2 
    13    6    7 ar
    14    6   11 ar
    15    7    8 ar
    16    7   33 1 
    17    8    9 ar
    18    8   34 1 
    19    9   10 ar
    20    9   35 1 
    21   10   11 ar
    22   10   36 1 
    23   11   12 ar
    24   12   13 1 
    25   13   14 1 
    26   13   37 1 
    27   13   38 1 
    28   14   15 ar
    29   14   28 ar
    30   15   16 ar
    31   15   39 1 
    32   16   17 1 
    33   16   26 ar
    34   17   31 2 
    35   18   19 1 
    36   18   40 1 
    37   18   41 1 
    38   19   42 1 
    39   19   43 1 
    40   20   21 1 
    41   20   44 1 
    42   20   45 1 
    43   21   46 1 
    44   21   47 1 
    45   22   23 1 
    46   22   30 2 
    47   23   24 1 
    48   23   25 1 
    49   23   48 1 
    50   24   25 1 
    51   24   49 1 
    52   24   50 1 
    53   25   51 1 
    54   25   52 1 
    55   26   27 ar
    56   26   32 1 
    57   27   28 ar
    58   27   53 1 
    59   28   54 1 
@<TRIPOS>SUBSTRUCTURE
1 MOL         1
@<TRIPOS>MOLECULE
query molecule
   55    59     1     0     0
SMALL
NO_CHARGE

@<TRIPOS>ATOM
      1 N          39.1753  -20.7935   30.9147 N.am      1 MOL    -0.2945
      2 N          36.7195  -21.9132   30.0368 N.am      1 MOL    -0.2983
      3 N          42.8523  -17.6401   26.6752 N.ar      1 MOL    -0.1750
      4 N          42.4454  -17.2996   25.4568 N.ar      1 MOL    -0.2425
      5 C          42.4093  -15.9412   25.0697 C.ar      1 MOL     0.2725
      6 C          42.8144  -14.9657   26.0097 C.ar      1 MOL     0.0496
      7 C          42.7899  -13.6012   25.7174 C.ar      1 MOL     0.0138
      8 C          43.2335  -12.6572   26.6473 C.ar      1 MOL     0.0008
      9 C          43.7271  -13.0729   27.8824 C.ar      1 MOL     0.0007
     10 C          43.7428  -14.4289   28.1987 C.ar      1 MOL     0.0103
     11 C          43.2678  -15.3892   27.2904 C.ar      1 MOL     0.0106
     12 C          43.2428  -16.7512   27.6295 C.ar      1 MOL     0.0736
     13 C          43.6585  -17.2097   28.9864 C.3       1 MOL     0.0925
     14 C          42.5188  -17.4943   29.8856 C.ar      1 MOL    -0.0406
     15 C          42.0019  -18.7899   29.9598 C.ar      1 MOL     0.0196
     16 C          40.9602  -19.1030   30.8478 C.ar      1 MOL     0.0723
     17 C          40.4946  -20.5051   30.8796 C.2       1 MOL     0.2495
     18 C          38.7439  -22.0700   31.4829 C.3       1 MOL     0.1268
     19 C          37.7539  -22.8112   30.5378 C.3       1 MOL     0.1265
     20 C          37.1896  -20.6712   29.4355 C.3       1 MOL     0.1265
     21 C          38.1315  -19.9128   30.4139 C.3       1 MOL     0.1268
     22 C          35.4189  -22.2773   29.8726 C.2       1 MOL     0.2187
     23 C          34.9307  -23.4426   30.6493 C.3       1 MOL     0.0752
     24 C          33.5596  -23.2790   31.1938 C.3       1 MOL     0.0134
     25 C          34.7437  -23.0098   32.0724 C.3       1 MOL     0.0134
     26 C          40.4488  -18.0971   31.6652 C.ar      1 MOL     0.1355
     27 C          40.9425  -16.7921   31.5836 C.ar      1 MOL     0.0392
     28 C          41.9768  -16.4896   30.6926 C.ar      1 MOL     0.0066
     29 O          42.0356  -15.6797   23.9144 O.2       1 MOL    -0.2658
     30 O          34.6475  -21.6827   29.1056 O.2       1 MOL    -0.2753
     31 O          41.3754  -21.3742   30.9401 O.2       1 MOL    -0.2699
     32 F          39.4716  -18.3591   32.5663 F         1 MOL    -0.2047
     33 H          42.4247  -13.2642   24.7578 H         1 MOL     0.0625
     34 H          43.1966  -11.6025   26.4159 H         1 MOL     0.0618
     35 H          44.0866  -12.3503   28.6005 H         1 MOL     0.0618
     36 H          44.1204  -14.7500   29.1609 H         1 MOL     0.0624
     37 H          44.2749  -16.4154   29.4495 H         1 MOL     0.0377
     38 H          44.2520  -18.1370   28.8749 H         1 MOL     0.0377
     39 H          42.4151  -19.5663   29.3307 H         1 MOL     0.0629
     40 H          38.2257  -21.8596   32.4502 H         1 MOL     0.0480
     41 H          39.6371  -22.6970   31.7032 H         1 MOL     0.0480
     42 H          37.2799  -23.6825   31.0410 H         1 MOL     0.0480
     43 H          38.3252  -23.1962   29.6561 H         1 MOL     0.0480
     44 H          36.3145  -20.0445   29.1523 H         1 MOL     0.0480
     45 H          37.7488  -20.9239   28.5025 H         1 MOL     0.0480
     46 H          37.5365  -19.5492   31.2863 H         1 MOL     0.0480
     47 H          38.5991  -19.0293   29.9243 H         1 MOL     0.0480
     48 H          35.3678  -24.3788   30.4262 H         1 MOL     0.0394
     49 H          33.0076  -24.1858   31.4132 H         1 MOL     0.0273
     50 H          32.9943  -22.4258   30.8419 H         1 MOL     0.0273
     51 H          34.9608  -23.7330   32.8468 H         1 MOL     0.0273
     52 H          34.9355  -21.9659   32.2962 H         1 MOL     0.0273
     53 H          40.5253  -16.0187   32.2125 H         1 MOL     0.0646
     54 H          42.3585  -15.4810   30.6351 H         1 MOL     0.0621
     55 H          42.1400  -17.9812   24.7785 H         1 MOL     0.1921
@<TRIPOS>BOND
     1    1   18 1 
     2    1   21 1 
     3    1   17 am
     4    2   20 1 
     5    2   22 am
     6    2   19 1 
     7    3    4 ar
     8    3   12 ar
     9    4   55 1 
    10    4    5 ar
    11    5    6 ar
    12    5   29 2 
    13    6    7 ar
    14    6   11 ar
    15    7    8 ar
    16    7   33 1 
    17    8    9 ar
    18    8   34 1 
    19    9   10 ar
    20    9   35 1 
    21   10   11 ar
    22   10   36 1 
    23   11   12 ar
    24   12   13 1 
    25   13   14 1 
    26   13   37 1 
    27   13   38 1 
    28   14   15 ar
    29   14   28 ar
    30   15   16 ar
    31   15   39 1 
    32   16   17 1 
    33   16   26 ar
    34   17   31 2 
    35   18   19 1 
    36   18   40 1 
    37   18   41 1 
    38   19   42 1 
    39   19   43 1 
    40   20   21 1 
    41   20   44 1 
    42   20   45 1 
    43   21   46 1 
    44   21   47 1 
    45   22   23 1 
    46   22   30 2 
    47   23   24 1 
    48   23   25 1 
    49   23   48 1 
    50   24   25 1 
    51   24   49 1 
    52   24   50 1 
    53   25   51 1 
    54   25   52 1 
    55   26   27 ar
    56   26   32 1 
    57   27   28 ar
    58   27   53 1 
    59   28   54 1 
@<TRIPOS>SUBSTRUCTURE
1 MOL         1
@<TRIPOS>MOLECULE
query molecule
   55    59     1     0     0
SMALL
NO_CHARGE

@<TRIPOS>ATOM
      1 N           7.6728  -11.3584   11.8953 N.am      1 MOL    -0.2945
      2 N           8.3901   -8.6116   11.8423 N.am      1 MOL    -0.2983
      3 N          11.2595  -15.0948   13.0031 N.ar      1 MOL    -0.1750
      4 N          11.4506  -15.0302   14.3177 N.ar      1 MOL    -0.2425
      5 C          11.1181  -16.1225   15.1509 C.ar      1 MOL     0.2725
      6 C          10.6165  -17.2934   14.5480 C.ar      1 MOL     0.0496
      7 C          10.3320  -18.4130   15.3337 C.ar      1 MOL     0.0138
      8 C           9.8554  -19.5790   14.7391 C.ar      1 MOL     0.0008
      9 C           9.6520  -19.6263   13.3581 C.ar      1 MOL     0.0007
     10 C           9.9243  -18.5086   12.5625 C.ar      1 MOL     0.0103
     11 C          10.4146  -17.3201   13.1414 C.ar      1 MOL     0.0106
     12 C          10.7151  -16.1782   12.3748 C.ar      1 MOL     0.0736
     13 C          10.4750  -16.1380   10.9049 C.3       1 MOL     0.0925
     14 C           9.3722  -15.2581   10.4475 C.ar      1 MOL    -0.0406
     15 C           8.7203  -14.3197   11.2521 C.ar      1 MOL     0.0196
     16 C           7.7001  -13.5109   10.7288 C.ar      1 MOL     0.0723
     17 C           7.0322  -12.5098   11.5887 C.2       1 MOL     0.2495
     18 C           7.1379  -10.4650   12.9184 C.3       1 MOL     0.1268
     19 C           7.1187   -8.9839   12.4365 C.3       1 MOL     0.1265
     20 C           8.8458   -9.4785   10.7569 C.3       1 MOL     0.1265
     21 C           8.9197  -10.9490   11.2714 C.3       1 MOL     0.1268
     22 C           9.1853   -7.5867   12.2402 C.2       1 MOL     0.2187
     23 C           8.8966   -6.9223   13.5304 C.3       1 MOL     0.0752
     24 C           7.7229   -6.0138   13.5064 C.3       1 MOL     0.0134
     25 C           9.1108   -5.4470   13.4576 C.3       1 MOL     0.0134
     26 C           7.3220  -13.6558    9.3943 C.ar      1 MOL     0.1355
     27 C           7.9556  -14.5924    8.5774 C.ar      1 MOL     0.0392
     28 C           8.9769  -15.3894    9.1017 C.ar      1 MOL     0.0066
     29 O          11.2616  -15.9894   16.3745 O.2       1 MOL    -0.2658
     30 O          10.2083   -7.2639   11.6168 O.2       1 MOL    -0.2753
     31 O           5.9053  -12.8011   12.0023 O.2       1 MOL    -0.2699
     32 F           6.3384  -12.8840    8.8741 F         1 MOL    -0.2047
     33 H          10.4889  -18.3728   16.4016 H         1 MOL     0.0625
     34 H           9.6467  -20.4456   15.3484 H         1 MOL     0.0618
     35 H           9.2855  -20.5343   12.9018 H         1 MOL     0.0618
     36 H           9.7557  -18.5570   11.5005 H         1 MOL     0.0624
     37 H          10.2372  -17.1719   10.5749 H         1 MOL     0.0377
     38 H          11.4077  -15.8010   10.4104 H         1 MOL     0.0377
     39 H           9.0035  -14.2134   12.2873 H         1 MOL     0.0629
     40 H           7.7979  -10.5375   13.8176 H         1 MOL     0.0480
     41 H           6.1202  -10.8099   13.2127 H         1 MOL     0.0480
     42 H           6.8745   -8.2823   13.2633 H         1 MOL     0.0480
     43 H           6.3314   -8.8732   11.6489 H         1 MOL     0.0480
     44 H           9.8384   -9.1311   10.3938 H         1 MOL     0.0480
     45 H           8.1216   -9.4074    9.9118 H         1 MOL     0.0480
     46 H           9.7286  -11.0230   12.0386 H         1 MOL     0.0480
     47 H           9.1653  -11.6542   10.4470 H         1 MOL     0.0480
     48 H           9.1697   -7.4730   14.3955 H         1 MOL     0.0394
     49 H           7.1847   -5.9103   14.4421 H         1 MOL     0.0273
     50 H           7.1417   -5.9930   12.5936 H         1 MOL     0.0273
     51 H           9.4716   -4.9656   14.3554 H         1 MOL     0.0273
     52 H           9.4265   -5.0398   12.5056 H         1 MOL     0.0273
     53 H           7.6593  -14.6994    7.5446 H         1 MOL     0.0646
     54 H           9.4679  -16.1132    8.4662 H         1 MOL     0.0621
     55 H          11.8249  -14.2144   14.7777 H         1 MOL     0.1921
@<TRIPOS>BOND
     1    1   18 1 
     2    1   21 1 
     3    1   17 am
     4    2   20 1 
     5    2   22 am
     6    2   19 1 
     7    3    4 ar
     8    3   12 ar
     9    4   55 1 
    10    4    5 ar
    11    5    6 ar
    12    5   29 2 
    13    6    7 ar
    14    6   11 ar
    15    7    8 ar
    16    7   33 1 
    17    8    9 ar
    18    8   34 1 
    19    9   10 ar
    20    9   35 1 
    21   10   11 ar
    22   10   36 1 
    23   11   12 ar
    24   12   13 1 
    25   13   14 1 
    26   13   37 1 
    27   13   38 1 
    28   14   15 ar
    29   14   28 ar
    30   15   16 ar
    31   15   39 1 
    32   16   17 1 
    33   16   26 ar
    34   17   31 2 
    35   18   19 1 
    36   18   40 1 
    37   18   41 1 
    38   19   42 1 
    39   19   43 1 
    40   20   21 1 
    41   20   44 1 
    42   20   45 1 
    43   21   46 1 
    44   21   47 1 
    45   22   23 1 
    46   22   30 2 
    47   23   24 1 
    48   23   25 1 
    49   23   48 1 
    50   24   25 1 
    51   24   49 1 
    52   24   50 1 
    53   25   51 1 
    54   25   52 1 
    55   26   27 ar
    56   26   32 1 
    57   27   28 ar
    58   27   53 1 
    59   28   54 1 
@<TRIPOS>SUBSTRUCTURE
1 MOL         1
