MODEL 1
REMARK VINA RESULT:      -6.2      0.000      0.000
REMARK  3 active torsions:
REMARK  status: ('A' for Active; 'I' for Inactive)
REMARK    1  A    between atoms: C_2  and  O_11 
REMARK    2  A    between atoms: C_3  and  O_11 
REMARK    3  A    between atoms: C_8  and  C_9 
ROOT
HETATM    1  C   UNL     1     -14.451 -56.549  -0.208  1.00  0.00     0.096 A 
HETATM    2  C   UNL     1     -14.541 -57.923  -0.139  1.00  0.00     0.038 A 
HETATM    3  C   UNL     1     -14.405 -58.637   1.035  1.00  0.00     0.003 A 
HETATM    4  C   UNL     1     -14.167 -57.939   2.194  1.00  0.00     0.001 A 
HETATM    5  C   UNL     1     -14.069 -56.565   2.182  1.00  0.00     0.021 A 
HETATM    6  C   UNL     1     -14.212 -55.878   0.975  1.00  0.00     0.074 A 
ENDROOT
BRANCH   1   7
HETATM    7  O   UNL     1     -14.579 -55.802  -1.348  1.00  0.00    -0.278 OA
BRANCH   7   8
HETATM    8  C   UNL     1     -15.637 -55.828  -2.212  1.00  0.00     0.260 C 
HETATM    9  C   UNL     1     -15.804 -56.876  -3.250  1.00  0.00     0.126 C 
HETATM   10  O   UNL     1     -16.470 -54.883  -2.057  1.00  0.00    -0.265 OA
ENDBRANCH   7   8
ENDBRANCH   1   7
BRANCH   6  11
HETATM   11  C   UNL     1     -14.101 -54.425   1.006  1.00  0.00     0.212 C 
HETATM   12  O   UNL     1     -12.977 -53.862   1.038  1.00  0.00    -0.644 OA
HETATM   13  O   UNL     1     -15.222 -53.613   1.005  1.00  0.00    -0.644 OA
ENDBRANCH   6  11
TORSDOF 3
ENDMDL
