MODEL 1
REMARK VINA RESULT:      -6.9      0.000      0.000
REMARK  4 active torsions:
REMARK  status: ('A' for Active; 'I' for Inactive)
REMARK    1  A    between atoms: C_2  and  C_4 
REMARK    2  A    between atoms: C_4  and  C_5 
REMARK    3  A    between atoms: C_8  and  C_11 
REMARK    4  A    between atoms: C_11  and  C_13 
ROOT
HETATM    1  C   UNL     1       4.101   7.523  21.219  1.00  0.00    -0.058 A 
HETATM    2  C   UNL     1       4.024   8.056  19.954  1.00  0.00     0.007 A 
HETATM    3  C   UNL     1       3.148   7.548  19.037  1.00  0.00     0.008 A 
HETATM    4  C   UNL     1       2.329   6.495  19.363  1.00  0.00    -0.044 A 
HETATM    5  C   UNL     1       2.397   5.954  20.623  1.00  0.00     0.008 A 
HETATM    6  C   UNL     1       3.281   6.469  21.547  1.00  0.00     0.007 A 
ENDROOT
BRANCH   4   7
HETATM    7  C   UNL     1       1.376   5.928  18.394  1.00  0.00     0.115 C 
HETATM    8  C   UNL     1       1.014   4.506  18.823  1.00  0.00     0.026 C 
BRANCH   7   9
HETATM    9  C   UNL     1       0.161   6.795  18.411  1.00  0.00     0.181 C 
HETATM   10  O   UNL     1      -0.843   6.470  19.061  1.00  0.00    -0.647 OA
HETATM   11  O   UNL     1       0.175   7.957  17.693  1.00  0.00    -0.647 OA
ENDBRANCH   7   9
ENDBRANCH   4   7
BRANCH   1  12
HETATM   12  C   UNL     1       5.067   8.110  22.179  1.00  0.00     0.042 C 
BRANCH  12  13
HETATM   13  C   UNL     1       6.313   7.274  22.275  1.00  0.00    -0.019 C 
HETATM   14  C   UNL     1       7.251   7.660  21.170  1.00  0.00     0.010 C 
HETATM   15  C   UNL     1       6.963   7.451  23.610  1.00  0.00     0.010 C 
ENDBRANCH  12  13
ENDBRANCH   1  12
TORSDOF 4
ENDMDL
MODEL 2
REMARK VINA RESULT:      -6.9      0.060      1.477
REMARK  4 active torsions:
REMARK  status: ('A' for Active; 'I' for Inactive)
REMARK    1  A    between atoms: C_2  and  C_4 
REMARK    2  A    between atoms: C_4  and  C_5 
REMARK    3  A    between atoms: C_8  and  C_11 
REMARK    4  A    between atoms: C_11  and  C_13 
ROOT
HETATM    1  C   UNL     1       4.133   7.563  21.200  1.00  0.00    -0.058 A 
HETATM    2  C   UNL     1       3.314   6.516  21.556  1.00  0.00     0.007 A 
HETATM    3  C   UNL     1       2.439   5.981  20.654  1.00  0.00     0.008 A 
HETATM    4  C   UNL     1       2.361   6.479  19.376  1.00  0.00    -0.044 A 
HETATM    5  C   UNL     1       3.173   7.523  19.010  1.00  0.00     0.008 A 
HETATM    6  C   UNL     1       4.056   8.061  19.922  1.00  0.00     0.007 A 
ENDROOT
BRANCH   4   7
HETATM    7  C   UNL     1       1.426   5.920  18.385  1.00  0.00     0.115 C 
HETATM    8  C   UNL     1       1.011   4.517  18.825  1.00  0.00     0.026 C 
BRANCH   7   9
HETATM    9  C   UNL     1       0.236   6.820  18.345  1.00  0.00     0.181 C 
HETATM   10  O   UNL     1       0.238   7.847  17.651  1.00  0.00    -0.647 OA
HETATM   11  O   UNL     1      -0.860   6.490  19.089  1.00  0.00    -0.647 OA
ENDBRANCH   7   9
ENDBRANCH   4   7
BRANCH   1  12
HETATM   12  C   UNL     1       5.067   8.109  22.214  1.00  0.00     0.042 C 
BRANCH  12  13
HETATM   13  C   UNL     1       6.313   7.273  22.313  1.00  0.00    -0.019 C 
HETATM   14  C   UNL     1       7.245   7.646  21.199  1.00  0.00     0.010 C 
HETATM   15  C   UNL     1       6.970   7.463  23.643  1.00  0.00     0.010 C 
ENDBRANCH  12  13
ENDBRANCH   1  12
TORSDOF 4
ENDMDL
MODEL 3
REMARK VINA RESULT:      -6.5      3.301      5.988
REMARK  4 active torsions:
REMARK  status: ('A' for Active; 'I' for Inactive)
REMARK    1  A    between atoms: C_2  and  C_4 
REMARK    2  A    between atoms: C_4  and  C_5 
REMARK    3  A    between atoms: C_8  and  C_11 
REMARK    4  A    between atoms: C_11  and  C_13 
ROOT
HETATM    1  C   UNL     1       3.638   6.580  20.467  1.00  0.00    -0.058 A 
HETATM    2  C   UNL     1       4.253   6.759  19.249  1.00  0.00     0.007 A 
HETATM    3  C   UNL     1       5.536   7.220  19.179  1.00  0.00     0.008 A 
HETATM    4  C   UNL     1       6.236   7.515  20.323  1.00  0.00    -0.044 A 
HETATM    5  C   UNL     1       5.633   7.341  21.544  1.00  0.00     0.008 A 
HETATM    6  C   UNL     1       4.338   6.875  21.612  1.00  0.00     0.007 A 
ENDROOT
BRANCH   4   7
HETATM    7  C   UNL     1       7.621   8.014  20.276  1.00  0.00     0.115 C 
HETATM    8  C   UNL     1       8.123   7.957  18.834  1.00  0.00     0.026 C 
BRANCH   7   9
HETATM    9  C   UNL     1       7.597   9.426  20.757  1.00  0.00     0.181 C 
HETATM   10  O   UNL     1       8.340   9.797  21.677  1.00  0.00    -0.647 OA
HETATM   11  O   UNL     1       6.739  10.307  20.163  1.00  0.00    -0.647 OA
ENDBRANCH   7   9
ENDBRANCH   4   7
BRANCH   1  12
HETATM   12  C   UNL     1       2.244   6.077  20.490  1.00  0.00     0.042 C 
BRANCH  12  13
HETATM   13  C   UNL     1       1.788   5.672  19.116  1.00  0.00    -0.019 C 
HETATM   14  C   UNL     1       1.660   4.179  19.059  1.00  0.00     0.010 C 
HETATM   15  C   UNL     1       0.489   6.331  18.778  1.00  0.00     0.010 C 
ENDBRANCH  12  13
ENDBRANCH   1  12
TORSDOF 4
ENDMDL
MODEL 4
REMARK VINA RESULT:      -6.4      1.683      2.248
REMARK  4 active torsions:
REMARK  status: ('A' for Active; 'I' for Inactive)
REMARK    1  A    between atoms: C_2  and  C_4 
REMARK    2  A    between atoms: C_4  and  C_5 
REMARK    3  A    between atoms: C_8  and  C_11 
REMARK    4  A    between atoms: C_11  and  C_13 
ROOT
HETATM    1  C   UNL     1       4.339   7.646  21.424  1.00  0.00    -0.058 A 
HETATM    2  C   UNL     1       3.732   6.555  22.002  1.00  0.00     0.007 A 
HETATM    3  C   UNL     1       2.800   5.833  21.313  1.00  0.00     0.008 A 
HETATM    4  C   UNL     1       2.452   6.183  20.032  1.00  0.00    -0.044 A 
HETATM    5  C   UNL     1       3.050   7.270  19.445  1.00  0.00     0.008 A 
HETATM    6  C   UNL     1       3.991   7.997  20.142  1.00  0.00     0.007 A 
ENDROOT
BRANCH   4   7
HETATM    7  C   UNL     1       1.450   5.421  19.267  1.00  0.00     0.115 C 
HETATM    8  C   UNL     1       0.615   6.392  18.432  1.00  0.00     0.026 C 
BRANCH   7   9
HETATM    9  C   UNL     1       2.193   4.484  18.375  1.00  0.00     0.181 C 
HETATM   10  O   UNL     1       2.081   3.257  18.506  1.00  0.00    -0.647 OA
HETATM   11  O   UNL     1       3.003   5.005  17.406  1.00  0.00    -0.647 OA
ENDBRANCH   7   9
ENDBRANCH   4   7
BRANCH   1  12
HETATM   12  C   UNL     1       5.346   8.398  22.212  1.00  0.00     0.042 C 
BRANCH  12  13
HETATM   13  C   UNL     1       6.693   7.736  22.145  1.00  0.00    -0.019 C 
HETATM   14  C   UNL     1       7.622   8.589  21.333  1.00  0.00     0.010 C 
HETATM   15  C   UNL     1       7.239   7.515  23.520  1.00  0.00     0.010 C 
ENDBRANCH  12  13
ENDBRANCH   1  12
TORSDOF 4
ENDMDL
MODEL 5
REMARK VINA RESULT:      -6.4      3.681      4.886
REMARK  4 active torsions:
REMARK  status: ('A' for Active; 'I' for Inactive)
REMARK    1  A    between atoms: C_2  and  C_4 
REMARK    2  A    between atoms: C_4  and  C_5 
REMARK    3  A    between atoms: C_8  and  C_11 
REMARK    4  A    between atoms: C_11  and  C_13 
ROOT
HETATM    1  C   UNL     1       6.456   8.225  20.321  1.00  0.00    -0.058 A 
HETATM    2  C   UNL     1       7.570   7.803  19.633  1.00  0.00     0.007 A 
HETATM    3  C   UNL     1       7.513   7.580  18.287  1.00  0.00     0.008 A 
HETATM    4  C   UNL     1       6.342   7.774  17.596  1.00  0.00    -0.044 A 
HETATM    5  C   UNL     1       5.223   8.195  18.272  1.00  0.00     0.008 A 
HETATM    6  C   UNL     1       5.284   8.419  19.631  1.00  0.00     0.007 A 
ENDROOT
BRANCH   4   7
HETATM    7  C   UNL     1       6.252   7.542  16.144  1.00  0.00     0.115 C 
HETATM    8  C   UNL     1       7.472   8.162  15.463  1.00  0.00     0.026 C 
BRANCH   7   9
HETATM    9  C   UNL     1       6.242   6.064  15.934  1.00  0.00     0.181 C 
HETATM   10  O   UNL     1       7.259   5.469  15.549  1.00  0.00    -0.647 OA
HETATM   11  O   UNL     1       5.087   5.376  16.174  1.00  0.00    -0.647 OA
ENDBRANCH   7   9
ENDBRANCH   4   7
BRANCH   1  12
HETATM   12  C   UNL     1       6.569   8.454  21.782  1.00  0.00     0.042 C 
BRANCH  12  13
HETATM   13  C   UNL     1       6.596   7.153  22.535  1.00  0.00    -0.019 C 
HETATM   14  C   UNL     1       7.296   7.357  23.846  1.00  0.00     0.010 C 
HETATM   15  C   UNL     1       5.207   6.640  22.747  1.00  0.00     0.010 C 
ENDBRANCH  12  13
ENDBRANCH   1  12
TORSDOF 4
ENDMDL
MODEL 6
REMARK VINA RESULT:      -6.4      1.649      2.020
REMARK  4 active torsions:
REMARK  status: ('A' for Active; 'I' for Inactive)
REMARK    1  A    between atoms: C_2  and  C_4 
REMARK    2  A    between atoms: C_4  and  C_5 
REMARK    3  A    between atoms: C_8  and  C_11 
REMARK    4  A    between atoms: C_11  and  C_13 
ROOT
HETATM    1  C   UNL     1       4.858   7.424  21.090  1.00  0.00    -0.058 A 
HETATM    2  C   UNL     1       5.423   7.362  19.838  1.00  0.00     0.007 A 
HETATM    3  C   UNL     1       4.765   6.752  18.808  1.00  0.00     0.008 A 
HETATM    4  C   UNL     1       3.528   6.188  19.005  1.00  0.00    -0.044 A 
HETATM    5  C   UNL     1       2.955   6.243  20.251  1.00  0.00     0.008 A 
HETATM    6  C   UNL     1       3.620   6.860  21.289  1.00  0.00     0.007 A 
ENDROOT
BRANCH   4   7
HETATM    7  C   UNL     1       2.798   5.524  17.913  1.00  0.00     0.115 C 
HETATM    8  C   UNL     1       1.472   4.987  18.452  1.00  0.00     0.026 C 
BRANCH   7   9
HETATM    9  C   UNL     1       2.547   6.552  16.861  1.00  0.00     0.181 C 
HETATM   10  O   UNL     1       1.928   7.594  17.124  1.00  0.00    -0.647 OA
HETATM   11  O   UNL     1       3.012   6.324  15.597  1.00  0.00    -0.647 OA
ENDBRANCH   7   9
ENDBRANCH   4   7
BRANCH   1  12
HETATM   12  C   UNL     1       5.611   8.098  22.176  1.00  0.00     0.042 C 
BRANCH  12  13
HETATM   13  C   UNL     1       6.064   7.112  23.217  1.00  0.00    -0.019 C 
HETATM   14  C   UNL     1       7.292   7.642  23.895  1.00  0.00     0.010 C 
HETATM   15  C   UNL     1       4.975   6.859  24.210  1.00  0.00     0.010 C 
ENDBRANCH  12  13
ENDBRANCH   1  12
TORSDOF 4
ENDMDL
MODEL 7
REMARK VINA RESULT:      -6.3      3.142      6.113
REMARK  4 active torsions:
REMARK  status: ('A' for Active; 'I' for Inactive)
REMARK    1  A    between atoms: C_2  and  C_4 
REMARK    2  A    between atoms: C_4  and  C_5 
REMARK    3  A    between atoms: C_8  and  C_11 
REMARK    4  A    between atoms: C_11  and  C_13 
ROOT
HETATM    1  C   UNL     1       3.282   6.878  18.620  1.00  0.00    -0.058 A 
HETATM    2  C   UNL     1       3.334   6.807  19.993  1.00  0.00     0.007 A 
HETATM    3  C   UNL     1       4.507   7.028  20.656  1.00  0.00     0.008 A 
HETATM    4  C   UNL     1       5.655   7.326  19.964  1.00  0.00    -0.044 A 
HETATM    5  C   UNL     1       5.616   7.399  18.594  1.00  0.00     0.008 A 
HETATM    6  C   UNL     1       4.431   7.175  17.927  1.00  0.00     0.007 A 
ENDROOT
BRANCH   4   7
HETATM    7  C   UNL     1       6.933   7.569  20.655  1.00  0.00     0.115 C 
HETATM    8  C   UNL     1       7.989   7.970  19.625  1.00  0.00     0.026 C 
BRANCH   7   9
HETATM    9  C   UNL     1       6.708   8.684  21.621  1.00  0.00     0.181 C 
HETATM   10  O   UNL     1       6.499   9.839  21.222  1.00  0.00    -0.647 OA
HETATM   11  O   UNL     1       6.736   8.409  22.958  1.00  0.00    -0.647 OA
ENDBRANCH   7   9
ENDBRANCH   4   7
BRANCH   1  12
HETATM   12  C   UNL     1       1.985   6.629  17.945  1.00  0.00     0.042 C 
BRANCH  12  13
HETATM   13  C   UNL     1       0.927   6.226  18.934  1.00  0.00    -0.019 C 
HETATM   14  C   UNL     1      -0.313   7.033  18.685  1.00  0.00     0.010 C 
HETATM   15  C   UNL     1       0.639   4.762  18.828  1.00  0.00     0.010 C 
ENDBRANCH  12  13
ENDBRANCH   1  12
TORSDOF 4
ENDMDL
MODEL 8
REMARK VINA RESULT:      -6.2      2.296      3.385
REMARK  4 active torsions:
REMARK  status: ('A' for Active; 'I' for Inactive)
REMARK    1  A    between atoms: C_2  and  C_4 
REMARK    2  A    between atoms: C_4  and  C_5 
REMARK    3  A    between atoms: C_8  and  C_11 
REMARK    4  A    between atoms: C_11  and  C_13 
ROOT
HETATM    1  C   UNL     1       3.581   6.170  20.948  1.00  0.00    -0.058 A 
HETATM    2  C   UNL     1       2.393   5.746  20.400  1.00  0.00     0.007 A 
HETATM    3  C   UNL     1       2.026   6.141  19.145  1.00  0.00     0.008 A 
HETATM    4  C   UNL     1       2.838   6.968  18.408  1.00  0.00    -0.044 A 
HETATM    5  C   UNL     1       4.026   7.398  18.945  1.00  0.00     0.008 A 
HETATM    6  C   UNL     1       4.394   6.998  20.212  1.00  0.00     0.007 A 
ENDROOT
BRANCH   4   7
HETATM    7  C   UNL     1       2.467   7.409  17.053  1.00  0.00     0.115 C 
HETATM    8  C   UNL     1       2.945   8.846  16.847  1.00  0.00     0.026 C 
BRANCH   7   9
HETATM    9  C   UNL     1       3.151   6.497  16.089  1.00  0.00     0.181 C 
HETATM   10  O   UNL     1       3.256   6.800  14.892  1.00  0.00    -0.647 OA
HETATM   11  O   UNL     1       3.660   5.317  16.552  1.00  0.00    -0.647 OA
ENDBRANCH   7   9
ENDBRANCH   4   7
BRANCH   1  12
HETATM   12  C   UNL     1       3.935   5.713  22.314  1.00  0.00     0.042 C 
BRANCH  12  13
HETATM   13  C   UNL     1       3.985   6.867  23.277  1.00  0.00    -0.019 C 
HETATM   14  C   UNL     1       3.138   6.548  24.473  1.00  0.00     0.010 C 
HETATM   15  C   UNL     1       5.396   7.150  23.684  1.00  0.00     0.010 C 
ENDBRANCH  12  13
ENDBRANCH   1  12
TORSDOF 4
ENDMDL
MODEL 9
REMARK VINA RESULT:      -6.2      1.550      2.131
REMARK  4 active torsions:
REMARK  status: ('A' for Active; 'I' for Inactive)
REMARK    1  A    between atoms: C_2  and  C_4 
REMARK    2  A    between atoms: C_4  and  C_5 
REMARK    3  A    between atoms: C_8  and  C_11 
REMARK    4  A    between atoms: C_11  and  C_13 
ROOT
HETATM    1  C   UNL     1       5.054   7.046  19.115  1.00  0.00    -0.058 A 
HETATM    2  C   UNL     1       4.731   6.645  17.840  1.00  0.00     0.007 A 
HETATM    3  C   UNL     1       3.479   6.184  17.552  1.00  0.00     0.008 A 
HETATM    4  C   UNL     1       2.518   6.113  18.531  1.00  0.00    -0.044 A 
HETATM    5  C   UNL     1       2.829   6.511  19.808  1.00  0.00     0.008 A 
HETATM    6  C   UNL     1       4.094   6.976  20.096  1.00  0.00     0.007 A 
ENDROOT
BRANCH   4   7
HETATM    7  C   UNL     1       1.160   5.620  18.248  1.00  0.00     0.115 C 
HETATM    8  C   UNL     1       0.789   4.557  19.281  1.00  0.00     0.026 C 
BRANCH   7   9
HETATM    9  C   UNL     1       0.235   6.787  18.357  1.00  0.00     0.181 C 
HETATM   10  O   UNL     1      -0.796   6.720  19.041  1.00  0.00    -0.647 OA
HETATM   11  O   UNL     1       0.547   7.935  17.686  1.00  0.00    -0.647 OA
ENDBRANCH   7   9
ENDBRANCH   4   7
BRANCH   1  12
HETATM   12  C   UNL     1       6.428   7.540  19.377  1.00  0.00     0.042 C 
BRANCH  12  13
HETATM   13  C   UNL     1       6.404   8.840  20.131  1.00  0.00    -0.019 C 
HETATM   14  C   UNL     1       7.707   9.014  20.854  1.00  0.00     0.010 C 
HETATM   15  C   UNL     1       6.155   9.983  19.200  1.00  0.00     0.010 C 
ENDBRANCH  12  13
ENDBRANCH   1  12
TORSDOF 4
ENDMDL
MODEL 10
REMARK VINA RESULT:      -6.0      3.393      5.110
REMARK  4 active torsions:
REMARK  status: ('A' for Active; 'I' for Inactive)
REMARK    1  A    between atoms: C_2  and  C_4 
REMARK    2  A    between atoms: C_4  and  C_5 
REMARK    3  A    between atoms: C_8  and  C_11 
REMARK    4  A    between atoms: C_11  and  C_13 
ROOT
HETATM    1  C   UNL     1       3.701   9.241  16.704  1.00  0.00    -0.058 A 
HETATM    2  C   UNL     1       2.681   9.477  17.596  1.00  0.00     0.007 A 
HETATM    3  C   UNL     1       1.921   8.446  18.070  1.00  0.00     0.008 A 
HETATM    4  C   UNL     1       2.162   7.156  17.665  1.00  0.00    -0.044 A 
HETATM    5  C   UNL     1       3.177   6.909  16.775  1.00  0.00     0.008 A 
HETATM    6  C   UNL     1       3.943   7.951  16.298  1.00  0.00     0.007 A 
ENDROOT
BRANCH   4   7
HETATM    7  C   UNL     1       1.357   6.027  18.161  1.00  0.00     0.115 C 
HETATM    8  C   UNL     1       1.722   5.756  19.620  1.00  0.00     0.026 C 
BRANCH   7   9
HETATM    9  C   UNL     1      -0.077   6.427  18.056  1.00  0.00     0.181 C 
HETATM   10  O   UNL     1      -0.630   6.529  16.951  1.00  0.00    -0.647 OA
HETATM   11  O   UNL     1      -0.773   6.679  19.203  1.00  0.00    -0.647 OA
ENDBRANCH   7   9
ENDBRANCH   4   7
BRANCH   1  12
HETATM   12  C   UNL     1       4.499  10.393  16.218  1.00  0.00     0.042 C 
BRANCH  12  13
HETATM   13  C   UNL     1       3.633  11.388  15.497  1.00  0.00    -0.019 C 
HETATM   14  C   UNL     1       4.354  12.701  15.416  1.00  0.00     0.010 C 
HETATM   15  C   UNL     1       3.284  10.888  14.131  1.00  0.00     0.010 C 
ENDBRANCH  12  13
ENDBRANCH   1  12
TORSDOF 4
ENDMDL
MODEL 11
REMARK VINA RESULT:      -5.9      2.605      5.583
REMARK  4 active torsions:
REMARK  status: ('A' for Active; 'I' for Inactive)
REMARK    1  A    between atoms: C_2  and  C_4 
REMARK    2  A    between atoms: C_4  and  C_5 
REMARK    3  A    between atoms: C_8  and  C_11 
REMARK    4  A    between atoms: C_11  and  C_13 
ROOT
HETATM    1  C   UNL     1       2.824   5.633  19.868  1.00  0.00    -0.058 A 
HETATM    2  C   UNL     1       3.906   6.222  19.257  1.00  0.00     0.007 A 
HETATM    3  C   UNL     1       4.754   7.023  19.968  1.00  0.00     0.008 A 
HETATM    4  C   UNL     1       4.541   7.254  21.305  1.00  0.00    -0.044 A 
HETATM    5  C   UNL     1       3.464   6.671  21.925  1.00  0.00     0.008 A 
HETATM    6  C   UNL     1       2.610   5.863  21.206  1.00  0.00     0.007 A 
ENDROOT
BRANCH   4   7
HETATM    7  C   UNL     1       5.440   8.113  22.094  1.00  0.00     0.115 C 
HETATM    8  C   UNL     1       6.851   7.526  22.059  1.00  0.00     0.026 C 
BRANCH   7   9
HETATM    9  C   UNL     1       5.430   9.464  21.460  1.00  0.00     0.181 C 
HETATM   10  O   UNL     1       6.483  10.000  21.088  1.00  0.00    -0.647 OA
HETATM   11  O   UNL     1       4.233  10.101  21.296  1.00  0.00    -0.647 OA
ENDBRANCH   7   9
ENDBRANCH   4   7
BRANCH   1  12
HETATM   12  C   UNL     1       1.932   4.771  19.054  1.00  0.00     0.042 C 
BRANCH  12  13
HETATM   13  C   UNL     1       1.065   5.594  18.143  1.00  0.00    -0.019 C 
HETATM   14  C   UNL     1       0.110   6.404  18.969  1.00  0.00     0.010 C 
HETATM   15  C   UNL     1       1.904   6.481  17.278  1.00  0.00     0.010 C 
ENDBRANCH  12  13
ENDBRANCH   1  12
TORSDOF 4
ENDMDL
MODEL 12
REMARK VINA RESULT:      -5.7      3.503      4.959
REMARK  4 active torsions:
REMARK  status: ('A' for Active; 'I' for Inactive)
REMARK    1  A    between atoms: C_2  and  C_4 
REMARK    2  A    between atoms: C_4  and  C_5 
REMARK    3  A    between atoms: C_8  and  C_11 
REMARK    4  A    between atoms: C_11  and  C_13 
ROOT
HETATM    1  C   UNL     1       3.445  10.380  18.450  1.00  0.00    -0.058 A 
HETATM    2  C   UNL     1       2.650   9.439  17.838  1.00  0.00     0.007 A 
HETATM    3  C   UNL     1       2.686   8.133  18.235  1.00  0.00     0.008 A 
HETATM    4  C   UNL     1       3.517   7.736  19.254  1.00  0.00    -0.044 A 
HETATM    5  C   UNL     1       4.315   8.665  19.872  1.00  0.00     0.008 A 
HETATM    6  C   UNL     1       4.277   9.983  19.469  1.00  0.00     0.007 A 
ENDROOT
BRANCH   4   7
HETATM    7  C   UNL     1       3.575   6.334  19.702  1.00  0.00     0.115 C 
HETATM    8  C   UNL     1       2.267   5.980  20.409  1.00  0.00     0.026 C 
BRANCH   7   9
HETATM    9  C   UNL     1       3.746   5.488  18.484  1.00  0.00     0.181 C 
HETATM   10  O   UNL     1       2.832   4.752  18.088  1.00  0.00    -0.647 OA
HETATM   11  O   UNL     1       4.934   5.540  17.812  1.00  0.00    -0.647 OA
ENDBRANCH   7   9
ENDBRANCH   4   7
BRANCH   1  12
HETATM   12  C   UNL     1       3.370  11.785  17.983  1.00  0.00     0.042 C 
BRANCH  12  13
HETATM   13  C   UNL     1       3.936  11.928  16.598  1.00  0.00    -0.019 C 
HETATM   14  C   UNL     1       3.372  13.164  15.961  1.00  0.00     0.010 C 
HETATM   15  C   UNL     1       5.429  11.987  16.643  1.00  0.00     0.010 C 
ENDBRANCH  12  13
ENDBRANCH   1  12
TORSDOF 4
ENDMDL
MODEL 13
REMARK VINA RESULT:      -5.6      3.981      5.774
REMARK  4 active torsions:
REMARK  status: ('A' for Active; 'I' for Inactive)
REMARK    1  A    between atoms: C_2  and  C_4 
REMARK    2  A    between atoms: C_4  and  C_5 
REMARK    3  A    between atoms: C_8  and  C_11 
REMARK    4  A    between atoms: C_11  and  C_13 
ROOT
HETATM    1  C   UNL     1       4.847   6.386  17.938  1.00  0.00    -0.058 A 
HETATM    2  C   UNL     1       3.843   5.901  18.743  1.00  0.00     0.007 A 
HETATM    3  C   UNL     1       3.690   6.364  20.019  1.00  0.00     0.008 A 
HETATM    4  C   UNL     1       4.537   7.322  20.520  1.00  0.00    -0.044 A 
HETATM    5  C   UNL     1       5.542   7.814  19.726  1.00  0.00     0.008 A 
HETATM    6  C   UNL     1       5.694   7.345  18.438  1.00  0.00     0.007 A 
ENDROOT
BRANCH   4   7
HETATM    7  C   UNL     1       4.394   7.838  21.892  1.00  0.00     0.115 C 
HETATM    8  C   UNL     1       3.362   6.994  22.639  1.00  0.00     0.026 C 
BRANCH   7   9
HETATM    9  C   UNL     1       5.729   7.719  22.549  1.00  0.00     0.181 C 
HETATM   10  O   UNL     1       6.398   8.727  22.819  1.00  0.00    -0.647 OA
HETATM   11  O   UNL     1       6.203   6.474  22.850  1.00  0.00    -0.647 OA
ENDBRANCH   7   9
ENDBRANCH   4   7
BRANCH   1  12
HETATM   12  C   UNL     1       4.971   5.852  16.560  1.00  0.00     0.042 C 
BRANCH  12  13
HETATM   13  C   UNL     1       5.836   6.740  15.709  1.00  0.00    -0.019 C 
HETATM   14  C   UNL     1       6.849   5.899  14.991  1.00  0.00     0.010 C 
HETATM   15  C   UNL     1       5.001   7.512  14.737  1.00  0.00     0.010 C 
ENDBRANCH  12  13
ENDBRANCH   1  12
TORSDOF 4
ENDMDL
MODEL 14
REMARK VINA RESULT:      -5.6      4.687      6.908
REMARK  4 active torsions:
REMARK  status: ('A' for Active; 'I' for Inactive)
REMARK    1  A    between atoms: C_2  and  C_4 
REMARK    2  A    between atoms: C_4  and  C_5 
REMARK    3  A    between atoms: C_8  and  C_11 
REMARK    4  A    between atoms: C_11  and  C_13 
ROOT
HETATM    1  C   UNL     1       4.470  10.773  18.242  1.00  0.00    -0.058 A 
HETATM    2  C   UNL     1       4.084  10.354  19.494  1.00  0.00     0.007 A 
HETATM    3  C   UNL     1       4.847   9.464  20.195  1.00  0.00     0.008 A 
HETATM    4  C   UNL     1       6.013   8.972  19.661  1.00  0.00    -0.044 A 
HETATM    5  C   UNL     1       6.408   9.383  18.412  1.00  0.00     0.008 A 
HETATM    6  C   UNL     1       5.636  10.282  17.707  1.00  0.00     0.007 A 
ENDROOT
BRANCH   4   7
HETATM    7  C   UNL     1       6.854   8.011  20.395  1.00  0.00     0.115 C 
HETATM    8  C   UNL     1       8.000   7.558  19.490  1.00  0.00     0.026 C 
BRANCH   7   9
HETATM    9  C   UNL     1       7.393   8.720  21.592  1.00  0.00     0.181 C 
HETATM   10  O   UNL     1       7.016   8.418  22.733  1.00  0.00    -0.647 OA
HETATM   11  O   UNL     1       8.313   9.713  21.407  1.00  0.00    -0.647 OA
ENDBRANCH   7   9
ENDBRANCH   4   7
BRANCH   1  12
HETATM   12  C   UNL     1       3.607  11.741  17.522  1.00  0.00     0.042 C 
BRANCH  12  13
HETATM   13  C   UNL     1       4.039  11.894  16.090  1.00  0.00    -0.019 C 
HETATM   14  C   UNL     1       3.433  10.792  15.272  1.00  0.00     0.010 C 
HETATM   15  C   UNL     1       3.638  13.233  15.559  1.00  0.00     0.010 C 
ENDBRANCH  12  13
ENDBRANCH   1  12
TORSDOF 4
ENDMDL
MODEL 15
REMARK VINA RESULT:      -5.6      3.465      4.997
REMARK  4 active torsions:
REMARK  status: ('A' for Active; 'I' for Inactive)
REMARK    1  A    between atoms: C_2  and  C_4 
REMARK    2  A    between atoms: C_4  and  C_5 
REMARK    3  A    between atoms: C_8  and  C_11 
REMARK    4  A    between atoms: C_11  and  C_13 
ROOT
HETATM    1  C   UNL     1       5.271   7.895  20.478  1.00  0.00    -0.058 A 
HETATM    2  C   UNL     1       4.325   8.816  20.090  1.00  0.00     0.007 A 
HETATM    3  C   UNL     1       4.465   9.504  18.919  1.00  0.00     0.008 A 
HETATM    4  C   UNL     1       5.552   9.288  18.108  1.00  0.00    -0.044 A 
HETATM    5  C   UNL     1       6.502   8.372  18.485  1.00  0.00     0.008 A 
HETATM    6  C   UNL     1       6.359   7.678  19.668  1.00  0.00     0.007 A 
ENDROOT
BRANCH   4   7
HETATM    7  C   UNL     1       5.727  10.016  16.839  1.00  0.00     0.115 C 
HETATM    8  C   UNL     1       4.661   9.554  15.846  1.00  0.00     0.026 C 
BRANCH   7   9
HETATM    9  C   UNL     1       5.557  11.469  17.137  1.00  0.00     0.181 C 
HETATM   10  O   UNL     1       4.609  12.109  16.661  1.00  0.00    -0.647 OA
HETATM   11  O   UNL     1       6.469  12.083  17.947  1.00  0.00    -0.647 OA
ENDBRANCH   7   9
ENDBRANCH   4   7
BRANCH   1  12
HETATM   12  C   UNL     1       5.074   7.173  21.759  1.00  0.00     0.042 C 
BRANCH  12  13
HETATM   13  C   UNL     1       3.619   6.879  21.999  1.00  0.00    -0.019 C 
HETATM   14  C   UNL     1       3.245   5.621  21.273  1.00  0.00     0.010 C 
HETATM   15  C   UNL     1       3.343   6.750  23.463  1.00  0.00     0.010 C 
ENDBRANCH  12  13
ENDBRANCH   1  12
TORSDOF 4
ENDMDL
MODEL 16
REMARK VINA RESULT:      -5.5      3.525      4.715
REMARK  4 active torsions:
REMARK  status: ('A' for Active; 'I' for Inactive)
REMARK    1  A    between atoms: C_2  and  C_4 
REMARK    2  A    between atoms: C_4  and  C_5 
REMARK    3  A    between atoms: C_8  and  C_11 
REMARK    4  A    between atoms: C_11  and  C_13 
ROOT
HETATM    1  C   UNL     1       4.852   8.281  20.173  1.00  0.00    -0.058 A 
HETATM    2  C   UNL     1       4.001   8.544  19.125  1.00  0.00     0.007 A 
HETATM    3  C   UNL     1       4.399   8.332  17.836  1.00  0.00     0.008 A 
HETATM    4  C   UNL     1       5.657   7.852  17.564  1.00  0.00    -0.044 A 
HETATM    5  C   UNL     1       6.516   7.587  18.602  1.00  0.00     0.008 A 
HETATM    6  C   UNL     1       6.111   7.802  19.902  1.00  0.00     0.007 A 
ENDROOT
BRANCH   4   7
HETATM    7  C   UNL     1       6.113   7.615  16.184  1.00  0.00     0.115 C 
HETATM    8  C   UNL     1       7.476   8.276  15.986  1.00  0.00     0.026 C 
BRANCH   7   9
HETATM    9  C   UNL     1       6.227   6.137  16.005  1.00  0.00     0.181 C 
HETATM   10  O   UNL     1       7.323   5.608  15.772  1.00  0.00    -0.647 OA
HETATM   11  O   UNL     1       5.098   5.376  16.102  1.00  0.00    -0.647 OA
ENDBRANCH   7   9
ENDBRANCH   4   7
BRANCH   1  12
HETATM   12  C   UNL     1       4.373   8.528  21.555  1.00  0.00     0.042 C 
BRANCH  12  13
HETATM   13  C   UNL     1       4.120   7.236  22.281  1.00  0.00    -0.019 C 
HETATM   14  C   UNL     1       3.516   6.246  21.330  1.00  0.00     0.010 C 
HETATM   15  C   UNL     1       5.390   6.705  22.866  1.00  0.00     0.010 C 
ENDBRANCH  12  13
ENDBRANCH   1  12
TORSDOF 4
ENDMDL
MODEL 17
REMARK VINA RESULT:      -5.3      2.880      4.638
REMARK  4 active torsions:
REMARK  status: ('A' for Active; 'I' for Inactive)
REMARK    1  A    between atoms: C_2  and  C_4 
REMARK    2  A    between atoms: C_4  and  C_5 
REMARK    3  A    between atoms: C_8  and  C_11 
REMARK    4  A    between atoms: C_11  and  C_13 
ROOT
HETATM    1  C   UNL     1       3.835   8.731  17.281  1.00  0.00    -0.058 A 
HETATM    2  C   UNL     1       2.579   8.440  17.760  1.00  0.00     0.007 A 
HETATM    3  C   UNL     1       2.381   7.372  18.588  1.00  0.00     0.008 A 
HETATM    4  C   UNL     1       3.433   6.571  18.958  1.00  0.00    -0.044 A 
HETATM    5  C   UNL     1       4.692   6.852  18.486  1.00  0.00     0.008 A 
HETATM    6  C   UNL     1       4.888   7.930  17.651  1.00  0.00     0.007 A 
ENDROOT
BRANCH   4   7
HETATM    7  C   UNL     1       3.248   5.414  19.850  1.00  0.00     0.115 C 
HETATM    8  C   UNL     1       2.792   5.908  21.223  1.00  0.00     0.026 C 
BRANCH   7   9
HETATM    9  C   UNL     1       2.196   4.550  19.240  1.00  0.00     0.181 C 
HETATM   10  O   UNL     1       2.396   3.966  18.164  1.00  0.00    -0.647 OA
HETATM   11  O   UNL     1       1.003   4.412  19.889  1.00  0.00    -0.647 OA
ENDBRANCH   7   9
ENDBRANCH   4   7
BRANCH   1  12
HETATM   12  C   UNL     1       3.998   9.901  16.385  1.00  0.00     0.042 C 
BRANCH  12  13
HETATM   13  C   UNL     1       3.793  11.190  17.131  1.00  0.00    -0.019 C 
HETATM   14  C   UNL     1       4.878  11.344  18.155  1.00  0.00     0.010 C 
HETATM   15  C   UNL     1       3.786  12.349  16.185  1.00  0.00     0.010 C 
ENDBRANCH  12  13
ENDBRANCH   1  12
TORSDOF 4
ENDMDL
MODEL 18
REMARK VINA RESULT:      -5.3      3.820      5.831
REMARK  4 active torsions:
REMARK  status: ('A' for Active; 'I' for Inactive)
REMARK    1  A    between atoms: C_2  and  C_4 
REMARK    2  A    between atoms: C_4  and  C_5 
REMARK    3  A    between atoms: C_8  and  C_11 
REMARK    4  A    between atoms: C_11  and  C_13 
ROOT
HETATM    1  C   UNL     1       3.293   7.113  18.301  1.00  0.00    -0.058 A 
HETATM    2  C   UNL     1       3.438   6.471  17.093  1.00  0.00     0.007 A 
HETATM    3  C   UNL     1       4.463   6.798  16.251  1.00  0.00     0.008 A 
HETATM    4  C   UNL     1       5.366   7.774  16.595  1.00  0.00    -0.044 A 
HETATM    5  C   UNL     1       5.231   8.421  17.798  1.00  0.00     0.008 A 
HETATM    6  C   UNL     1       4.196   8.089  18.647  1.00  0.00     0.007 A 
ENDROOT
BRANCH   4   7
HETATM    7  C   UNL     1       6.479   8.146  15.706  1.00  0.00     0.115 C 
HETATM    8  C   UNL     1       7.720   7.344  16.097  1.00  0.00     0.026 C 
BRANCH   7   9
HETATM    9  C   UNL     1       6.065   7.806  14.313  1.00  0.00     0.181 C 
HETATM   10  O   UNL     1       6.380   6.721  13.803  1.00  0.00    -0.647 OA
HETATM   11  O   UNL     1       5.329   8.715  13.608  1.00  0.00    -0.647 OA
ENDBRANCH   7   9
ENDBRANCH   4   7
BRANCH   1  12
HETATM   12  C   UNL     1       2.165   6.722  19.180  1.00  0.00     0.042 C 
BRANCH  12  13
HETATM   13  C   UNL     1       2.002   5.228  19.223  1.00  0.00    -0.019 C 
HETATM   14  C   UNL     1       2.484   4.718  20.549  1.00  0.00     0.010 C 
HETATM   15  C   UNL     1       0.574   4.848  18.995  1.00  0.00     0.010 C 
ENDBRANCH  12  13
ENDBRANCH   1  12
TORSDOF 4
ENDMDL
MODEL 19
REMARK VINA RESULT:      -5.2      4.640      6.547
REMARK  4 active torsions:
REMARK  status: ('A' for Active; 'I' for Inactive)
REMARK    1  A    between atoms: C_2  and  C_4 
REMARK    2  A    between atoms: C_4  and  C_5 
REMARK    3  A    between atoms: C_8  and  C_11 
REMARK    4  A    between atoms: C_11  and  C_13 
ROOT
HETATM    1  C   UNL     1       4.995  11.142  17.694  1.00  0.00    -0.058 A 
HETATM    2  C   UNL     1       4.626   9.839  17.450  1.00  0.00     0.007 A 
HETATM    3  C   UNL     1       4.500   8.949  18.478  1.00  0.00     0.008 A 
HETATM    4  C   UNL     1       4.739   9.338  19.773  1.00  0.00    -0.044 A 
HETATM    5  C   UNL     1       5.108  10.635  20.029  1.00  0.00     0.008 A 
HETATM    6  C   UNL     1       5.234  11.533  18.990  1.00  0.00     0.007 A 
ENDROOT
BRANCH   4   7
HETATM    7  C   UNL     1       4.611   8.398  20.899  1.00  0.00     0.115 C 
HETATM    8  C   UNL     1       4.008   7.088  20.391  1.00  0.00     0.026 C 
BRANCH   7   9
HETATM    9  C   UNL     1       5.983   8.159  21.434  1.00  0.00     0.181 C 
HETATM   10  O   UNL     1       6.843   7.588  20.747  1.00  0.00    -0.647 OA
HETATM   11  O   UNL     1       6.277   8.583  22.698  1.00  0.00    -0.647 OA
ENDBRANCH   7   9
ENDBRANCH   4   7
BRANCH   1  12
HETATM   12  C   UNL     1       5.118  12.071  16.545  1.00  0.00     0.042 C 
BRANCH  12  13
HETATM   13  C   UNL     1       3.787  12.297  15.883  1.00  0.00    -0.019 C 
HETATM   14  C   UNL     1       3.079  13.425  16.574  1.00  0.00     0.010 C 
HETATM   15  C   UNL     1       3.966  12.593  14.428  1.00  0.00     0.010 C 
ENDBRANCH  12  13
ENDBRANCH   1  12
TORSDOF 4
ENDMDL
MODEL 20
REMARK VINA RESULT:      -4.9      3.864      6.474
REMARK  4 active torsions:
REMARK  status: ('A' for Active; 'I' for Inactive)
REMARK    1  A    between atoms: C_2  and  C_4 
REMARK    2  A    between atoms: C_4  and  C_5 
REMARK    3  A    between atoms: C_8  and  C_11 
REMARK    4  A    between atoms: C_11  and  C_13 
ROOT
HETATM    1  C   UNL     1       5.163   7.264  17.210  1.00  0.00    -0.058 A 
HETATM    2  C   UNL     1       4.550   7.020  18.417  1.00  0.00     0.007 A 
HETATM    3  C   UNL     1       5.223   7.214  19.590  1.00  0.00     0.008 A 
HETATM    4  C   UNL     1       6.523   7.657  19.584  1.00  0.00    -0.044 A 
HETATM    5  C   UNL     1       7.144   7.905  18.386  1.00  0.00     0.008 A 
HETATM    6  C   UNL     1       6.463   7.708  17.203  1.00  0.00     0.007 A 
ENDROOT
BRANCH   4   7
HETATM    7  C   UNL     1       7.271   7.875  20.834  1.00  0.00     0.115 C 
HETATM    8  C   UNL     1       7.976   9.230  20.765  1.00  0.00     0.026 C 
BRANCH   7   9
HETATM    9  C   UNL     1       6.279   7.868  21.949  1.00  0.00     0.181 C 
HETATM   10  O   UNL     1       6.090   6.847  22.626  1.00  0.00    -0.647 OA
HETATM   11  O   UNL     1       5.581   9.012  22.213  1.00  0.00    -0.647 OA
ENDBRANCH   7   9
ENDBRANCH   4   7
BRANCH   1  12
HETATM   12  C   UNL     1       4.390   7.038  15.964  1.00  0.00     0.042 C 
BRANCH  12  13
HETATM   13  C   UNL     1       4.400   8.261  15.089  1.00  0.00    -0.019 C 
HETATM   14  C   UNL     1       3.826   7.911  13.748  1.00  0.00     0.010 C 
HETATM   15  C   UNL     1       3.625   9.370  15.727  1.00  0.00     0.010 C 
ENDBRANCH  12  13
ENDBRANCH   1  12
TORSDOF 4
ENDMDL
