@<TRIPOS>MOLECULE
example_output/ligand_structures/aspirin.pdb
 20 20 0 0 0
SMALL
GASTEIGER

@<TRIPOS>ATOM
      1  C         -2.6900   -2.3680    0.1140 C.3     1  UNL1        0.0336
      2  C         -1.8130   -1.2320   -0.2670 C.2     1  UNL1        0.3092
      3  C         -0.2550    0.5320    0.3680 C.ar    1  UNL1        0.1404
      4  C         -0.6320    1.8580    0.3450 C.ar    1  UNL1       -0.0186
      5  C          0.2380    2.8920    0.0610 C.ar    1  UNL1       -0.0582
      6  C          1.5480    2.5810   -0.2120 C.ar    1  UNL1       -0.0609
      7  C          1.9780    1.2720   -0.2030 C.ar    1  UNL1       -0.0494
      8  C          1.0690    0.2540    0.0890 C.ar    1  UNL1        0.0397
      9  C          1.5650   -1.1170    0.0880 C.2     1  UNL1        0.0752
     10  O         -1.6840   -0.8420   -1.4670 O.2     1  UNL1       -0.2507
     11  O         -1.0820   -0.5230    0.6440 O.3     1  UNL1       -0.4254
     12  O          0.8000   -2.0820    0.3430 O.co2   1  UNL1       -0.5445
     13  O          2.8900   -1.4080   -0.1900 O.co2   1  UNL1       -0.5445
     14  H         -3.1590   -2.7650   -0.7620 H       1  UNL1        0.0342
     15  H         -3.4400   -2.0260    0.7960 H       1  UNL1        0.0342
     16  H         -2.1030   -3.1300    0.5820 H       1  UNL1        0.0342
     17  H         -1.6160    2.0900    0.5510 H       1  UNL1        0.0654
     18  H         -0.0870    3.8720    0.0550 H       1  UNL1        0.0619
     19  H          2.2180    3.3360   -0.4270 H       1  UNL1        0.0618
     20  H          2.9640    1.0460   -0.4090 H       1  UNL1        0.0625
@<TRIPOS>UNITY_ATOM_ATTR
13 1
charge -1
@<TRIPOS>BOND
     1     1     2    1
     2     1    14    1
     3     1    15    1
     4     1    16    1
     5     2    10    2
     6     2    11    1
     7     3     4   ar
     8     3     8   ar
     9     3    11    1
    10     4     5   ar
    11     4    17    1
    12     5     6   ar
    13     5    18    1
    14     6     7   ar
    15     6    19    1
    16     7     8   ar
    17     7    20    1
    18     8     9    1
    19     9    12   ar
    20     9    13   ar
