@<TRIPOS>MOLECULE
query molecule
   20    20     1     0     0
SMALL
NO_CHARGE

@<TRIPOS>ATOM
      1 C         -67.0129  -23.5085    0.3509 C.3       1 MOL     0.1362
      2 C         -66.3221  -23.2124    1.6315 C.2       1 MOL     0.3092
      3 C         -65.9908  -23.7182    3.9930 C.ar      1 MOL     0.1404
      4 C         -66.0393  -22.6874    4.9074 C.ar      1 MOL     0.0468
      5 C         -65.3099  -22.6748    6.0798 C.ar      1 MOL     0.0037
      6 C         -64.4942  -23.7472    6.3478 C.ar      1 MOL     0.0009
      7 C         -64.4079  -24.8040    5.4679 C.ar      1 MOL     0.0131
      8 C         -65.1609  -24.7809    4.2930 C.ar      1 MOL     0.0397
      9 C         -65.0404  -25.9187    3.3894 C.2       1 MOL     0.0752
     10 O         -65.3371  -22.4169    1.7076 O.2       1 MOL    -0.2507
     11 O         -66.6951  -23.7723    2.8208 O.3       1 MOL    -0.4254
     12 O         -63.9384  -26.5025    3.2276 O.co2     1 MOL    -0.5445
     13 O         -66.1274  -26.3965    2.6770 O.co2     1 MOL    -0.5445
     14 H         -66.5486  -22.9571   -0.4398 H         1 MOL     0.0342
     15 H         -68.0416  -23.2248    0.4271 H         1 MOL     0.0342
     16 H         -66.9460  -24.5559    0.1439 H         1 MOL     0.0342
     17 H         -66.6529  -21.8830    4.7050 H         1 MOL     0.0654
     18 H         -65.3766  -21.8815    6.7374 H         1 MOL     0.0619
     19 H         -63.9390  -23.7618    7.2177 H         1 MOL     0.0618
     20 H         -63.7928  -25.6065    5.6761 H         1 MOL     0.0625
@<TRIPOS>BOND
     1    1    2 1 
     2    1   14 1 
     3    1   15 1 
     4    1   16 1 
     5    2   10 2 
     6    2   11 1 
     7    3    4 ar
     8    3    8 ar
     9    3   11 1 
    10    4    5 ar
    11    4   17 1 
    12    5    6 ar
    13    5   18 1 
    14    6    7 ar
    15    6   19 1 
    16    7    8 ar
    17    7   20 1 
    18    8    9 1 
    19    9   12 ar
    20    9   13 ar
@<TRIPOS>SUBSTRUCTURE
1 MOL         1
@<TRIPOS>MOLECULE
query molecule
   20    20     1     0     0
SMALL
NO_CHARGE

@<TRIPOS>ATOM
      1 C         -50.8134  -43.5684   -3.8562 C.3       1 MOL     0.1362
      2 C         -52.0837  -43.2391   -4.5510 C.2       1 MOL     0.3092
      3 C         -53.2445  -41.0993   -4.6772 C.ar      1 MOL     0.1404
      4 C         -54.4953  -40.6844   -5.0826 C.ar      1 MOL     0.0468
      5 C         -54.7363  -39.4614   -5.6768 C.ar      1 MOL     0.0037
      6 C         -53.6724  -38.6146   -5.8727 C.ar      1 MOL     0.0009
      7 C         -52.4010  -38.9796   -5.4867 C.ar      1 MOL     0.0131
      8 C         -52.1970  -40.2241   -4.8889 C.ar      1 MOL     0.0397
      9 C         -50.8366  -40.5711   -4.4956 C.2       1 MOL     0.0752
     10 O         -52.4414  -43.8096   -5.6259 O.2       1 MOL    -0.2507
     11 O         -52.9604  -42.3002   -4.0854 O.3       1 MOL    -0.4254
     12 O         -49.8554  -40.2634   -5.2195 O.co2     1 MOL    -0.5445
     13 O         -50.5738  -41.2506   -3.3180 O.co2     1 MOL    -0.5445
     14 H         -50.2955  -44.3287   -4.4027 H         1 MOL     0.0342
     15 H         -51.0283  -43.9222   -2.8696 H         1 MOL     0.0342
     16 H         -50.2027  -42.6923   -3.7959 H         1 MOL     0.0342
     17 H         -55.2934  -41.3212   -4.9341 H         1 MOL     0.0654
     18 H         -55.6900  -39.1906   -5.9649 H         1 MOL     0.0619
     19 H         -53.8264  -37.6947   -6.3145 H         1 MOL     0.0618
     20 H         -51.6065  -38.3379   -5.6370 H         1 MOL     0.0625
@<TRIPOS>BOND
     1    1    2 1 
     2    1   14 1 
     3    1   15 1 
     4    1   16 1 
     5    2   10 2 
     6    2   11 1 
     7    3    4 ar
     8    3    8 ar
     9    3   11 1 
    10    4    5 ar
    11    4   17 1 
    12    5    6 ar
    13    5   18 1 
    14    6    7 ar
    15    6   19 1 
    16    7    8 ar
    17    7   20 1 
    18    8    9 1 
    19    9   12 ar
    20    9   13 ar
@<TRIPOS>SUBSTRUCTURE
1 MOL         1
@<TRIPOS>MOLECULE
query molecule
   20    20     1     0     0
SMALL
NO_CHARGE

@<TRIPOS>ATOM
      1 C         -22.3493  -35.9468   21.3433 C.3       1 MOL     0.1362
      2 C         -22.5447  -35.7975   19.8789 C.2       1 MOL     0.3092
      3 C         -21.5713  -34.8842   17.8391 C.ar      1 MOL     0.1404
      4 C         -21.5256  -33.5107   17.7283 C.ar      1 MOL     0.0468
      5 C         -21.5907  -32.8417   16.5221 C.ar      1 MOL     0.0037
      6 C         -21.7063  -33.5859   15.3731 C.ar      1 MOL     0.0009
      7 C         -21.7569  -34.9617   15.4268 C.ar      1 MOL     0.0131
      8 C         -21.6879  -35.6023   16.6649 C.ar      1 MOL     0.0397
      9 C         -21.7448  -37.0591   16.6772 C.2       1 MOL     0.0752
     10 O         -23.6885  -35.8540   19.3337 O.2       1 MOL    -0.2507
     11 O         -21.5100  -35.5878   19.0115 O.3       1 MOL    -0.4254
     12 O         -20.7206  -37.7445   16.9277 O.co2     1 MOL    -0.5445
     13 O         -22.9211  -37.7405   16.4133 O.co2     1 MOL    -0.5445
     14 H         -23.2974  -36.1005   21.8150 H         1 MOL     0.0342
     15 H         -21.8961  -35.0601   21.7345 H         1 MOL     0.0342
     16 H         -21.7144  -36.7861   21.5344 H         1 MOL     0.0342
     17 H         -21.4379  -32.9533   18.5921 H         1 MOL     0.0654
     18 H         -21.5525  -31.8106   16.4848 H         1 MOL     0.0619
     19 H         -21.7565  -33.1094   14.4589 H         1 MOL     0.0618
     20 H         -21.8437  -35.5143   14.5591 H         1 MOL     0.0625
@<TRIPOS>BOND
     1    1    2 1 
     2    1   14 1 
     3    1   15 1 
     4    1   16 1 
     5    2   10 2 
     6    2   11 1 
     7    3    4 ar
     8    3    8 ar
     9    3   11 1 
    10    4    5 ar
    11    4   17 1 
    12    5    6 ar
    13    5   18 1 
    14    6    7 ar
    15    6   19 1 
    16    7    8 ar
    17    7   20 1 
    18    8    9 1 
    19    9   12 ar
    20    9   13 ar
@<TRIPOS>SUBSTRUCTURE
1 MOL         1
@<TRIPOS>MOLECULE
query molecule
   20    20     1     0     0
SMALL
NO_CHARGE

@<TRIPOS>ATOM
      1 C         -45.3926  -28.0942  -28.2343 C.3       1 MOL     0.1362
      2 C         -45.0820  -26.9187  -27.3819 C.2       1 MOL     0.3092
      3 C         -47.3982  -26.3888  -26.8376 C.ar      1 MOL     0.1404
      4 C         -48.1098  -27.2667  -26.0478 C.ar      1 MOL     0.0468
      5 C         -49.4741  -27.4518  -26.1537 C.ar      1 MOL     0.0037
      6 C         -50.1566  -26.7212  -27.0959 C.ar      1 MOL     0.0009
      7 C         -49.4944  -25.8301  -27.9119 C.ar      1 MOL     0.0131
      8 C         -48.1147  -25.6701  -27.7748 C.ar      1 MOL     0.0397
      9 C         -47.4528  -24.7172  -28.6577 C.2       1 MOL     0.0752
     10 O         -43.8952  -26.5257  -27.1675 O.2       1 MOL    -0.2507
     11 O         -46.0485  -26.1738  -26.7671 O.3       1 MOL    -0.4254
     12 O         -46.7715  -25.1098  -29.6391 O.co2     1 MOL    -0.5445
     13 O         -47.5464  -23.3512  -28.4502 O.co2     1 MOL    -0.5445
     14 H         -44.4817  -28.5149  -28.6062 H         1 MOL     0.0342
     15 H         -46.0047  -27.7866  -29.0561 H         1 MOL     0.0342
     16 H         -45.9146  -28.8264  -27.6551 H         1 MOL     0.0342
     17 H         -47.5960  -27.8141  -25.3401 H         1 MOL     0.0654
     18 H         -49.9677  -28.1202  -25.5408 H         1 MOL     0.0619
     19 H         -51.1769  -26.8412  -27.1946 H         1 MOL     0.0618
     20 H         -50.0140  -25.2844  -28.6176 H         1 MOL     0.0625
@<TRIPOS>BOND
     1    1    2 1 
     2    1   14 1 
     3    1   15 1 
     4    1   16 1 
     5    2   10 2 
     6    2   11 1 
     7    3    4 ar
     8    3    8 ar
     9    3   11 1 
    10    4    5 ar
    11    4   17 1 
    12    5    6 ar
    13    5   18 1 
    14    6    7 ar
    15    6   19 1 
    16    7    8 ar
    17    7   20 1 
    18    8    9 1 
    19    9   12 ar
    20    9   13 ar
@<TRIPOS>SUBSTRUCTURE
1 MOL         1
@<TRIPOS>MOLECULE
query molecule
   20    20     1     0     0
SMALL
NO_CHARGE

@<TRIPOS>ATOM
      1 C         -31.8343  -21.3231   19.5607 C.3       1 MOL     0.1362
      2 C         -32.9800  -21.6817   18.6869 C.2       1 MOL     0.3092
      3 C         -31.9159  -22.1911   16.5537 C.ar      1 MOL     0.1404
      4 C         -31.5152  -20.9531   16.0979 C.ar      1 MOL     0.0468
      5 C         -30.5805  -20.7762   15.0971 C.ar      1 MOL     0.0037
      6 C         -30.0208  -21.8941   14.5273 C.ar      1 MOL     0.0009
      7 C         -30.3857  -23.1554   14.9448 C.ar      1 MOL     0.0131
      8 C         -31.3338  -23.2940   15.9596 C.ar      1 MOL     0.0397
      9 C         -31.6916  -24.6460   16.3715 C.2       1 MOL     0.0752
     10 O         -34.1714  -21.3319   18.9457 O.2       1 MOL    -0.2507
     11 O         -32.8371  -22.4126   17.5413 O.3       1 MOL    -0.4254
     12 O         -32.7294  -25.2033   15.9311 O.co2     1 MOL    -0.5445
     13 O         -30.9086  -25.3639   17.2598 O.co2     1 MOL    -0.5445
     14 H         -32.1871  -20.7513   20.3934 H         1 MOL     0.0342
     15 H         -31.1289  -20.7432   19.0032 H         1 MOL     0.0342
     16 H         -31.3624  -22.2157   19.9139 H         1 MOL     0.0342
     17 H         -31.9359  -20.1145   16.5273 H         1 MOL     0.0654
     18 H         -30.3089  -19.8298   14.7863 H         1 MOL     0.0619
     19 H         -29.3195  -21.7885   13.7775 H         1 MOL     0.0618
     20 H         -29.9608  -23.9908   14.5120 H         1 MOL     0.0625
@<TRIPOS>BOND
     1    1    2 1 
     2    1   14 1 
     3    1   15 1 
     4    1   16 1 
     5    2   10 2 
     6    2   11 1 
     7    3    4 ar
     8    3    8 ar
     9    3   11 1 
    10    4    5 ar
    11    4   17 1 
    12    5    6 ar
    13    5   18 1 
    14    6    7 ar
    15    6   19 1 
    16    7    8 ar
    17    7   20 1 
    18    8    9 1 
    19    9   12 ar
    20    9   13 ar
@<TRIPOS>SUBSTRUCTURE
1 MOL         1
@<TRIPOS>MOLECULE
query molecule
   20    20     1     0     0
SMALL
NO_CHARGE

@<TRIPOS>ATOM
      1 C          -9.9193  -77.0159   19.2199 C.3       1 MOL     0.1362
      2 C          -8.4889  -76.6176   19.2266 C.2       1 MOL     0.3092
      3 C          -6.7350  -75.0966   19.9701 C.ar      1 MOL     0.1404
      4 C          -6.2606  -74.1790   19.0569 C.ar      1 MOL     0.0468
      5 C          -4.9664  -73.6976   19.0635 C.ar      1 MOL     0.0037
      6 C          -4.1081  -74.1579   20.0324 C.ar      1 MOL     0.0009
      7 C          -4.5302  -75.0757   20.9694 C.ar      1 MOL     0.0131
      8 C          -5.8462  -75.5388   20.9307 C.ar      1 MOL     0.0397
      9 C          -6.2521  -76.5093   21.9402 C.2       1 MOL     0.0752
     10 O          -7.6159  -77.1963   18.5113 O.2       1 MOL    -0.2507
     11 O          -8.0073  -75.5999   20.0009 O.3       1 MOL    -0.4254
     12 O          -5.5729  -77.5466   22.1505 O.co2     1 MOL    -0.5445
     13 O          -7.3953  -76.3289   22.7005 O.co2     1 MOL    -0.5445
     14 H         -10.0587  -77.8305   18.5401 H         1 MOL     0.0342
     15 H         -10.5188  -76.1860   18.9095 H         1 MOL     0.0342
     16 H         -10.2098  -77.3176   20.2041 H         1 MOL     0.0342
     17 H          -6.9067  -73.8337   18.3304 H         1 MOL     0.0654
     18 H          -4.6529  -73.0098   18.3602 H         1 MOL     0.0619
     19 H          -3.1357  -73.8131   20.0589 H         1 MOL     0.0618
     20 H          -3.8795  -75.4169   21.6945 H         1 MOL     0.0625
@<TRIPOS>BOND
     1    1    2 1 
     2    1   14 1 
     3    1   15 1 
     4    1   16 1 
     5    2   10 2 
     6    2   11 1 
     7    3    4 ar
     8    3    8 ar
     9    3   11 1 
    10    4    5 ar
    11    4   17 1 
    12    5    6 ar
    13    5   18 1 
    14    6    7 ar
    15    6   19 1 
    16    7    8 ar
    17    7   20 1 
    18    8    9 1 
    19    9   12 ar
    20    9   13 ar
@<TRIPOS>SUBSTRUCTURE
1 MOL         1
@<TRIPOS>MOLECULE
query molecule
   20    20     1     0     0
SMALL
NO_CHARGE

@<TRIPOS>ATOM
      1 C         -41.9379  -57.6129  -17.2480 C.3       1 MOL     0.1362
      2 C         -43.0416  -57.0502  -18.0666 C.2       1 MOL     0.3092
      3 C         -45.2262  -57.6636  -18.9573 C.ar      1 MOL     0.1404
      4 C         -46.1668  -57.9477  -17.9900 C.ar      1 MOL     0.0468
      5 C         -47.5237  -57.7665  -18.1711 C.ar      1 MOL     0.0037
      6 C         -47.9571  -57.2765  -19.3792 C.ar      1 MOL     0.0009
      7 C         -47.0597  -56.9764  -20.3807 C.ar      1 MOL     0.0131
      8 C         -45.6956  -57.1727  -20.1601 C.ar      1 MOL     0.0397
      9 C         -44.7801  -56.8426  -21.2457 C.2       1 MOL     0.0752
     10 O         -43.2854  -55.8067  -18.1209 O.2       1 MOL    -0.2507
     11 O         -43.8743  -57.8274  -18.8212 O.3       1 MOL    -0.4254
     12 O         -43.5729  -56.5761  -21.0156 O.co2     1 MOL    -0.5445
     13 O         -45.2022  -56.8079  -22.5642 O.co2     1 MOL    -0.5445
     14 H         -41.4247  -56.8182  -16.7480 H         1 MOL     0.0342
     15 H         -41.2536  -58.1351  -17.8832 H         1 MOL     0.0342
     16 H         -42.3405  -58.2899  -16.5242 H         1 MOL     0.0342
     17 H         -45.8396  -58.3149  -17.0830 H         1 MOL     0.0654
     18 H         -48.1939  -57.9921  -17.4188 H         1 MOL     0.0619
     19 H         -48.9664  -57.1319  -19.5391 H         1 MOL     0.0618
     20 H         -47.3929  -56.6085  -21.2858 H         1 MOL     0.0625
@<TRIPOS>BOND
     1    1    2 1 
     2    1   14 1 
     3    1   15 1 
     4    1   16 1 
     5    2   10 2 
     6    2   11 1 
     7    3    4 ar
     8    3    8 ar
     9    3   11 1 
    10    4    5 ar
    11    4   17 1 
    12    5    6 ar
    13    5   18 1 
    14    6    7 ar
    15    6   19 1 
    16    7    8 ar
    17    7   20 1 
    18    8    9 1 
    19    9   12 ar
    20    9   13 ar
@<TRIPOS>SUBSTRUCTURE
1 MOL         1
@<TRIPOS>MOLECULE
query molecule
   20    20     1     0     0
SMALL
NO_CHARGE

@<TRIPOS>ATOM
      1 C         -14.7637  -69.0080  -18.0489 C.3       1 MOL     0.1362
      2 C         -13.8339  -68.1928  -17.2269 C.2       1 MOL     0.3092
      3 C         -15.4395  -67.4189  -15.5640 C.ar      1 MOL     0.1404
      4 C         -15.9880  -68.5827  -15.0684 C.ar      1 MOL     0.0468
      5 C         -17.1791  -68.6263  -14.3711 C.ar      1 MOL     0.0037
      6 C         -17.8509  -67.4466  -14.1604 C.ar      1 MOL     0.0009
      7 C         -17.3476  -66.2548  -14.6345 C.ar      1 MOL     0.0131
      8 C         -16.1404  -66.2508  -15.3348 C.ar      1 MOL     0.0397
      9 C         -15.6432  -64.9687  -15.8192 C.2       1 MOL     0.0752
     10 O         -12.5745  -68.2428  -17.3691 O.2       1 MOL    -0.2507
     11 O         -14.2640  -67.3294  -16.2592 O.3       1 MOL    -0.4254
     12 O         -16.2364  -64.3508  -16.7400 O.co2     1 MOL    -0.5445
     13 O         -14.5044  -64.3860  -15.2889 O.co2     1 MOL    -0.5445
     14 H         -14.2013  -69.6043  -18.7368 H         1 MOL     0.0342
     15 H         -15.4201  -68.3608  -18.5920 H         1 MOL     0.0342
     16 H         -15.3387  -69.6451  -17.4104 H         1 MOL     0.0342
     17 H         -15.4819  -69.4677  -15.2268 H         1 MOL     0.0654
     18 H         -17.5538  -69.5208  -14.0169 H         1 MOL     0.0619
     19 H         -18.7431  -67.4526  -13.6417 H         1 MOL     0.0618
     20 H         -17.8580  -65.3723  -14.4722 H         1 MOL     0.0625
@<TRIPOS>BOND
     1    1    2 1 
     2    1   14 1 
     3    1   15 1 
     4    1   16 1 
     5    2   10 2 
     6    2   11 1 
     7    3    4 ar
     8    3    8 ar
     9    3   11 1 
    10    4    5 ar
    11    4   17 1 
    12    5    6 ar
    13    5   18 1 
    14    6    7 ar
    15    6   19 1 
    16    7    8 ar
    17    7   20 1 
    18    8    9 1 
    19    9   12 ar
    20    9   13 ar
@<TRIPOS>SUBSTRUCTURE
1 MOL         1
@<TRIPOS>MOLECULE
query molecule
   20    20     1     0     0
SMALL
NO_CHARGE

@<TRIPOS>ATOM
      1 C         -73.8705  -63.9216   14.5446 C.3       1 MOL     0.1362
      2 C         -72.9405  -64.0103   15.6988 C.2       1 MOL     0.3092
      3 C         -72.4057  -64.8850   17.9104 C.ar      1 MOL     0.1404
      4 C         -72.2953  -64.0055   18.9664 C.ar      1 MOL     0.0468
      5 C         -71.4515  -64.2078   20.0406 C.ar      1 MOL     0.0037
      6 C         -70.6830  -65.3464   20.0562 C.ar      1 MOL     0.0009
      7 C         -70.7539  -66.2586   19.0260 C.ar      1 MOL     0.0131
      8 C         -71.6192  -66.0196   17.9573 C.ar      1 MOL     0.0397
      9 C         -71.6638  -67.0098   16.8881 C.2       1 MOL     0.0752
     10 O         -71.8148  -63.4262   15.7146 O.2       1 MOL    -0.2507
     11 O         -73.2272  -64.7249   16.8275 O.3       1 MOL    -0.4254
     12 O         -70.6093  -67.4072   16.3300 O.co2     1 MOL    -0.5445
     13 O         -72.8617  -67.5463   16.4469 O.co2     1 MOL    -0.5445
     14 H         -73.4344  -63.3105   13.7822 H         1 MOL     0.0342
     15 H         -74.7946  -63.4876   14.8642 H         1 MOL     0.0342
     16 H         -74.0520  -64.9020   14.1570 H         1 MOL     0.0342
     17 H         -72.8737  -63.1512   18.9535 H         1 MOL     0.0654
     18 H         -71.4004  -63.5226   20.8112 H         1 MOL     0.0619
     19 H         -70.0445  -65.5208   20.8482 H         1 MOL     0.0618
     20 H         -70.1734  -67.1121   19.0448 H         1 MOL     0.0625
@<TRIPOS>BOND
     1    1    2 1 
     2    1   14 1 
     3    1   15 1 
     4    1   16 1 
     5    2   10 2 
     6    2   11 1 
     7    3    4 ar
     8    3    8 ar
     9    3   11 1 
    10    4    5 ar
    11    4   17 1 
    12    5    6 ar
    13    5   18 1 
    14    6    7 ar
    15    6   19 1 
    16    7    8 ar
    17    7   20 1 
    18    8    9 1 
    19    9   12 ar
    20    9   13 ar
@<TRIPOS>SUBSTRUCTURE
1 MOL         1
@<TRIPOS>MOLECULE
query molecule
   20    20     1     0     0
SMALL
NO_CHARGE

@<TRIPOS>ATOM
      1 C         -50.4795  -28.4759   -5.1858 C.3       1 MOL     0.1362
      2 C         -49.4164  -29.1996   -4.4437 C.2       1 MOL     0.3092
      3 C         -47.8478  -27.4077   -3.9231 C.ar      1 MOL     0.1404
      4 C         -48.4244  -26.1610   -4.0429 C.ar      1 MOL     0.0468
      5 C         -47.7095  -25.0167   -4.3367 C.ar      1 MOL     0.0037
      6 C         -46.3523  -25.1284   -4.5179 C.ar      1 MOL     0.0009
      7 C         -45.7253  -26.3506   -4.4100 C.ar      1 MOL     0.0131
      8 C         -46.4816  -27.4849   -4.1114 C.ar      1 MOL     0.0397
      9 C         -45.7792  -28.7582   -4.0062 C.2       1 MOL     0.0752
     10 O         -49.2713  -30.4577   -4.5128 O.2       1 MOL    -0.2507
     11 O         -48.5165  -28.5662   -3.6337 O.3       1 MOL    -0.4254
     12 O         -44.6429  -28.9148   -4.5217 O.co2     1 MOL    -0.5445
     13 O         -46.3334  -29.8386   -3.3406 O.co2     1 MOL    -0.5445
     14 H         -51.0587  -29.1759   -5.7510 H         1 MOL     0.0342
     15 H         -50.0311  -27.7664   -5.8492 H         1 MOL     0.0342
     16 H         -51.1134  -27.9647   -4.4921 H         1 MOL     0.0342
     17 H         -49.4436  -26.0787   -3.9058 H         1 MOL     0.0654
     18 H         -48.1820  -24.1022   -4.4169 H         1 MOL     0.0619
     19 H         -45.7956  -24.2877   -4.7381 H         1 MOL     0.0618
     20 H         -44.7049  -26.4267   -4.5474 H         1 MOL     0.0625
@<TRIPOS>BOND
     1    1    2 1 
     2    1   14 1 
     3    1   15 1 
     4    1   16 1 
     5    2   10 2 
     6    2   11 1 
     7    3    4 ar
     8    3    8 ar
     9    3   11 1 
    10    4    5 ar
    11    4   17 1 
    12    5    6 ar
    13    5   18 1 
    14    6    7 ar
    15    6   19 1 
    16    7    8 ar
    17    7   20 1 
    18    8    9 1 
    19    9   12 ar
    20    9   13 ar
@<TRIPOS>SUBSTRUCTURE
1 MOL         1
@<TRIPOS>MOLECULE
query molecule
   20    20     1     0     0
SMALL
NO_CHARGE

@<TRIPOS>ATOM
      1 C          -5.3408  -79.2022    0.2272 C.3       1 MOL     0.1362
      2 C          -4.8218  -78.2505   -0.7876 C.2       1 MOL     0.3092
      3 C          -2.5577  -78.5486   -1.6404 C.ar      1 MOL     0.1404
      4 C          -2.5737  -78.6456   -3.0156 C.ar      1 MOL     0.0468
      5 C          -1.5988  -79.2978   -3.7442 C.ar      1 MOL     0.0037
      6 C          -0.5585  -79.8793   -3.0609 C.ar      1 MOL     0.0009
      7 C          -0.4937  -79.8126   -1.6862 C.ar      1 MOL     0.0131
      8 C          -1.4979  -79.1442   -0.9844 C.ar      1 MOL     0.0397
      9 C          -1.3914  -79.0970    0.4689 C.2       1 MOL     0.0752
     10 O          -5.5722  -77.6848   -1.6394 O.2       1 MOL    -0.2507
     11 O          -3.5009  -77.9131   -0.8791 O.3       1 MOL    -0.4254
     12 O          -1.2771  -78.0005    1.0740 O.co2     1 MOL    -0.5445
     13 O          -1.4097  -80.2506    1.2346 O.co2     1 MOL    -0.5445
     14 H          -6.3986  -79.3092    0.1067 H         1 MOL     0.0342
     15 H          -5.1295  -78.8285    1.2071 H         1 MOL     0.0342
     16 H          -4.8681  -80.1532    0.0985 H         1 MOL     0.0342
     17 H          -3.3553  -78.2077   -3.5274 H         1 MOL     0.0654
     18 H          -1.6499  -79.3461   -4.7743 H         1 MOL     0.0619
     19 H           0.1830  -80.3724   -3.5827 H         1 MOL     0.0618
     20 H           0.2912  -80.2519   -1.1797 H         1 MOL     0.0625
@<TRIPOS>BOND
     1    1    2 1 
     2    1   14 1 
     3    1   15 1 
     4    1   16 1 
     5    2   10 2 
     6    2   11 1 
     7    3    4 ar
     8    3    8 ar
     9    3   11 1 
    10    4    5 ar
    11    4   17 1 
    12    5    6 ar
    13    5   18 1 
    14    6    7 ar
    15    6   19 1 
    16    7    8 ar
    17    7   20 1 
    18    8    9 1 
    19    9   12 ar
    20    9   13 ar
@<TRIPOS>SUBSTRUCTURE
1 MOL         1
@<TRIPOS>MOLECULE
query molecule
   20    20     1     0     0
SMALL
NO_CHARGE

@<TRIPOS>ATOM
      1 C         -19.5155  -51.2081  -21.0308 C.3       1 MOL     0.1362
      2 C         -18.2631  -50.4174  -20.9256 C.2       1 MOL     0.3092
      3 C         -16.9753  -48.7251  -22.1173 C.ar      1 MOL     0.1404
      4 C         -17.1602  -47.6624  -21.2586 C.ar      1 MOL     0.0468
      5 C         -16.5137  -46.4501  -21.3973 C.ar      1 MOL     0.0037
      6 C         -15.6400  -46.2973  -22.4464 C.ar      1 MOL     0.0009
      7 C         -15.4184  -47.3272  -23.3346 C.ar      1 MOL     0.0131
      8 C         -16.0903  -48.5381  -23.1613 C.ar      1 MOL     0.0397
      9 C         -15.8273  -49.6017  -24.1232 C.2       1 MOL     0.0752
     10 O         -17.7288  -50.1302  -19.8117 O.2       1 MOL    -0.2507
     11 O         -17.5937  -49.9420  -22.0178 O.3       1 MOL    -0.4254
     12 O         -14.9511  -50.4754  -23.8982 O.co2     1 MOL    -0.5445
     13 O         -16.5261  -49.6896  -25.3154 O.co2     1 MOL    -0.5445
     14 H         -19.8548  -51.4696  -20.0502 H         1 MOL     0.0342
     15 H         -19.3283  -52.0990  -21.5927 H         1 MOL     0.0342
     16 H         -20.2644  -50.6255  -21.5248 H         1 MOL     0.0342
     17 H         -17.8161  -47.7790  -20.4708 H         1 MOL     0.0654
     18 H         -16.6816  -45.6802  -20.7303 H         1 MOL     0.0619
     19 H         -15.1441  -45.4009  -22.5717 H         1 MOL     0.0618
     20 H         -14.7603  -47.2050  -24.1205 H         1 MOL     0.0625
@<TRIPOS>BOND
     1    1    2 1 
     2    1   14 1 
     3    1   15 1 
     4    1   16 1 
     5    2   10 2 
     6    2   11 1 
     7    3    4 ar
     8    3    8 ar
     9    3   11 1 
    10    4    5 ar
    11    4   17 1 
    12    5    6 ar
    13    5   18 1 
    14    6    7 ar
    15    6   19 1 
    16    7    8 ar
    17    7   20 1 
    18    8    9 1 
    19    9   12 ar
    20    9   13 ar
@<TRIPOS>SUBSTRUCTURE
1 MOL         1
@<TRIPOS>MOLECULE
query molecule
   20    20     1     0     0
SMALL
NO_CHARGE

@<TRIPOS>ATOM
      1 C         -65.2869  -34.4713   17.9766 C.3       1 MOL     0.1362
      2 C         -63.8340  -34.4883   18.2827 C.2       1 MOL     0.3092
      3 C         -62.8869  -35.6356   16.3516 C.ar      1 MOL     0.1404
      4 C         -63.6799  -35.6240   15.2238 C.ar      1 MOL     0.0468
      5 C         -63.6562  -36.6186   14.2662 C.ar      1 MOL     0.0037
      6 C         -62.7957  -37.6740   14.4484 C.ar      1 MOL     0.0009
      7 C         -61.9813  -37.7356   15.5581 C.ar      1 MOL     0.0131
      8 C         -62.0334  -36.7109   16.5042 C.ar      1 MOL     0.0397
      9 C         -61.1551  -36.8147   17.6633 C.2       1 MOL     0.0752
     10 O         -63.3822  -34.3330   19.4576 O.2       1 MOL    -0.2507
     11 O         -62.8776  -34.6730   17.3245 O.3       1 MOL    -0.4254
     12 O         -59.9605  -37.1873   17.5386 O.co2     1 MOL    -0.5445
     13 O         -61.6001  -36.5110   18.9390 O.co2     1 MOL    -0.5445
     14 H         -65.8390  -34.3133   18.8795 H         1 MOL     0.0342
     15 H         -65.5709  -35.4078   17.5443 H         1 MOL     0.0342
     16 H         -65.4964  -33.6815   17.2863 H         1 MOL     0.0342
     17 H         -64.3250  -34.8304   15.0880 H         1 MOL     0.0654
     18 H         -64.2676  -36.5698   13.4357 H         1 MOL     0.0619
     19 H         -62.7590  -38.4300   13.7468 H         1 MOL     0.0618
     20 H         -61.3371  -38.5317   15.6881 H         1 MOL     0.0625
@<TRIPOS>BOND
     1    1    2 1 
     2    1   14 1 
     3    1   15 1 
     4    1   16 1 
     5    2   10 2 
     6    2   11 1 
     7    3    4 ar
     8    3    8 ar
     9    3   11 1 
    10    4    5 ar
    11    4   17 1 
    12    5    6 ar
    13    5   18 1 
    14    6    7 ar
    15    6   19 1 
    16    7    8 ar
    17    7   20 1 
    18    8    9 1 
    19    9   12 ar
    20    9   13 ar
@<TRIPOS>SUBSTRUCTURE
1 MOL         1
@<TRIPOS>MOLECULE
query molecule
   20    20     1     0     0
SMALL
NO_CHARGE

@<TRIPOS>ATOM
      1 C         -18.8752  -32.2305   27.0670 C.3       1 MOL     0.1362
      2 C         -19.9294  -32.6124   28.0405 C.2       1 MOL     0.3092
      3 C         -21.7359  -31.4052   26.9353 C.ar      1 MOL     0.1404
      4 C         -21.6703  -30.0282   26.9130 C.ar      1 MOL     0.0468
      5 C         -22.1966  -29.2573   25.8953 C.ar      1 MOL     0.0037
      6 C         -22.8172  -29.8983   24.8507 C.ar      1 MOL     0.0009
      7 C         -22.9112  -31.2727   24.8232 C.ar      1 MOL     0.0131
      8 C         -22.3666  -32.0179   25.8700 C.ar      1 MOL     0.0397
      9 C         -22.4877  -33.4693   25.8020 C.2       1 MOL     0.0752
     10 O         -19.6933  -33.3415   29.0511 O.2       1 MOL    -0.2507
     11 O         -21.2290  -32.2075   27.9214 O.3       1 MOL    -0.4254
     12 O         -21.4726  -34.2075   25.8799 O.co2     1 MOL    -0.5445
     13 O         -23.7172  -34.0874   25.6478 O.co2     1 MOL    -0.5445
     14 H         -17.9423  -32.6613   27.3653 H         1 MOL     0.0342
     15 H         -18.7836  -31.1649   27.0408 H         1 MOL     0.0342
     16 H         -19.1407  -32.5897   26.0951 H         1 MOL     0.0342
     17 H         -21.2032  -29.5483   27.6979 H         1 MOL     0.0654
     18 H         -22.1247  -28.2276   25.9186 H         1 MOL     0.0619
     19 H         -23.2184  -29.3445   24.0777 H         1 MOL     0.0618
     20 H         -23.3789  -31.7473   24.0347 H         1 MOL     0.0625
@<TRIPOS>BOND
     1    1    2 1 
     2    1   14 1 
     3    1   15 1 
     4    1   16 1 
     5    2   10 2 
     6    2   11 1 
     7    3    4 ar
     8    3    8 ar
     9    3   11 1 
    10    4    5 ar
    11    4   17 1 
    12    5    6 ar
    13    5   18 1 
    14    6    7 ar
    15    6   19 1 
    16    7    8 ar
    17    7   20 1 
    18    8    9 1 
    19    9   12 ar
    20    9   13 ar
@<TRIPOS>SUBSTRUCTURE
1 MOL         1
@<TRIPOS>MOLECULE
query molecule
   20    20     1     0     0
SMALL
NO_CHARGE

@<TRIPOS>ATOM
      1 C         -35.0325  -29.9167  -25.2707 C.3       1 MOL     0.1362
      2 C         -34.0998  -29.0500  -26.0347 C.2       1 MOL     0.3092
      3 C         -31.8181  -28.4109  -26.6071 C.ar      1 MOL     0.1404
      4 C         -31.3987  -27.1161  -26.3865 C.ar      1 MOL     0.0468
      5 C         -30.4585  -26.4766  -27.1699 C.ar      1 MOL     0.0037
      6 C         -29.9130  -27.1689  -28.2237 C.ar      1 MOL     0.0009
      7 C         -30.2968  -28.4652  -28.4893 C.ar      1 MOL     0.0131
      8 C         -31.2499  -29.0784  -27.6747 C.ar      1 MOL     0.0397
      9 C         -31.6279  -30.4506  -27.9903 C.2       1 MOL     0.0752
     10 O         -34.4992  -28.2181  -26.9049 O.2       1 MOL    -0.2507
     11 O         -32.7454  -29.0828  -25.8575 O.3       1 MOL    -0.4254
     12 O         -32.5411  -30.6958  -28.8194 O.co2     1 MOL    -0.5445
     13 O         -31.0014  -31.5308  -27.3916 O.co2     1 MOL    -0.5445
     14 H         -36.0376  -29.7152  -25.5773 H         1 MOL     0.0342
     15 H         -34.9314  -29.7141  -24.2250 H         1 MOL     0.0342
     16 H         -34.7999  -30.9436  -25.4592 H         1 MOL     0.0342
     17 H         -31.8088  -26.5978  -25.5943 H         1 MOL     0.0654
     18 H         -30.1727  -25.5050  -26.9685 H         1 MOL     0.0619
     19 H         -29.2080  -26.7130  -28.8240 H         1 MOL     0.0618
     20 H         -29.8823  -28.9792  -29.2829 H         1 MOL     0.0625
@<TRIPOS>BOND
     1    1    2 1 
     2    1   14 1 
     3    1   15 1 
     4    1   16 1 
     5    2   10 2 
     6    2   11 1 
     7    3    4 ar
     8    3    8 ar
     9    3   11 1 
    10    4    5 ar
    11    4   17 1 
    12    5    6 ar
    13    5   18 1 
    14    6    7 ar
    15    6   19 1 
    16    7    8 ar
    17    7   20 1 
    18    8    9 1 
    19    9   12 ar
    20    9   13 ar
@<TRIPOS>SUBSTRUCTURE
1 MOL         1
@<TRIPOS>MOLECULE
query molecule
   20    20     1     0     0
SMALL
NO_CHARGE

@<TRIPOS>ATOM
      1 C         -34.2384  -19.5588   22.0987 C.3       1 MOL     0.1362
      2 C         -32.8157  -19.3911   22.4892 C.2       1 MOL     0.3092
      3 C         -30.5881  -20.3347   22.7882 C.ar      1 MOL     0.1404
      4 C         -29.5592  -19.8741   21.9943 C.ar      1 MOL     0.0468
      5 C         -28.2433  -19.8194   22.4093 C.ar      1 MOL     0.0037
      6 C         -27.9459  -20.2463   23.6807 C.ar      1 MOL     0.0009
      7 C         -28.9358  -20.7166   24.5157 C.ar      1 MOL     0.0131
      8 C         -30.2546  -20.7563   24.0607 C.ar      1 MOL     0.0397
      9 C         -31.2714  -21.2608   24.9758 C.2       1 MOL     0.0752
     10 O         -32.3503  -18.2912   22.9164 O.2       1 MOL    -0.2507
     11 O         -31.9039  -20.4063   22.4188 O.3       1 MOL    -0.4254
     12 O         -31.6630  -22.4542   24.9135 O.co2     1 MOL    -0.5445
     13 O         -31.8434  -20.4500   25.9417 O.co2     1 MOL    -0.5445
     14 H         -34.7575  -18.6336   22.2389 H         1 MOL     0.0342
     15 H         -34.6880  -20.3155   22.7068 H         1 MOL     0.0342
     16 H         -34.2940  -19.8478   21.0703 H         1 MOL     0.0342
     17 H         -29.7844  -19.5531   21.0400 H         1 MOL     0.0654
     18 H         -27.5035  -19.4665   21.7814 H         1 MOL     0.0619
     19 H         -26.9698  -20.2151   24.0146 H         1 MOL     0.0618
     20 H         -28.7047  -21.0355   25.4700 H         1 MOL     0.0625
@<TRIPOS>BOND
     1    1    2 1 
     2    1   14 1 
     3    1   15 1 
     4    1   16 1 
     5    2   10 2 
     6    2   11 1 
     7    3    4 ar
     8    3    8 ar
     9    3   11 1 
    10    4    5 ar
    11    4   17 1 
    12    5    6 ar
    13    5   18 1 
    14    6    7 ar
    15    6   19 1 
    16    7    8 ar
    17    7   20 1 
    18    8    9 1 
    19    9   12 ar
    20    9   13 ar
@<TRIPOS>SUBSTRUCTURE
1 MOL         1
@<TRIPOS>MOLECULE
query molecule
   20    20     1     0     0
SMALL
NO_CHARGE

@<TRIPOS>ATOM
      1 C          -4.5228  -35.4461   14.3509 C.3       1 MOL     0.1362
      2 C          -4.8637  -35.4760   12.9060 C.2       1 MOL     0.3092
      3 C          -6.2766  -36.2978   11.0975 C.ar      1 MOL     0.1404
      4 C          -5.8099  -37.1063   10.0830 C.ar      1 MOL     0.0468
      5 C          -6.2999  -37.0683    8.7926 C.ar      1 MOL     0.0037
      6 C          -7.3061  -36.1777    8.5069 C.ar      1 MOL     0.0009
      7 C          -7.8091  -35.3459    9.4834 C.ar      1 MOL     0.0131
      8 C          -7.2884  -35.4138   10.7765 C.ar      1 MOL     0.0397
      9 C          -7.8487  -34.5164   11.7797 C.2       1 MOL     0.0752
     10 O          -4.2866  -34.7355   12.0531 O.2       1 MOL    -0.2507
     11 O          -5.8212  -36.3018   12.3882 O.3       1 MOL    -0.4254
     12 O          -7.9599  -33.2840   11.5555 O.co2     1 MOL    -0.5445
     13 O          -8.2756  -34.9829   13.0116 O.co2     1 MOL    -0.5445
     14 H          -3.7484  -34.7270   14.5191 H         1 MOL     0.0342
     15 H          -4.1836  -36.4134   14.6571 H         1 MOL     0.0342
     16 H          -5.3900  -35.1766   14.9161 H         1 MOL     0.0342
     17 H          -5.0547  -37.7752   10.2994 H         1 MOL     0.0654
     18 H          -5.9211  -37.6928    8.0629 H         1 MOL     0.0619
     19 H          -7.6896  -36.1302    7.5499 H         1 MOL     0.0618
     20 H          -8.5654  -34.6792    9.2613 H         1 MOL     0.0625
@<TRIPOS>BOND
     1    1    2 1 
     2    1   14 1 
     3    1   15 1 
     4    1   16 1 
     5    2   10 2 
     6    2   11 1 
     7    3    4 ar
     8    3    8 ar
     9    3   11 1 
    10    4    5 ar
    11    4   17 1 
    12    5    6 ar
    13    5   18 1 
    14    6    7 ar
    15    6   19 1 
    16    7    8 ar
    17    7   20 1 
    18    8    9 1 
    19    9   12 ar
    20    9   13 ar
@<TRIPOS>SUBSTRUCTURE
1 MOL         1
@<TRIPOS>MOLECULE
query molecule
   20    20     1     0     0
SMALL
NO_CHARGE

@<TRIPOS>ATOM
      1 C         -72.1863  -27.1984  -20.9187 C.3       1 MOL     0.1362
      2 C         -71.4733  -25.9076  -20.7450 C.2       1 MOL     0.3092
      3 C         -70.7085  -25.7346  -23.0531 C.ar      1 MOL     0.1404
      4 C         -71.6223  -25.4808  -24.0538 C.ar      1 MOL     0.0468
      5 C         -71.4874  -25.9507  -25.3452 C.ar      1 MOL     0.0037
      6 C         -70.3833  -26.7105  -25.6469 C.ar      1 MOL     0.0009
      7 C         -69.4392  -26.9948  -24.6844 C.ar      1 MOL     0.0131
      8 C         -69.6101  -26.5016  -23.3900 C.ar      1 MOL     0.0397
      9 C         -68.5881  -26.8255  -22.4019 C.2       1 MOL     0.0752
     10 O         -71.4387  -25.2907  -19.6373 O.2       1 MOL    -0.2507
     11 O         -70.8020  -25.2898  -21.7622 O.3       1 MOL    -0.4254
     12 O         -68.1623  -28.0017  -22.2732 O.co2     1 MOL    -0.5445
     13 O         -68.0514  -25.8569  -21.5704 O.co2     1 MOL    -0.5445
     14 H         -72.6339  -27.4855  -19.9902 H         1 MOL     0.0342
     15 H         -71.4911  -27.9508  -21.2271 H         1 MOL     0.0342
     16 H         -72.9464  -27.0882  -21.6632 H         1 MOL     0.0342
     17 H         -72.4506  -24.9094  -23.8259 H         1 MOL     0.0654
     18 H         -72.1964  -25.7361  -26.0644 H         1 MOL     0.0619
     19 H         -70.2593  -27.0733  -26.6051 H         1 MOL     0.0618
     20 H         -68.6120  -27.5662  -24.9185 H         1 MOL     0.0625
@<TRIPOS>BOND
     1    1    2 1 
     2    1   14 1 
     3    1   15 1 
     4    1   16 1 
     5    2   10 2 
     6    2   11 1 
     7    3    4 ar
     8    3    8 ar
     9    3   11 1 
    10    4    5 ar
    11    4   17 1 
    12    5    6 ar
    13    5   18 1 
    14    6    7 ar
    15    6   19 1 
    16    7    8 ar
    17    7   20 1 
    18    8    9 1 
    19    9   12 ar
    20    9   13 ar
@<TRIPOS>SUBSTRUCTURE
1 MOL         1
@<TRIPOS>MOLECULE
query molecule
   20    20     1     0     0
SMALL
NO_CHARGE

@<TRIPOS>ATOM
      1 C         -59.4688  -65.6722   28.6903 C.3       1 MOL     0.1362
      2 C         -58.3435  -64.7200   28.8690 C.2       1 MOL     0.3092
      3 C         -56.5197  -63.4228   27.9031 C.ar      1 MOL     0.1404
      4 C         -56.4811  -62.0540   28.0638 C.ar      1 MOL     0.0468
      5 C         -55.3082  -61.3297   28.1444 C.ar      1 MOL     0.0037
      6 C         -54.1181  -62.0109   28.0606 C.ar      1 MOL     0.0009
      7 C         -54.0993  -63.3791   27.8993 C.ar      1 MOL     0.0131
      8 C         -55.3056  -64.0768   27.8223 C.ar      1 MOL     0.0397
      9 C         -55.2411  -65.5233   27.6516 C.2       1 MOL     0.0752
     10 O         -57.9426  -64.3441   30.0122 O.2       1 MOL    -0.2507
     11 O         -57.6568  -64.1797   27.8186 O.3       1 MOL    -0.4254
     12 O         -55.4784  -66.0544   26.5367 O.co2     1 MOL    -0.5445
     13 O         -54.9202  -66.3636   28.7045 O.co2     1 MOL    -0.5445
     14 H         -59.8483  -65.9587   29.6488 H         1 MOL     0.0342
     15 H         -59.1218  -66.5403   28.1702 H         1 MOL     0.0342
     16 H         -60.2455  -65.2035   28.1235 H         1 MOL     0.0342
     17 H         -57.3757  -61.5439   28.1273 H         1 MOL     0.0654
     18 H         -55.3253  -60.3044   28.2653 H         1 MOL     0.0619
     19 H         -53.2277  -61.4923   28.1184 H         1 MOL     0.0618
     20 H         -53.2011  -63.8842   27.8373 H         1 MOL     0.0625
@<TRIPOS>BOND
     1    1    2 1 
     2    1   14 1 
     3    1   15 1 
     4    1   16 1 
     5    2   10 2 
     6    2   11 1 
     7    3    4 ar
     8    3    8 ar
     9    3   11 1 
    10    4    5 ar
    11    4   17 1 
    12    5    6 ar
    13    5   18 1 
    14    6    7 ar
    15    6   19 1 
    16    7    8 ar
    17    7   20 1 
    18    8    9 1 
    19    9   12 ar
    20    9   13 ar
@<TRIPOS>SUBSTRUCTURE
1 MOL         1
@<TRIPOS>MOLECULE
query molecule
   20    20     1     0     0
SMALL
NO_CHARGE

@<TRIPOS>ATOM
      1 C         -52.9232  -84.3546   -2.4969 C.3       1 MOL     0.1362
      2 C         -53.3072  -83.0346   -1.9358 C.2       1 MOL     0.3092
      3 C         -51.6392  -82.5453   -0.2268 C.ar      1 MOL     0.1404
      4 C         -52.1064  -82.8721    1.0285 C.ar      1 MOL     0.0468
      5 C         -51.2817  -83.2019    2.0857 C.ar      1 MOL     0.0037
      6 C         -49.9244  -83.2046    1.8733 C.ar      1 MOL     0.0009
      7 C         -49.4040  -82.8852    0.6381 C.ar      1 MOL     0.0131
      8 C         -50.2697  -82.5575   -0.4065 C.ar      1 MOL     0.0397
      9 C         -49.6780  -82.2259   -1.6970 C.2       1 MOL     0.0752
     10 O         -54.4893  -82.5804   -2.0072 O.2       1 MOL    -0.2507
     11 O         -52.4188  -82.2128   -1.3015 O.3       1 MOL    -0.4254
     12 O         -50.0980  -82.7567   -2.7569 O.co2     1 MOL    -0.5445
     13 O         -48.6355  -81.3209   -1.8052 O.co2     1 MOL    -0.5445
     14 H         -53.7803  -84.8151   -2.9422 H         1 MOL     0.0342
     15 H         -52.5493  -84.9797   -1.7133 H         1 MOL     0.0342
     16 H         -52.1641  -84.2195   -3.2383 H         1 MOL     0.0342
     17 H         -53.1260  -82.8704    1.1862 H         1 MOL     0.0654
     18 H         -51.6744  -83.4408    3.0102 H         1 MOL     0.0619
     19 H         -49.2868  -83.4478    2.6475 H         1 MOL     0.0618
     20 H         -48.3829  -82.8894    0.4859 H         1 MOL     0.0625
@<TRIPOS>BOND
     1    1    2 1 
     2    1   14 1 
     3    1   15 1 
     4    1   16 1 
     5    2   10 2 
     6    2   11 1 
     7    3    4 ar
     8    3    8 ar
     9    3   11 1 
    10    4    5 ar
    11    4   17 1 
    12    5    6 ar
    13    5   18 1 
    14    6    7 ar
    15    6   19 1 
    16    7    8 ar
    17    7   20 1 
    18    8    9 1 
    19    9   12 ar
    20    9   13 ar
@<TRIPOS>SUBSTRUCTURE
1 MOL         1
@<TRIPOS>MOLECULE
query molecule
   20    20     1     0     0
SMALL
NO_CHARGE

@<TRIPOS>ATOM
      1 C          -6.3515  -25.7442  -17.3263 C.3       1 MOL     0.1362
      2 C          -5.1672  -26.3649  -16.6804 C.2       1 MOL     0.3092
      3 C          -2.9089  -25.4842  -16.9388 C.ar      1 MOL     0.1404
      4 C          -2.9093  -24.1299  -17.1975 C.ar      1 MOL     0.0468
      5 C          -1.8618  -23.2920  -16.8699 C.ar      1 MOL     0.0037
      6 C          -0.7625  -23.8384  -16.2531 C.ar      1 MOL     0.0009
      7 C          -0.7098  -25.1862  -15.9718 C.ar      1 MOL     0.0131
      8 C          -1.7886  -26.0013  -16.3178 C.ar      1 MOL     0.0397
      9 C          -1.6923  -27.4215  -16.0024 C.2       1 MOL     0.0752
     10 O          -5.2315  -26.9525  -15.5582 O.2       1 MOL    -0.2507
     11 O          -3.9232  -26.3504  -17.2453 O.3       1 MOL    -0.4254
     12 O          -2.2803  -27.9031  -15.0005 O.co2     1 MOL    -0.5445
     13 O          -0.9526  -28.2896  -16.7877 O.co2     1 MOL    -0.5445
     14 H          -7.2098  -25.8808  -16.7022 H         1 MOL     0.0342
     15 H          -6.5234  -26.2073  -18.2753 H         1 MOL     0.0342
     16 H          -6.1739  -24.6987  -17.4665 H         1 MOL     0.0342
     17 H          -3.7359  -23.7209  -17.6600 H         1 MOL     0.0654
     18 H          -1.9040  -22.2824  -17.0819 H         1 MOL     0.0619
     19 H           0.0334  -23.2331  -15.9978 H         1 MOL     0.0618
     20 H           0.1195  -25.5897  -15.5079 H         1 MOL     0.0625
@<TRIPOS>BOND
     1    1    2 1 
     2    1   14 1 
     3    1   15 1 
     4    1   16 1 
     5    2   10 2 
     6    2   11 1 
     7    3    4 ar
     8    3    8 ar
     9    3   11 1 
    10    4    5 ar
    11    4   17 1 
    12    5    6 ar
    13    5   18 1 
    14    6    7 ar
    15    6   19 1 
    16    7    8 ar
    17    7   20 1 
    18    8    9 1 
    19    9   12 ar
    20    9   13 ar
@<TRIPOS>SUBSTRUCTURE
1 MOL         1
@<TRIPOS>MOLECULE
query molecule
   20    20     1     0     0
SMALL
NO_CHARGE

@<TRIPOS>ATOM
      1 C         -63.0559  -42.7335   -6.5195 C.3       1 MOL     0.1362
      2 C         -62.6394  -41.3659   -6.9205 C.2       1 MOL     0.3092
      3 C         -63.8670  -39.2603   -6.9632 C.ar      1 MOL     0.1404
      4 C         -64.9400  -39.0503   -6.1231 C.ar      1 MOL     0.0468
      5 C         -65.2769  -37.8119   -5.6136 C.ar      1 MOL     0.0037
      6 C         -64.5005  -36.7337   -5.9629 C.ar      1 MOL     0.0009
      7 C         -63.4168  -36.8875   -6.7997 C.ar      1 MOL     0.0131
      8 C         -63.1073  -38.1553   -7.2944 C.ar      1 MOL     0.0397
      9 C         -61.9526  -38.2742   -8.1767 C.2       1 MOL     0.0752
     10 O         -61.4559  -40.9386   -6.7610 O.2       1 MOL    -0.2507
     11 O         -63.4971  -40.4679   -7.4905 O.3       1 MOL    -0.4254
     12 O         -62.0986  -38.4283   -9.4162 O.co2     1 MOL    -0.5445
     13 O         -60.6583  -38.2245   -7.6869 O.co2     1 MOL    -0.5445
     14 H         -62.2194  -43.2515   -6.0990 H         1 MOL     0.0342
     15 H         -63.4090  -43.2647   -7.3785 H         1 MOL     0.0342
     16 H         -63.8386  -42.6692   -5.7933 H         1 MOL     0.0342
     17 H         -65.5217  -39.8612   -5.8611 H         1 MOL     0.0654
     18 H         -66.0896  -37.6996   -4.9867 H         1 MOL     0.0619
     19 H         -64.7314  -35.7975   -5.5950 H         1 MOL     0.0618
     20 H         -62.8378  -36.0726   -7.0576 H         1 MOL     0.0625
@<TRIPOS>BOND
     1    1    2 1 
     2    1   14 1 
     3    1   15 1 
     4    1   16 1 
     5    2   10 2 
     6    2   11 1 
     7    3    4 ar
     8    3    8 ar
     9    3   11 1 
    10    4    5 ar
    11    4   17 1 
    12    5    6 ar
    13    5   18 1 
    14    6    7 ar
    15    6   19 1 
    16    7    8 ar
    17    7   20 1 
    18    8    9 1 
    19    9   12 ar
    20    9   13 ar
@<TRIPOS>SUBSTRUCTURE
1 MOL         1
@<TRIPOS>MOLECULE
query molecule
   20    20     1     0     0
SMALL
NO_CHARGE

@<TRIPOS>ATOM
      1 C         -50.9857  -79.9968   15.0884 C.3       1 MOL     0.1362
      2 C         -49.8889  -80.0014   14.0874 C.2       1 MOL     0.3092
      3 C         -51.2093  -80.9626   12.2778 C.ar      1 MOL     0.1404
      4 C         -51.6018  -82.2822   12.3526 C.ar      1 MOL     0.0468
      5 C         -52.7752  -82.7598   11.8033 C.ar      1 MOL     0.0037
      6 C         -53.5937  -81.8715   11.1488 C.ar      1 MOL     0.0009
      7 C         -53.2492  -80.5415   11.0443 C.ar      1 MOL     0.0131
      8 C         -52.0550  -80.0961   11.6128 C.ar      1 MOL     0.0397
      9 C         -51.7282  -78.6815   11.4795 C.2       1 MOL     0.0752
     10 O         -48.7187  -79.5921   14.3553 O.2       1 MOL    -0.2507
     11 O         -50.0573  -80.4466   12.8066 O.3       1 MOL    -0.4254
     12 O         -50.9167  -78.2846   10.6046 O.co2     1 MOL    -0.5445
     13 O         -52.2936  -77.7261   12.3072 O.co2     1 MOL    -0.5445
     14 H         -50.6198  -79.6073   16.0155 H         1 MOL     0.0342
     15 H         -51.3378  -80.9962   15.2357 H         1 MOL     0.0342
     16 H         -51.7882  -79.3842   14.7349 H         1 MOL     0.0342
     17 H         -50.9864  -82.9480   12.8452 H         1 MOL     0.0654
     18 H         -53.0308  -83.7570   11.8833 H         1 MOL     0.0619
     19 H         -54.4764  -82.2038   10.7299 H         1 MOL     0.0618
     20 H         -53.8694  -79.8799   10.5510 H         1 MOL     0.0625
@<TRIPOS>BOND
     1    1    2 1 
     2    1   14 1 
     3    1   15 1 
     4    1   16 1 
     5    2   10 2 
     6    2   11 1 
     7    3    4 ar
     8    3    8 ar
     9    3   11 1 
    10    4    5 ar
    11    4   17 1 
    12    5    6 ar
    13    5   18 1 
    14    6    7 ar
    15    6   19 1 
    16    7    8 ar
    17    7   20 1 
    18    8    9 1 
    19    9   12 ar
    20    9   13 ar
@<TRIPOS>SUBSTRUCTURE
1 MOL         1
@<TRIPOS>MOLECULE
query molecule
   20    20     1     0     0
SMALL
NO_CHARGE

@<TRIPOS>ATOM
      1 C         -20.2016  -42.5247   -3.1399 C.3       1 MOL     0.1362
      2 C         -19.0877  -41.5627   -3.3365 C.2       1 MOL     0.3092
      3 C         -17.9203  -40.0108   -4.8100 C.ar      1 MOL     0.1404
      4 C         -18.3273  -38.6935   -4.8101 C.ar      1 MOL     0.0468
      5 C         -17.4778  -37.6343   -5.0615 C.ar      1 MOL     0.0037
      6 C         -16.1578  -37.9097   -5.3244 C.ar      1 MOL     0.0009
      7 C         -15.6981  -39.2085   -5.3373 C.ar      1 MOL     0.0131
      8 C         -16.5870  -40.2528   -5.0780 C.ar      1 MOL     0.0397
      9 C         -16.0597  -41.6119   -5.1013 C.2       1 MOL     0.0752
     10 O         -18.3947  -41.1149   -2.3733 O.2       1 MOL    -0.2507
     11 O         -18.7262  -41.0899   -4.5664 O.3       1 MOL    -0.4254
     12 O         -16.3092  -42.4188   -4.1695 O.co2     1 MOL    -0.5445
     13 O         -15.2669  -42.0638   -6.1429 O.co2     1 MOL    -0.5445
     14 H         -20.2977  -42.7499   -2.0983 H         1 MOL     0.0342
     15 H         -19.9957  -43.4239   -3.6816 H         1 MOL     0.0342
     16 H         -21.1126  -42.0931   -3.4980 H         1 MOL     0.0342
     17 H         -19.3188  -38.4883   -4.6117 H         1 MOL     0.0654
     18 H         -17.8251  -36.6620   -5.0511 H         1 MOL     0.0619
     19 H         -15.5027  -37.1354   -5.5152 H         1 MOL     0.0618
     20 H         -14.7047  -39.4077   -5.5355 H         1 MOL     0.0625
@<TRIPOS>BOND
     1    1    2 1 
     2    1   14 1 
     3    1   15 1 
     4    1   16 1 
     5    2   10 2 
     6    2   11 1 
     7    3    4 ar
     8    3    8 ar
     9    3   11 1 
    10    4    5 ar
    11    4   17 1 
    12    5    6 ar
    13    5   18 1 
    14    6    7 ar
    15    6   19 1 
    16    7    8 ar
    17    7   20 1 
    18    8    9 1 
    19    9   12 ar
    20    9   13 ar
@<TRIPOS>SUBSTRUCTURE
1 MOL         1
@<TRIPOS>MOLECULE
query molecule
   20    20     1     0     0
SMALL
NO_CHARGE

@<TRIPOS>ATOM
      1 C         -32.8151  -76.3182   16.9033 C.3       1 MOL     0.1362
      2 C         -32.9555  -77.7528   16.5470 C.2       1 MOL     0.3092
      3 C         -30.6885  -78.2060   15.7739 C.ar      1 MOL     0.1404
      4 C         -29.6328  -77.6290   16.4474 C.ar      1 MOL     0.0468
      5 C         -28.4441  -77.2759   15.8400 C.ar      1 MOL     0.0037
      6 C         -28.3079  -77.5136   14.4938 C.ar      1 MOL     0.0009
      7 C         -29.3320  -78.0875   13.7725 C.ar      1 MOL     0.0131
      8 C         -30.5187  -78.4312   14.4217 C.ar      1 MOL     0.0397
      9 C         -31.5770  -79.0361   13.6218 C.2       1 MOL     0.0752
     10 O         -34.0843  -78.3158   16.4145 O.2       1 MOL    -0.2507
     11 O         -31.8823  -78.5714   16.3346 O.3       1 MOL    -0.4254
     12 O         -32.3736  -79.8684   14.1260 O.co2     1 MOL    -0.5445
     13 O         -31.7438  -78.7214   12.2837 O.co2     1 MOL    -0.5445
     14 H         -33.7860  -75.8833   17.0183 H         1 MOL     0.0342
     15 H         -32.2858  -75.8081   16.1260 H         1 MOL     0.0342
     16 H         -32.2729  -76.2304   17.8212 H         1 MOL     0.0342
     17 H         -29.7364  -77.4518   17.4585 H         1 MOL     0.0654
     18 H         -27.6783  -76.8460   16.3830 H         1 MOL     0.0619
     19 H         -27.4289  -77.2589   14.0166 H         1 MOL     0.0618
     20 H         -29.2223  -78.2633   12.7611 H         1 MOL     0.0625
@<TRIPOS>BOND
     1    1    2 1 
     2    1   14 1 
     3    1   15 1 
     4    1   16 1 
     5    2   10 2 
     6    2   11 1 
     7    3    4 ar
     8    3    8 ar
     9    3   11 1 
    10    4    5 ar
    11    4   17 1 
    12    5    6 ar
    13    5   18 1 
    14    6    7 ar
    15    6   19 1 
    16    7    8 ar
    17    7   20 1 
    18    8    9 1 
    19    9   12 ar
    20    9   13 ar
@<TRIPOS>SUBSTRUCTURE
1 MOL         1
@<TRIPOS>MOLECULE
query molecule
   20    20     1     0     0
SMALL
NO_CHARGE

@<TRIPOS>ATOM
      1 C         -28.2145  -77.0593   28.6094 C.3       1 MOL     0.1362
      2 C         -28.3066  -75.5859   28.4496 C.2       1 MOL     0.3092
      3 C         -27.2307  -73.4055   28.6248 C.ar      1 MOL     0.1404
      4 C         -27.9371  -72.3630   29.1861 C.ar      1 MOL     0.0468
      5 C         -27.7622  -71.0422   28.8231 C.ar      1 MOL     0.0037
      6 C         -26.8343  -70.7539   27.8518 C.ar      1 MOL     0.0009
      7 C         -26.1012  -71.7579   27.2576 C.ar      1 MOL     0.0131
      8 C         -26.3059  -73.0811   27.6514 C.ar      1 MOL     0.0397
      9 C         -25.5096  -74.1126   26.9976 C.2       1 MOL     0.0752
     10 O         -29.2628  -75.0247   27.8336 O.2       1 MOL    -0.2507
     11 O         -27.3714  -74.7266   28.9535 O.3       1 MOL    -0.4254
     12 O         -26.0517  -74.9875   26.2749 O.co2     1 MOL    -0.5445
     13 O         -24.1342  -74.1702   27.1477 O.co2     1 MOL    -0.5445
     14 H         -29.0550  -77.5219   28.1357 H         1 MOL     0.0342
     15 H         -28.2120  -77.3053   29.6506 H         1 MOL     0.0342
     16 H         -27.3109  -77.4109   28.1576 H         1 MOL     0.0342
     17 H         -28.6330  -72.5810   29.9159 H         1 MOL     0.0654
     18 H         -28.3129  -70.2920   29.2701 H         1 MOL     0.0619
     19 H         -26.6847  -69.7744   27.5631 H         1 MOL     0.0618
     20 H         -25.4056  -71.5335   26.5285 H         1 MOL     0.0625
@<TRIPOS>BOND
     1    1    2 1 
     2    1   14 1 
     3    1   15 1 
     4    1   16 1 
     5    2   10 2 
     6    2   11 1 
     7    3    4 ar
     8    3    8 ar
     9    3   11 1 
    10    4    5 ar
    11    4   17 1 
    12    5    6 ar
    13    5   18 1 
    14    6    7 ar
    15    6   19 1 
    16    7    8 ar
    17    7   20 1 
    18    8    9 1 
    19    9   12 ar
    20    9   13 ar
@<TRIPOS>SUBSTRUCTURE
1 MOL         1
@<TRIPOS>MOLECULE
query molecule
   20    20     1     0     0
SMALL
NO_CHARGE

@<TRIPOS>ATOM
      1 C         -61.9162  -26.9857   20.1690 C.3       1 MOL     0.1362
      2 C         -60.8285  -26.1379   19.6188 C.2       1 MOL     0.3092
      3 C         -59.5079  -26.0688   21.6666 C.ar      1 MOL     0.1404
      4 C         -58.8816  -27.2218   22.0899 C.ar      1 MOL     0.0468
      5 C         -58.6513  -27.5194   23.4185 C.ar      1 MOL     0.0037
      6 C         -59.0684  -26.6172   24.3669 C.ar      1 MOL     0.0009
      7 C         -59.6999  -25.4492   23.9988 C.ar      1 MOL     0.0131
      8 C         -59.9146  -25.1833   22.6457 C.ar      1 MOL     0.0397
      9 C         -60.5861  -23.9364   22.2993 C.2       1 MOL     0.0752
     10 O         -60.8223  -25.7300   18.4178 O.2       1 MOL    -0.2507
     11 O         -59.7562  -25.7338   20.3630 O.3       1 MOL    -0.4254
     12 O         -60.1654  -23.2143   21.3596 O.co2     1 MOL    -0.5445
     13 O         -61.7052  -23.5004   22.9885 O.co2     1 MOL    -0.5445
     14 H         -62.6431  -27.1718   19.4061 H         1 MOL     0.0342
     15 H         -62.3816  -26.4804   20.9892 H         1 MOL     0.0342
     16 H         -61.5075  -27.9144   20.5078 H         1 MOL     0.0342
     17 H         -58.5683  -27.8980   21.3763 H         1 MOL     0.0654
     18 H         -58.1778  -28.3954   23.6914 H         1 MOL     0.0619
     19 H         -58.9076  -26.8164   25.3667 H         1 MOL     0.0618
     20 H         -60.0103  -24.7760   24.7172 H         1 MOL     0.0625
@<TRIPOS>BOND
     1    1    2 1 
     2    1   14 1 
     3    1   15 1 
     4    1   16 1 
     5    2   10 2 
     6    2   11 1 
     7    3    4 ar
     8    3    8 ar
     9    3   11 1 
    10    4    5 ar
    11    4   17 1 
    12    5    6 ar
    13    5   18 1 
    14    6    7 ar
    15    6   19 1 
    16    7    8 ar
    17    7   20 1 
    18    8    9 1 
    19    9   12 ar
    20    9   13 ar
@<TRIPOS>SUBSTRUCTURE
1 MOL         1
@<TRIPOS>MOLECULE
query molecule
   20    20     1     0     0
SMALL
NO_CHARGE

@<TRIPOS>ATOM
      1 C         -44.9912  -77.5472   27.1628 C.3       1 MOL     0.1362
      2 C         -45.6727  -77.2415   28.4461 C.2       1 MOL     0.3092
      3 C         -47.3530  -75.7527   27.4960 C.ar      1 MOL     0.1404
      4 C         -48.3050  -76.3497   26.6972 C.ar      1 MOL     0.0468
      5 C         -48.9333  -75.7049   25.6501 C.ar      1 MOL     0.0037
      6 C         -48.5907  -74.3996   25.3930 C.ar      1 MOL     0.0009
      7 C         -47.6449  -73.7551   26.1602 C.ar      1 MOL     0.0131
      8 C         -47.0318  -74.4399   27.2105 C.ar      1 MOL     0.0397
      9 C         -46.0367  -73.7215   27.9974 C.2       1 MOL     0.0752
     10 O         -45.3398  -77.7859   29.5423 O.2       1 MOL    -0.2507
     11 O         -46.7061  -76.3527   28.5423 O.3       1 MOL    -0.4254
     12 O         -44.8874  -74.1987   28.1785 O.co2     1 MOL    -0.5445
     13 O         -46.3172  -72.4942   28.5741 O.co2     1 MOL    -0.5445
     14 H         -44.2178  -78.2668   27.3331 H         1 MOL     0.0342
     15 H         -44.5630  -76.6513   26.7645 H         1 MOL     0.0342
     16 H         -45.7013  -77.9430   26.4676 H         1 MOL     0.0342
     17 H         -48.5617  -77.3298   26.8920 H         1 MOL     0.0654
     18 H         -49.6417  -76.1903   25.0769 H         1 MOL     0.0619
     19 H         -49.0463  -73.8956   24.6161 H         1 MOL     0.0618
     20 H         -47.3928  -72.7741   25.9611 H         1 MOL     0.0625
@<TRIPOS>BOND
     1    1    2 1 
     2    1   14 1 
     3    1   15 1 
     4    1   16 1 
     5    2   10 2 
     6    2   11 1 
     7    3    4 ar
     8    3    8 ar
     9    3   11 1 
    10    4    5 ar
    11    4   17 1 
    12    5    6 ar
    13    5   18 1 
    14    6    7 ar
    15    6   19 1 
    16    7    8 ar
    17    7   20 1 
    18    8    9 1 
    19    9   12 ar
    20    9   13 ar
@<TRIPOS>SUBSTRUCTURE
1 MOL         1
@<TRIPOS>MOLECULE
query molecule
   20    20     1     0     0
SMALL
NO_CHARGE

@<TRIPOS>ATOM
      1 C         -31.2920  -70.9748  -26.8729 C.3       1 MOL     0.1362
      2 C         -31.4877  -72.4102  -27.1988 C.2       1 MOL     0.3092
      3 C         -33.7157  -73.3988  -27.1679 C.ar      1 MOL     0.1404
      4 C         -34.7271  -72.4671  -27.2676 C.ar      1 MOL     0.0468
      5 C         -35.9657  -72.7434  -27.8119 C.ar      1 MOL     0.0037
      6 C         -36.2003  -74.0140  -28.2788 C.ar      1 MOL     0.0009
      7 C         -35.2244  -74.9837  -28.2032 C.ar      1 MOL     0.0131
      8 C         -33.9845  -74.6663  -27.6466 C.ar      1 MOL     0.0397
      9 C         -32.9800  -75.7213  -27.5857 C.2       1 MOL     0.0752
     10 O         -30.7484  -73.0300  -28.0222 O.2       1 MOL    -0.2507
     11 O         -32.4753  -73.1691  -26.6370 O.3       1 MOL    -0.4254
     12 O         -32.0891  -75.7160  -26.6981 O.co2     1 MOL    -0.5445
     13 O         -32.9666  -76.7627  -28.4984 O.co2     1 MOL    -0.5445
     14 H         -30.4624  -70.5931  -27.4306 H         1 MOL     0.0342
     15 H         -31.0964  -70.8705  -25.8263 H         1 MOL     0.0342
     16 H         -32.1757  -70.4281  -27.1269 H         1 MOL     0.0342
     17 H         -34.5492  -71.5131  -26.9173 H         1 MOL     0.0654
     18 H         -36.6952  -72.0148  -27.8673 H         1 MOL     0.0619
     19 H         -37.1179  -74.2456  -28.6904 H         1 MOL     0.0618
     20 H         -35.4079  -75.9363  -28.5562 H         1 MOL     0.0625
@<TRIPOS>BOND
     1    1    2 1 
     2    1   14 1 
     3    1   15 1 
     4    1   16 1 
     5    2   10 2 
     6    2   11 1 
     7    3    4 ar
     8    3    8 ar
     9    3   11 1 
    10    4    5 ar
    11    4   17 1 
    12    5    6 ar
    13    5   18 1 
    14    6    7 ar
    15    6   19 1 
    16    7    8 ar
    17    7   20 1 
    18    8    9 1 
    19    9   12 ar
    20    9   13 ar
@<TRIPOS>SUBSTRUCTURE
1 MOL         1
@<TRIPOS>MOLECULE
query molecule
   20    20     1     0     0
SMALL
NO_CHARGE

@<TRIPOS>ATOM
      1 C         -21.3043  -21.6276   27.3140 C.3       1 MOL     0.1362
      2 C         -20.2731  -22.5273   26.7378 C.2       1 MOL     0.3092
      3 C         -19.2852  -24.7479   26.5491 C.ar      1 MOL     0.1404
      4 C         -17.9591  -24.8853   26.9004 C.ar      1 MOL     0.0468
      5 C         -17.1124  -25.8141   26.3286 C.ar      1 MOL     0.0037
      6 C         -17.6203  -26.6447   25.3594 C.ar      1 MOL     0.0009
      7 C         -18.9386  -26.5497   24.9701 C.ar      1 MOL     0.0131
      8 C         -19.7639  -25.5983   25.5715 C.ar      1 MOL     0.0397
      9 C         -21.1520  -25.5310   25.1307 C.2       1 MOL     0.0752
     10 O         -19.4262  -22.1335   25.8797 O.2       1 MOL    -0.2507
     11 O         -20.1590  -23.8430   27.0885 O.3       1 MOL    -0.4254
     12 O         -22.0806  -25.3080   25.9489 O.co2     1 MOL    -0.5445
     13 O         -21.5000  -25.7109   23.8025 O.co2     1 MOL    -0.5445
     14 H         -21.1994  -20.6498   26.8922 H         1 MOL     0.0342
     15 H         -21.1775  -21.5736   28.3749 H         1 MOL     0.0342
     16 H         -22.2773  -22.0113   27.0901 H         1 MOL     0.0342
     17 H         -17.5794  -24.2613   27.6291 H         1 MOL     0.0654
     18 H         -16.1249  -25.8831   26.6223 H         1 MOL     0.0619
     19 H         -17.0077  -27.3477   24.9169 H         1 MOL     0.0618
     20 H         -19.3132  -27.1774   24.2412 H         1 MOL     0.0625
@<TRIPOS>BOND
     1    1    2 1 
     2    1   14 1 
     3    1   15 1 
     4    1   16 1 
     5    2   10 2 
     6    2   11 1 
     7    3    4 ar
     8    3    8 ar
     9    3   11 1 
    10    4    5 ar
    11    4   17 1 
    12    5    6 ar
    13    5   18 1 
    14    6    7 ar
    15    6   19 1 
    16    7    8 ar
    17    7   20 1 
    18    8    9 1 
    19    9   12 ar
    20    9   13 ar
@<TRIPOS>SUBSTRUCTURE
1 MOL         1
@<TRIPOS>MOLECULE
query molecule
   20    20     1     0     0
SMALL
NO_CHARGE

@<TRIPOS>ATOM
      1 C         -47.0568  -25.9118   -7.8692 C.3       1 MOL     0.1362
      2 C         -46.1192  -27.0604   -7.7882 C.2       1 MOL     0.3092
      3 C         -44.2488  -28.3218   -8.7115 C.ar      1 MOL     0.1404
      4 C         -43.2053  -28.4981   -7.8278 C.ar      1 MOL     0.0468
      5 C         -42.3426  -29.5754   -7.8737 C.ar      1 MOL     0.0037
      6 C         -42.5366  -30.5205   -8.8517 C.ar      1 MOL     0.0009
      7 C         -43.5639  -30.3930   -9.7609 C.ar      1 MOL     0.0131
      8 C         -44.4157  -29.2902   -9.6823 C.ar      1 MOL     0.0397
      9 C         -45.4899  -29.1935  -10.6634 C.2       1 MOL     0.0752
     10 O         -46.1778  -27.9252   -6.8623 O.2       1 MOL    -0.2507
     11 O         -45.1265  -27.2717   -8.7029 O.3       1 MOL    -0.4254
     12 O         -45.4139  -29.7915  -11.7671 O.co2     1 MOL    -0.5445
     13 O         -46.6276  -28.4423  -10.4206 O.co2     1 MOL    -0.5445
     14 H         -47.7437  -25.9545   -7.0499 H         1 MOL     0.0342
     15 H         -47.5980  -25.9580   -8.7909 H         1 MOL     0.0342
     16 H         -46.5042  -24.9969   -7.8255 H         1 MOL     0.0342
     17 H         -43.0614  -27.7879   -7.0934 H         1 MOL     0.0654
     18 H         -41.5736  -29.6684   -7.1910 H         1 MOL     0.0619
     19 H         -41.9054  -31.3352   -8.9069 H         1 MOL     0.0618
     20 H         -43.7036  -31.1073  -10.4929 H         1 MOL     0.0625
@<TRIPOS>BOND
     1    1    2 1 
     2    1   14 1 
     3    1   15 1 
     4    1   16 1 
     5    2   10 2 
     6    2   11 1 
     7    3    4 ar
     8    3    8 ar
     9    3   11 1 
    10    4    5 ar
    11    4   17 1 
    12    5    6 ar
    13    5   18 1 
    14    6    7 ar
    15    6   19 1 
    16    7    8 ar
    17    7   20 1 
    18    8    9 1 
    19    9   12 ar
    20    9   13 ar
@<TRIPOS>SUBSTRUCTURE
1 MOL         1
@<TRIPOS>MOLECULE
query molecule
   20    20     1     0     0
SMALL
NO_CHARGE

@<TRIPOS>ATOM
      1 C         -53.3319  -24.1063   -1.2710 C.3       1 MOL     0.1362
      2 C         -52.6878  -23.7375    0.0151 C.2       1 MOL     0.3092
      3 C         -51.8613  -24.3777    2.2172 C.ar      1 MOL     0.1404
      4 C         -50.5049  -24.3186    2.4572 C.ar      1 MOL     0.0468
      5 C         -49.9624  -24.0452    3.6973 C.ar      1 MOL     0.0037
      6 C         -50.8213  -23.8199    4.7456 C.ar      1 MOL     0.0009
      7 C         -52.1859  -23.8675    4.5612 C.ar      1 MOL     0.0131
      8 C         -52.6967  -24.1464    3.2927 C.ar      1 MOL     0.0397
      9 C         -54.1462  -24.1873    3.1408 C.2       1 MOL     0.0752
     10 O         -52.3228  -22.5521    0.2803 O.2       1 MOL    -0.2507
     11 O         -52.4416  -24.6446    1.0068 O.3       1 MOL    -0.4254
     12 O         -54.8483  -23.1664    3.3556 O.co2     1 MOL    -0.5445
     13 O         -54.8023  -25.3453    2.7585 O.co2     1 MOL    -0.5445
     14 H         -53.4213  -23.2359   -1.8868 H         1 MOL     0.0342
     15 H         -54.3044  -24.5091   -1.0798 H         1 MOL     0.0342
     16 H         -52.7344  -24.8389   -1.7716 H         1 MOL     0.0342
     17 H         -49.8612  -24.4872    1.6687 H         1 MOL     0.0654
     18 H         -48.9394  -24.0102    3.8326 H         1 MOL     0.0619
     19 H         -50.4405  -23.6133    5.6824 H         1 MOL     0.0618
     20 H         -52.8251  -23.6969    5.3537 H         1 MOL     0.0625
@<TRIPOS>BOND
     1    1    2 1 
     2    1   14 1 
     3    1   15 1 
     4    1   16 1 
     5    2   10 2 
     6    2   11 1 
     7    3    4 ar
     8    3    8 ar
     9    3   11 1 
    10    4    5 ar
    11    4   17 1 
    12    5    6 ar
    13    5   18 1 
    14    6    7 ar
    15    6   19 1 
    16    7    8 ar
    17    7   20 1 
    18    8    9 1 
    19    9   12 ar
    20    9   13 ar
@<TRIPOS>SUBSTRUCTURE
1 MOL         1
@<TRIPOS>MOLECULE
query molecule
   20    20     1     0     0
SMALL
NO_CHARGE

@<TRIPOS>ATOM
      1 C          -9.7677  -43.8010  -29.3311 C.3       1 MOL     0.1362
      2 C          -9.9232  -43.6118  -27.8665 C.2       1 MOL     0.3092
      3 C          -9.5538  -44.4136  -25.5944 C.ar      1 MOL     0.1404
      4 C          -8.5548  -43.8044  -24.8652 C.ar      1 MOL     0.0468
      5 C          -8.5862  -43.6747  -23.4908 C.ar      1 MOL     0.0037
      6 C          -9.6715  -44.1794  -22.8164 C.ar      1 MOL     0.0009
      7 C         -10.6979  -44.7984  -23.4960 C.ar      1 MOL     0.0131
      8 C         -10.6305  -44.9101  -24.8856 C.ar      1 MOL     0.0397
      9 C         -11.7372  -45.5720  -25.5658 C.2       1 MOL     0.0752
     10 O         -10.4021  -42.5510  -27.3625 O.2       1 MOL    -0.2507
     11 O          -9.5640  -44.5638  -26.9547 O.3       1 MOL    -0.4254
     12 O         -12.9300  -45.3212  -25.2560 O.co2     1 MOL    -0.5445
     13 O         -11.5195  -46.4984  -26.5718 O.co2     1 MOL    -0.5445
     14 H         -10.1151  -42.9273  -29.8418 H         1 MOL     0.0342
     15 H         -10.3412  -44.6483  -29.6437 H         1 MOL     0.0342
     16 H          -8.7360  -43.9638  -29.5618 H         1 MOL     0.0342
     17 H          -7.7407  -43.4252  -25.3732 H         1 MOL     0.0654
     18 H          -7.8157  -43.2104  -22.9842 H         1 MOL     0.0619
     19 H          -9.7188  -44.0948  -21.7889 H         1 MOL     0.0618
     20 H         -11.5103  -45.1751  -22.9824 H         1 MOL     0.0625
@<TRIPOS>BOND
     1    1    2 1 
     2    1   14 1 
     3    1   15 1 
     4    1   16 1 
     5    2   10 2 
     6    2   11 1 
     7    3    4 ar
     8    3    8 ar
     9    3   11 1 
    10    4    5 ar
    11    4   17 1 
    12    5    6 ar
    13    5   18 1 
    14    6    7 ar
    15    6   19 1 
    16    7    8 ar
    17    7   20 1 
    18    8    9 1 
    19    9   12 ar
    20    9   13 ar
@<TRIPOS>SUBSTRUCTURE
1 MOL         1
@<TRIPOS>MOLECULE
query molecule
   20    20     1     0     0
SMALL
NO_CHARGE

@<TRIPOS>ATOM
      1 C         -64.7744  -27.7419    3.1718 C.3       1 MOL     0.1362
      2 C         -65.5289  -28.9469    3.6002 C.2       1 MOL     0.3092
      3 C         -65.6546  -29.9747    1.3933 C.ar      1 MOL     0.1404
      4 C         -66.4506  -29.3030    0.4898 C.ar      1 MOL     0.0468
      5 C         -66.2424  -29.3294   -0.8750 C.ar      1 MOL     0.0037
      6 C         -65.1855  -30.0636   -1.3558 C.ar      1 MOL     0.0009
      7 C         -64.3588  -30.7544   -0.4968 C.ar      1 MOL     0.0131
      8 C         -64.6009  -30.7033    0.8767 C.ar      1 MOL     0.0397
      9 C         -63.7025  -31.4483    1.7505 C.2       1 MOL     0.0752
     10 O         -65.9521  -29.1014    4.7858 O.2       1 MOL    -0.2507
     11 O         -65.8238  -29.9763    2.7515 O.3       1 MOL    -0.4254
     12 O         -63.3691  -30.9940    2.8747 O.co2     1 MOL    -0.5445
     13 O         -63.1831  -32.6767    1.3780 O.co2     1 MOL    -0.5445
     14 H         -64.6658  -27.0760    4.0024 H         1 MOL     0.0342
     15 H         -65.3075  -27.2482    2.3865 H         1 MOL     0.0342
     16 H         -63.8079  -28.0335    2.8184 H         1 MOL     0.0342
     17 H         -67.2435  -28.7514    0.8526 H         1 MOL     0.0654
     18 H         -66.8635  -28.8108   -1.5163 H         1 MOL     0.0619
     19 H         -65.0086  -30.0991   -2.3720 H         1 MOL     0.0618
     20 H         -63.5664  -31.3039   -0.8655 H         1 MOL     0.0625
@<TRIPOS>BOND
     1    1    2 1 
     2    1   14 1 
     3    1   15 1 
     4    1   16 1 
     5    2   10 2 
     6    2   11 1 
     7    3    4 ar
     8    3    8 ar
     9    3   11 1 
    10    4    5 ar
    11    4   17 1 
    12    5    6 ar
    13    5   18 1 
    14    6    7 ar
    15    6   19 1 
    16    7    8 ar
    17    7   20 1 
    18    8    9 1 
    19    9   12 ar
    20    9   13 ar
@<TRIPOS>SUBSTRUCTURE
1 MOL         1
@<TRIPOS>MOLECULE
query molecule
   20    20     1     0     0
SMALL
NO_CHARGE

@<TRIPOS>ATOM
      1 C         -13.1792  -47.0411   21.4197 C.3       1 MOL     0.1362
      2 C         -13.2947  -45.6335   20.9614 C.2       1 MOL     0.3092
      3 C         -11.8689  -44.0226   19.8149 C.ar      1 MOL     0.1404
      4 C         -12.3503  -42.7308   19.8356 C.ar      1 MOL     0.0468
      5 C         -11.5386  -41.6150   19.7838 C.ar      1 MOL     0.0037
      6 C         -10.1800  -41.8041   19.7084 C.ar      1 MOL     0.0009
      7 C          -9.6456  -43.0739   19.6840 C.ar      1 MOL     0.0131
      8 C         -10.4983  -44.1774   19.7385 C.ar      1 MOL     0.0397
      9 C          -9.8922  -45.5031   19.7104 C.2       1 MOL     0.0752
     10 O         -14.0146  -44.7778   21.5599 O.2       1 MOL    -0.2507
     11 O         -12.6352  -45.1555   19.8643 O.3       1 MOL    -0.4254
     12 O          -8.6920  -45.6730   20.0454 O.co2     1 MOL    -0.5445
     13 O         -10.6093  -46.6195   19.3141 O.co2     1 MOL    -0.5445
     14 H         -13.7810  -47.1815   22.2933 H         1 MOL     0.0342
     15 H         -12.1576  -47.2576   21.6519 H         1 MOL     0.0342
     16 H         -13.5156  -47.6970   20.6445 H         1 MOL     0.0342
     17 H         -13.3708  -42.5905   19.8931 H         1 MOL     0.0654
     18 H         -11.9418  -40.6646   19.8023 H         1 MOL     0.0619
     19 H          -9.5519  -40.9861   19.6688 H         1 MOL     0.0618
     20 H          -8.6237  -43.2082   19.6274 H         1 MOL     0.0625
@<TRIPOS>BOND
     1    1    2 1 
     2    1   14 1 
     3    1   15 1 
     4    1   16 1 
     5    2   10 2 
     6    2   11 1 
     7    3    4 ar
     8    3    8 ar
     9    3   11 1 
    10    4    5 ar
    11    4   17 1 
    12    5    6 ar
    13    5   18 1 
    14    6    7 ar
    15    6   19 1 
    16    7    8 ar
    17    7   20 1 
    18    8    9 1 
    19    9   12 ar
    20    9   13 ar
@<TRIPOS>SUBSTRUCTURE
1 MOL         1
@<TRIPOS>MOLECULE
query molecule
   20    20     1     0     0
SMALL
NO_CHARGE

@<TRIPOS>ATOM
      1 C         -60.3566  -35.5315   -0.7332 C.3       1 MOL     0.1362
      2 C         -60.4108  -34.3044    0.1012 C.2       1 MOL     0.3092
      3 C         -58.5663  -32.7655    0.5159 C.ar      1 MOL     0.1404
      4 C         -58.9975  -31.4561    0.4945 C.ar      1 MOL     0.0468
      5 C         -58.1784  -30.3899    0.1799 C.ar      1 MOL     0.0037
      6 C         -56.8647  -30.6496   -0.1269 C.ar      1 MOL     0.0009
      7 C         -56.3816  -31.9400   -0.1212 C.ar      1 MOL     0.0131
      8 C         -57.2401  -32.9918    0.2024 C.ar      1 MOL     0.0397
      9 C         -56.6889  -34.3415    0.1968 C.2       1 MOL     0.0752
     10 O         -61.4562  -33.5934    0.2024 O.2       1 MOL    -0.2507
     11 O         -59.3418  -33.8511    0.8214 O.3       1 MOL    -0.4254
     12 O         -55.6060  -34.5957   -0.3900 O.co2     1 MOL    -0.5445
     13 O         -57.3333  -35.3900    0.8316 O.co2     1 MOL    -0.5445
     14 H         -61.3070  -35.6869   -1.1998 H         1 MOL     0.0342
     15 H         -60.1211  -36.3725   -0.1153 H         1 MOL     0.0342
     16 H         -59.6035  -35.4186   -1.4844 H         1 MOL     0.0342
     17 H         -59.9841  -31.2626    0.7260 H         1 MOL     0.0654
     18 H         -58.5431  -29.4240    0.1764 H         1 MOL     0.0619
     19 H         -56.2321  -29.8698   -0.3652 H         1 MOL     0.0618
     20 H         -55.3932  -32.1274   -0.3527 H         1 MOL     0.0625
@<TRIPOS>BOND
     1    1    2 1 
     2    1   14 1 
     3    1   15 1 
     4    1   16 1 
     5    2   10 2 
     6    2   11 1 
     7    3    4 ar
     8    3    8 ar
     9    3   11 1 
    10    4    5 ar
    11    4   17 1 
    12    5    6 ar
    13    5   18 1 
    14    6    7 ar
    15    6   19 1 
    16    7    8 ar
    17    7   20 1 
    18    8    9 1 
    19    9   12 ar
    20    9   13 ar
@<TRIPOS>SUBSTRUCTURE
1 MOL         1
@<TRIPOS>MOLECULE
query molecule
   20    20     1     0     0
SMALL
NO_CHARGE

@<TRIPOS>ATOM
      1 C          -7.2628  -44.3047  -24.4206 C.3       1 MOL     0.1362
      2 C          -5.7846  -44.1668  -24.3940 C.2       1 MOL     0.3092
      3 C          -3.7841  -42.8428  -24.8270 C.ar      1 MOL     0.1404
      4 C          -2.8769  -43.4657  -25.6576 C.ar      1 MOL     0.0468
      5 C          -1.5173  -43.2284  -25.6144 C.ar      1 MOL     0.0037
      6 C          -1.0458  -42.3230  -24.6951 C.ar      1 MOL     0.0009
      7 C          -1.9088  -41.6725  -23.8403 C.ar      1 MOL     0.0131
      8 C          -3.2769  -41.9384  -23.9143 C.ar      1 MOL     0.0397
      9 C          -4.1551  -41.2287  -22.9920 C.2       1 MOL     0.0752
     10 O          -5.0214  -45.0820  -23.9596 O.2       1 MOL    -0.2507
     11 O          -5.1373  -43.0472  -24.8351 O.3       1 MOL    -0.4254
     12 O          -5.3447  -41.5977  -22.8181 O.co2     1 MOL    -0.5445
     13 O          -3.7170  -40.1263  -22.2777 O.co2     1 MOL    -0.5445
     14 H          -7.5381  -45.2615  -24.0285 H         1 MOL     0.0342
     15 H          -7.6106  -44.2190  -25.4286 H         1 MOL     0.0342
     16 H          -7.7034  -43.5335  -23.8244 H         1 MOL     0.0342
     17 H          -3.2327  -44.1449  -26.3481 H         1 MOL     0.0654
     18 H          -0.8730  -43.7174  -26.2562 H         1 MOL     0.0619
     19 H          -0.0337  -42.1280  -24.6431 H         1 MOL     0.0618
     20 H          -1.5471  -40.9932  -23.1522 H         1 MOL     0.0625
@<TRIPOS>BOND
     1    1    2 1 
     2    1   14 1 
     3    1   15 1 
     4    1   16 1 
     5    2   10 2 
     6    2   11 1 
     7    3    4 ar
     8    3    8 ar
     9    3   11 1 
    10    4    5 ar
    11    4   17 1 
    12    5    6 ar
    13    5   18 1 
    14    6    7 ar
    15    6   19 1 
    16    7    8 ar
    17    7   20 1 
    18    8    9 1 
    19    9   12 ar
    20    9   13 ar
@<TRIPOS>SUBSTRUCTURE
1 MOL         1
@<TRIPOS>MOLECULE
query molecule
   20    20     1     0     0
SMALL
NO_CHARGE

@<TRIPOS>ATOM
      1 C         -26.2565  -22.4217  -10.5761 C.3       1 MOL     0.1362
      2 C         -27.0025  -23.6634  -10.9027 C.2       1 MOL     0.3092
      3 C         -25.3266  -24.5937  -12.4087 C.ar      1 MOL     0.1404
      4 C         -25.2345  -24.0889  -13.6884 C.ar      1 MOL     0.0468
      5 C         -24.0538  -24.0353  -14.4025 C.ar      1 MOL     0.0037
      6 C         -22.9118  -24.5097  -13.8041 C.ar      1 MOL     0.0009
      7 C         -22.9476  -25.0253  -12.5269 C.ar      1 MOL     0.0131
      8 C         -24.1600  -25.0624  -11.8366 C.ar      1 MOL     0.0397
      9 C         -24.1540  -25.6158  -10.4877 C.2       1 MOL     0.0752
     10 O         -28.1845  -23.8766  -10.4950 O.2       1 MOL    -0.2507
     11 O         -26.4735  -24.6661  -11.6653 O.3       1 MOL    -0.4254
     12 O         -23.7187  -24.9469   -9.5159 O.co2     1 MOL    -0.5445
     13 O         -24.6227  -26.8924  -10.2262 O.co2     1 MOL    -0.5445
     14 H         -26.8697  -21.7866   -9.9715 H         1 MOL     0.0342
     15 H         -25.9991  -21.9123  -11.4810 H         1 MOL     0.0342
     16 H         -25.3645  -22.6721  -10.0415 H         1 MOL     0.0342
     17 H         -26.0929  -23.7323  -14.1361 H         1 MOL     0.0654
     18 H         -24.0299  -23.6483  -15.3594 H         1 MOL     0.0619
     19 H         -22.0166  -24.4803  -14.3169 H         1 MOL     0.0618
     20 H         -22.0853  -25.3798  -12.0837 H         1 MOL     0.0625
@<TRIPOS>BOND
     1    1    2 1 
     2    1   14 1 
     3    1   15 1 
     4    1   16 1 
     5    2   10 2 
     6    2   11 1 
     7    3    4 ar
     8    3    8 ar
     9    3   11 1 
    10    4    5 ar
    11    4   17 1 
    12    5    6 ar
    13    5   18 1 
    14    6    7 ar
    15    6   19 1 
    16    7    8 ar
    17    7   20 1 
    18    8    9 1 
    19    9   12 ar
    20    9   13 ar
@<TRIPOS>SUBSTRUCTURE
1 MOL         1
@<TRIPOS>MOLECULE
query molecule
   20    20     1     0     0
SMALL
NO_CHARGE

@<TRIPOS>ATOM
      1 C         -41.0476  -30.7262  -16.1921 C.3       1 MOL     0.1362
      2 C         -41.9520  -31.8125  -15.7376 C.2       1 MOL     0.3092
      3 C         -43.6342  -30.3516  -14.7487 C.ar      1 MOL     0.1404
      4 C         -44.4912  -29.6656  -15.5828 C.ar      1 MOL     0.0468
      5 C         -45.0230  -28.4284  -15.2774 C.ar      1 MOL     0.0037
      6 C         -44.6793  -27.8528  -14.0782 C.ar      1 MOL     0.0009
      7 C         -43.8261  -28.4949  -13.2074 C.ar      1 MOL     0.0131
      8 C         -43.3091  -29.7448  -13.5511 C.ar      1 MOL     0.0397
      9 C         -42.4101  -30.3897  -12.6015 C.2       1 MOL     0.0752
     10 O         -41.7326  -33.0352  -15.9940 O.2       1 MOL    -0.2507
     11 O         -43.0847  -31.5774  -15.0105 O.3       1 MOL    -0.4254
     12 O         -41.4556  -31.1060  -12.9982 O.co2     1 MOL    -0.5445
     13 O         -42.5727  -30.2413  -11.2344 O.co2     1 MOL    -0.5445
     14 H         -40.2313  -31.1484  -16.7401 H         1 MOL     0.0342
     15 H         -40.6706  -30.1973  -15.3420 H         1 MOL     0.0342
     16 H         -41.5893  -30.0511  -16.8207 H         1 MOL     0.0342
     17 H         -44.7490  -30.0996  -16.4827 H         1 MOL     0.0654
     18 H         -45.6621  -27.9496  -15.9318 H         1 MOL     0.0619
     19 H         -45.0637  -26.9287  -13.8266 H         1 MOL     0.0618
     20 H         -43.5725  -28.0561  -12.3080 H         1 MOL     0.0625
@<TRIPOS>BOND
     1    1    2 1 
     2    1   14 1 
     3    1   15 1 
     4    1   16 1 
     5    2   10 2 
     6    2   11 1 
     7    3    4 ar
     8    3    8 ar
     9    3   11 1 
    10    4    5 ar
    11    4   17 1 
    12    5    6 ar
    13    5   18 1 
    14    6    7 ar
    15    6   19 1 
    16    7    8 ar
    17    7   20 1 
    18    8    9 1 
    19    9   12 ar
    20    9   13 ar
@<TRIPOS>SUBSTRUCTURE
1 MOL         1
@<TRIPOS>MOLECULE
query molecule
   20    20     1     0     0
SMALL
NO_CHARGE

@<TRIPOS>ATOM
      1 C         -29.4217  -56.0737  -14.1863 C.3       1 MOL     0.1362
      2 C         -29.3403  -54.5918  -14.2331 C.2       1 MOL     0.3092
      3 C         -28.4592  -52.8361  -15.6765 C.ar      1 MOL     0.1404
      4 C         -28.8329  -51.5091  -15.6963 C.ar      1 MOL     0.0468
      5 C         -27.9600  -50.4765  -15.9766 C.ar      1 MOL     0.0037
      6 C         -26.6505  -50.7901  -16.2491 C.ar      1 MOL     0.0009
      7 C         -26.2238  -52.1002  -16.2432 C.ar      1 MOL     0.0131
      8 C         -27.1357  -53.1167  -15.9549 C.ar      1 MOL     0.0397
      9 C         -26.6431  -54.4889  -15.9591 C.2       1 MOL     0.0752
     10 O         -29.3118  -53.8765  -13.1861 O.2       1 MOL    -0.2507
     11 O         -29.2892  -53.8897  -15.4042 O.3       1 MOL    -0.4254
     12 O         -26.2472  -55.0310  -17.0226 O.co2     1 MOL    -0.5445
     13 O         -26.5943  -55.2448  -14.7999 O.co2     1 MOL    -0.5445
     14 H         -29.4496  -56.3966  -13.1665 H         1 MOL     0.0342
     15 H         -28.5644  -56.4931  -14.6697 H         1 MOL     0.0342
     16 H         -30.3088  -56.3979  -14.6885 H         1 MOL     0.0342
     17 H         -29.8165  -51.2752  -15.4906 H         1 MOL     0.0654
     18 H         -28.2825  -49.4957  -15.9803 H         1 MOL     0.0619
     19 H         -25.9784  -50.0362  -16.4614 H         1 MOL     0.0618
     20 H         -25.2382  -52.3281  -16.4489 H         1 MOL     0.0625
@<TRIPOS>BOND
     1    1    2 1 
     2    1   14 1 
     3    1   15 1 
     4    1   16 1 
     5    2   10 2 
     6    2   11 1 
     7    3    4 ar
     8    3    8 ar
     9    3   11 1 
    10    4    5 ar
    11    4   17 1 
    12    5    6 ar
    13    5   18 1 
    14    6    7 ar
    15    6   19 1 
    16    7    8 ar
    17    7   20 1 
    18    8    9 1 
    19    9   12 ar
    20    9   13 ar
@<TRIPOS>SUBSTRUCTURE
1 MOL         1
@<TRIPOS>MOLECULE
query molecule
   20    20     1     0     0
SMALL
NO_CHARGE

@<TRIPOS>ATOM
      1 C          -5.6251  -54.6285    9.8991 C.3       1 MOL     0.1362
      2 C          -5.4879  -55.3791   11.1728 C.2       1 MOL     0.3092
      3 C          -5.3915  -57.5388   12.2993 C.ar      1 MOL     0.1404
      4 C          -4.1315  -57.5782   12.8576 C.ar      1 MOL     0.0468
      5 C          -3.7794  -58.4341   13.8824 C.ar      1 MOL     0.0037
      6 C          -4.7367  -59.2902   14.3704 C.ar      1 MOL     0.0009
      7 C          -6.0118  -59.2926   13.8482 C.ar      1 MOL     0.0131
      8 C          -6.3301  -58.4124   12.8129 C.ar      1 MOL     0.0397
      9 C          -7.6903  -58.4473   12.2892 C.2       1 MOL     0.0752
     10 O          -5.0866  -54.8349   12.2459 O.2       1 MOL    -0.2507
     11 O          -5.7836  -56.7084   11.2844 O.3       1 MOL    -0.4254
     12 O          -8.2788  -57.3903   11.9460 O.co2     1 MOL    -0.5445
     13 O          -8.3835  -59.6382   12.1519 O.co2     1 MOL    -0.5445
     14 H          -5.3389  -53.6091   10.0540 H         1 MOL     0.0342
     15 H          -6.6426  -54.6671    9.5706 H         1 MOL     0.0342
     16 H          -4.9935  -55.0684    9.1563 H         1 MOL     0.0342
     17 H          -3.4138  -56.9342   12.4906 H         1 MOL     0.0654
     18 H          -2.8231  -58.4301   14.2718 H         1 MOL     0.0619
     19 H          -4.4985  -59.9395   15.1364 H         1 MOL     0.0618
     20 H          -6.7259  -59.9386   14.2202 H         1 MOL     0.0625
@<TRIPOS>BOND
     1    1    2 1 
     2    1   14 1 
     3    1   15 1 
     4    1   16 1 
     5    2   10 2 
     6    2   11 1 
     7    3    4 ar
     8    3    8 ar
     9    3   11 1 
    10    4    5 ar
    11    4   17 1 
    12    5    6 ar
    13    5   18 1 
    14    6    7 ar
    15    6   19 1 
    16    7    8 ar
    17    7   20 1 
    18    8    9 1 
    19    9   12 ar
    20    9   13 ar
@<TRIPOS>SUBSTRUCTURE
1 MOL         1
@<TRIPOS>MOLECULE
query molecule
   20    20     1     0     0
SMALL
NO_CHARGE

@<TRIPOS>ATOM
      1 C         -25.6312  -84.6232   -4.3142 C.3       1 MOL     0.1362
      2 C         -25.0560  -83.4091   -4.9465 C.2       1 MOL     0.3092
      3 C         -27.0916  -82.0728   -4.8337 C.ar      1 MOL     0.1404
      4 C         -27.5049  -81.8006   -3.5468 C.ar      1 MOL     0.0468
      5 C         -28.8237  -81.5824   -3.2008 C.ar      1 MOL     0.0037
      6 C         -29.7725  -81.6394   -4.1927 C.ar      1 MOL     0.0009
      7 C         -29.4143  -81.9083   -5.4957 C.ar      1 MOL     0.0131
      8 C         -28.0708  -82.1230   -5.8068 C.ar      1 MOL     0.0397
      9 C         -27.7346  -82.4045   -7.1973 C.2       1 MOL     0.0752
     10 O         -23.8341  -83.3249   -5.2760 O.2       1 MOL    -0.2507
     11 O         -25.7979  -82.2950   -5.2210 O.3       1 MOL    -0.4254
     12 O         -26.6357  -82.9341   -7.5028 O.co2     1 MOL    -0.5445
     13 O         -28.6060  -82.0996   -8.2294 O.co2     1 MOL    -0.5445
     14 H         -24.8653  -85.3616   -4.1993 H         1 MOL     0.0342
     15 H         -26.4113  -85.0123   -4.9342 H         1 MOL     0.0342
     16 H         -26.0307  -84.3700   -3.3548 H         1 MOL     0.0342
     17 H         -26.7910  -81.7573   -2.8031 H         1 MOL     0.0654
     18 H         -29.0893  -81.3810   -2.2236 H         1 MOL     0.0619
     19 H         -30.7651  -81.4796   -3.9598 H         1 MOL     0.0618
     20 H         -30.1328  -81.9494   -6.2358 H         1 MOL     0.0625
@<TRIPOS>BOND
     1    1    2 1 
     2    1   14 1 
     3    1   15 1 
     4    1   16 1 
     5    2   10 2 
     6    2   11 1 
     7    3    4 ar
     8    3    8 ar
     9    3   11 1 
    10    4    5 ar
    11    4   17 1 
    12    5    6 ar
    13    5   18 1 
    14    6    7 ar
    15    6   19 1 
    16    7    8 ar
    17    7   20 1 
    18    8    9 1 
    19    9   12 ar
    20    9   13 ar
@<TRIPOS>SUBSTRUCTURE
1 MOL         1
@<TRIPOS>MOLECULE
query molecule
   20    20     1     0     0
SMALL
NO_CHARGE

@<TRIPOS>ATOM
      1 C         -35.2800  -37.8714  -25.1375 C.3       1 MOL     0.1362
      2 C         -36.2277  -37.1103  -25.9904 C.2       1 MOL     0.3092
      3 C         -35.1029  -37.5092  -28.1160 C.ar      1 MOL     0.1404
      4 C         -33.9220  -36.9889  -28.6013 C.ar      1 MOL     0.0468
      5 C         -33.0562  -37.6942  -29.4135 C.ar      1 MOL     0.0037
      6 C         -33.3907  -38.9824  -29.7541 C.ar      1 MOL     0.0009
      7 C         -34.5594  -39.5512  -29.2970 C.ar      1 MOL     0.0131
      8 C         -35.4092  -38.8067  -28.4775 C.ar      1 MOL     0.0397
      9 C         -36.6355  -39.4460  -28.0157 C.2       1 MOL     0.0752
     10 O         -37.3248  -36.6512  -25.5498 O.2       1 MOL    -0.2507
     11 O         -35.9891  -36.8474  -27.3099 O.3       1 MOL    -0.4254
     12 O         -37.6713  -39.4497  -28.7288 O.co2     1 MOL    -0.5445
     13 O         -36.7075  -40.0683  -26.7808 O.co2     1 MOL    -0.5445
     14 H         -35.6773  -37.9506  -24.1471 H         1 MOL     0.0342
     15 H         -34.3406  -37.3605  -25.1050 H         1 MOL     0.0342
     16 H         -35.1399  -38.8500  -25.5460 H         1 MOL     0.0342
     17 H         -33.6718  -36.0215  -28.3440 H         1 MOL     0.0654
     18 H         -32.1810  -37.2655  -29.7545 H         1 MOL     0.0619
     19 H         -32.7600  -39.5307  -30.3598 H         1 MOL     0.0618
     20 H         -34.8041  -40.5198  -29.5570 H         1 MOL     0.0625
@<TRIPOS>BOND
     1    1    2 1 
     2    1   14 1 
     3    1   15 1 
     4    1   16 1 
     5    2   10 2 
     6    2   11 1 
     7    3    4 ar
     8    3    8 ar
     9    3   11 1 
    10    4    5 ar
    11    4   17 1 
    12    5    6 ar
    13    5   18 1 
    14    6    7 ar
    15    6   19 1 
    16    7    8 ar
    17    7   20 1 
    18    8    9 1 
    19    9   12 ar
    20    9   13 ar
@<TRIPOS>SUBSTRUCTURE
1 MOL         1
@<TRIPOS>MOLECULE
query molecule
   20    20     1     0     0
SMALL
NO_CHARGE

@<TRIPOS>ATOM
      1 C          -3.0383  -60.1994    5.3671 C.3       1 MOL     0.1362
      2 C          -3.0331  -58.7889    4.9031 C.2       1 MOL     0.3092
      3 C          -0.9408  -57.9893    5.8649 C.ar      1 MOL     0.1404
      4 C           0.0703  -58.9150    6.0115 C.ar      1 MOL     0.0468
      5 C           1.0251  -58.8484    7.0069 C.ar      1 MOL     0.0037
      6 C           0.9629  -57.8033    7.8964 C.ar      1 MOL     0.0009
      7 C          -0.0272  -56.8504    7.7958 C.ar      1 MOL     0.0131
      8 C          -0.9745  -56.9514    6.7759 C.ar      1 MOL     0.0397
      9 C          -2.0051  -55.9225    6.7051 C.2       1 MOL     0.0752
     10 O          -4.0776  -58.2050    4.4825 O.2       1 MOL    -0.2507
     11 O          -1.9063  -58.0161    4.8953 O.3       1 MOL    -0.4254
     12 O          -2.2536  -55.3289    5.6246 O.co2     1 MOL    -0.5445
     13 O          -2.7443  -55.5595    7.8184 O.co2     1 MOL    -0.5445
     14 H          -4.0276  -60.5982    5.2827 H         1 MOL     0.0342
     15 H          -2.7236  -60.2395    6.3888 H         1 MOL     0.0342
     16 H          -2.3678  -60.7752    4.7644 H         1 MOL     0.0342
     17 H           0.1161  -59.6989    5.3422 H         1 MOL     0.0654
     18 H           1.7660  -59.5638    7.0798 H         1 MOL     0.0619
     19 H           1.6652  -57.7309    8.6492 H         1 MOL     0.0618
     20 H          -0.0675  -56.0678    8.4679 H         1 MOL     0.0625
@<TRIPOS>BOND
     1    1    2 1 
     2    1   14 1 
     3    1   15 1 
     4    1   16 1 
     5    2   10 2 
     6    2   11 1 
     7    3    4 ar
     8    3    8 ar
     9    3   11 1 
    10    4    5 ar
    11    4   17 1 
    12    5    6 ar
    13    5   18 1 
    14    6    7 ar
    15    6   19 1 
    16    7    8 ar
    17    7   20 1 
    18    8    9 1 
    19    9   12 ar
    20    9   13 ar
@<TRIPOS>SUBSTRUCTURE
1 MOL         1
@<TRIPOS>MOLECULE
query molecule
   20    20     1     0     0
SMALL
NO_CHARGE

@<TRIPOS>ATOM
      1 C         -14.8026  -76.8446   32.4522 C.3       1 MOL     0.1362
      2 C         -14.0718  -76.1077   31.3902 C.2       1 MOL     0.3092
      3 C         -13.5903  -73.9757   30.3108 C.ar      1 MOL     0.1404
      4 C         -12.5582  -73.2231   30.8296 C.ar      1 MOL     0.0468
      5 C         -11.7790  -72.3733   30.0697 C.ar      1 MOL     0.0037
      6 C         -12.0475  -72.2747   28.7260 C.ar      1 MOL     0.0009
      7 C         -13.0680  -73.0042   28.1560 C.ar      1 MOL     0.0131
      8 C         -13.8338  -73.8530   28.9567 C.ar      1 MOL     0.0397
      9 C         -14.9036  -74.6068   28.3140 C.2       1 MOL     0.0752
     10 O         -13.1042  -76.6177   30.7480 O.2       1 MOL    -0.2507
     11 O         -14.3866  -74.8291   31.0255 O.3       1 MOL    -0.4254
     12 O         -14.6460  -75.5227   27.4917 O.co2     1 MOL    -0.5445
     13 O         -16.2367  -74.3438   28.5810 O.co2     1 MOL    -0.5445
     14 H         -14.3815  -77.8222   32.5613 H         1 MOL     0.0342
     15 H         -15.8343  -76.9289   32.1820 H         1 MOL     0.0342
     16 H         -14.7182  -76.3136   33.3769 H         1 MOL     0.0342
     17 H         -12.3572  -73.2989   31.8387 H         1 MOL     0.0654
     18 H         -11.0149  -71.8279   30.4995 H         1 MOL     0.0619
     19 H         -11.4791  -71.6466   28.1364 H         1 MOL     0.0618
     20 H         -13.2638  -72.9250   27.1455 H         1 MOL     0.0625
@<TRIPOS>BOND
     1    1    2 1 
     2    1   14 1 
     3    1   15 1 
     4    1   16 1 
     5    2   10 2 
     6    2   11 1 
     7    3    4 ar
     8    3    8 ar
     9    3   11 1 
    10    4    5 ar
    11    4   17 1 
    12    5    6 ar
    13    5   18 1 
    14    6    7 ar
    15    6   19 1 
    16    7    8 ar
    17    7   20 1 
    18    8    9 1 
    19    9   12 ar
    20    9   13 ar
@<TRIPOS>SUBSTRUCTURE
1 MOL         1
@<TRIPOS>MOLECULE
query molecule
   20    20     1     0     0
SMALL
NO_CHARGE

@<TRIPOS>ATOM
      1 C         -21.2651  -29.0944  -26.0159 C.3       1 MOL     0.1362
      2 C         -21.2987  -30.5615  -26.2423 C.2       1 MOL     0.3092
      3 C         -20.2195  -32.7420  -26.0901 C.ar      1 MOL     0.1404
      4 C         -20.8492  -33.6678  -25.2855 C.ar      1 MOL     0.0468
      5 C         -20.7834  -35.0307  -25.4976 C.ar      1 MOL     0.0037
      6 C         -20.0521  -35.4860  -26.5678 C.ar      1 MOL     0.0009
      7 C         -19.4024  -34.6040  -27.4036 C.ar      1 MOL     0.0131
      8 C         -19.4926  -33.2333  -27.1571 C.ar      1 MOL     0.0397
      9 C         -18.7904  -32.3346  -28.0653 C.2       1 MOL     0.0752
     10 O         -22.2985  -31.1503  -26.7546 O.2       1 MOL    -0.2507
     11 O         -20.2577  -31.3849  -25.9175 O.3       1 MOL    -0.4254
     12 O         -18.3284  -32.7508  -29.1584 O.co2     1 MOL    -0.5445
     13 O         -18.6040  -30.9967  -27.7607 O.co2     1 MOL    -0.5445
     14 H         -22.1861  -28.6620  -26.3470 H         1 MOL     0.0342
     15 H         -20.4527  -28.6675  -26.5658 H         1 MOL     0.0342
     16 H         -21.1322  -28.8977  -24.9728 H         1 MOL     0.0342
     17 H         -21.3987  -33.3242  -24.4827 H         1 MOL     0.0654
     18 H         -21.2713  -35.6893  -24.8697 H         1 MOL     0.0619
     19 H         -19.9877  -36.5002  -26.7479 H         1 MOL     0.0618
     20 H         -18.8548  -34.9536  -28.2058 H         1 MOL     0.0625
@<TRIPOS>BOND
     1    1    2 1 
     2    1   14 1 
     3    1   15 1 
     4    1   16 1 
     5    2   10 2 
     6    2   11 1 
     7    3    4 ar
     8    3    8 ar
     9    3   11 1 
    10    4    5 ar
    11    4   17 1 
    12    5    6 ar
    13    5   18 1 
    14    6    7 ar
    15    6   19 1 
    16    7    8 ar
    17    7   20 1 
    18    8    9 1 
    19    9   12 ar
    20    9   13 ar
@<TRIPOS>SUBSTRUCTURE
1 MOL         1
@<TRIPOS>MOLECULE
query molecule
   20    20     1     0     0
SMALL
NO_CHARGE

@<TRIPOS>ATOM
      1 C         -65.4339  -50.2798   33.2010 C.3       1 MOL     0.1362
      2 C         -65.0139  -49.1065   32.3938 C.2       1 MOL     0.3092
      3 C         -63.6296  -47.1172   32.1312 C.ar      1 MOL     0.1404
      4 C         -64.3496  -45.9738   31.8569 C.ar      1 MOL     0.0468
      5 C         -63.8406  -44.9063   31.1442 C.ar      1 MOL     0.0037
      6 C         -62.5482  -44.9895   30.6858 C.ar      1 MOL     0.0009
      7 C         -61.7844  -46.1097   30.9313 C.ar      1 MOL     0.0131
      8 C         -62.3337  -47.1685   31.6559 C.ar      1 MOL     0.0397
      9 C         -61.4916  -48.3348   31.8935 C.2       1 MOL     0.0752
     10 O         -65.4837  -48.8685   31.2399 O.2       1 MOL    -0.2507
     11 O         -64.0932  -48.1972   32.8325 O.3       1 MOL    -0.4254
     12 O         -61.9810  -49.4931   31.9125 O.co2     1 MOL    -0.5445
     13 O         -60.1290  -48.2131   32.1081 O.co2     1 MOL    -0.5445
     14 H         -66.1603  -50.8454   32.6557 H         1 MOL     0.0342
     15 H         -65.8620  -49.9438   34.1221 H         1 MOL     0.0342
     16 H         -64.5827  -50.8942   33.4063 H         1 MOL     0.0342
     17 H         -65.3198  -45.9125   32.2025 H         1 MOL     0.0654
     18 H         -64.4153  -44.0681   30.9617 H         1 MOL     0.0619
     19 H         -62.1446  -44.2047   30.1508 H         1 MOL     0.0618
     20 H         -60.8139  -46.1650   30.5838 H         1 MOL     0.0625
@<TRIPOS>BOND
     1    1    2 1 
     2    1   14 1 
     3    1   15 1 
     4    1   16 1 
     5    2   10 2 
     6    2   11 1 
     7    3    4 ar
     8    3    8 ar
     9    3   11 1 
    10    4    5 ar
    11    4   17 1 
    12    5    6 ar
    13    5   18 1 
    14    6    7 ar
    15    6   19 1 
    16    7    8 ar
    17    7   20 1 
    18    8    9 1 
    19    9   12 ar
    20    9   13 ar
@<TRIPOS>SUBSTRUCTURE
1 MOL         1
@<TRIPOS>MOLECULE
query molecule
   20    20     1     0     0
SMALL
NO_CHARGE

@<TRIPOS>ATOM
      1 C         -41.4201  -65.8608  -13.0043 C.3       1 MOL     0.1362
      2 C         -42.6369  -65.0098  -13.0169 C.2       1 MOL     0.3092
      3 C         -42.6300  -64.5961  -15.4192 C.ar      1 MOL     0.1404
      4 C         -41.6103  -63.8686  -15.9953 C.ar      1 MOL     0.0468
      5 C         -41.1531  -64.0844  -17.2803 C.ar      1 MOL     0.0037
      6 C         -41.7464  -65.0772  -18.0217 C.ar      1 MOL     0.0009
      7 C         -42.7701  -65.8340  -17.4947 C.ar      1 MOL     0.0131
      8 C         -43.2047  -65.5865  -16.1918 C.ar      1 MOL     0.0397
      9 C         -44.2902  -66.4098  -15.6726 C.2       1 MOL     0.0752
     10 O         -43.3162  -64.7750  -11.9718 O.2       1 MOL    -0.2507
     11 O         -43.1140  -64.4168  -14.1516 O.3       1 MOL    -0.4254
     12 O         -44.1309  -67.6417  -15.4761 O.co2     1 MOL    -0.5445
     13 O         -45.5317  -65.8712  -15.3793 O.co2     1 MOL    -0.5445
     14 H         -41.2418  -66.2122  -12.0095 H         1 MOL     0.0342
     15 H         -40.5803  -65.2866  -13.3355 H         1 MOL     0.0342
     16 H         -41.5621  -66.6952  -13.6584 H         1 MOL     0.0342
     17 H         -41.1653  -63.1239  -15.4369 H         1 MOL     0.0654
     18 H         -40.3858  -63.5157  -17.6726 H         1 MOL     0.0619
     19 H         -41.4224  -65.2582  -18.9848 H         1 MOL     0.0618
     20 H         -43.2110  -66.5784  -18.0579 H         1 MOL     0.0625
@<TRIPOS>BOND
     1    1    2 1 
     2    1   14 1 
     3    1   15 1 
     4    1   16 1 
     5    2   10 2 
     6    2   11 1 
     7    3    4 ar
     8    3    8 ar
     9    3   11 1 
    10    4    5 ar
    11    4   17 1 
    12    5    6 ar
    13    5   18 1 
    14    6    7 ar
    15    6   19 1 
    16    7    8 ar
    17    7   20 1 
    18    8    9 1 
    19    9   12 ar
    20    9   13 ar
@<TRIPOS>SUBSTRUCTURE
1 MOL         1
@<TRIPOS>MOLECULE
query molecule
   20    20     1     0     0
SMALL
NO_CHARGE

@<TRIPOS>ATOM
      1 C         -43.8261  -77.6342   23.2822 C.3       1 MOL     0.1362
      2 C         -44.3638  -78.3426   22.0931 C.2       1 MOL     0.3092
      3 C         -43.2073  -77.0064   20.4141 C.ar      1 MOL     0.1404
      4 C         -43.6993  -75.7219   20.3193 C.ar      1 MOL     0.0468
      5 C         -42.9422  -74.6457   19.9004 C.ar      1 MOL     0.0037
      6 C         -41.6297  -74.8687   19.5613 C.ar      1 MOL     0.0009
      7 C         -41.0875  -76.1331   19.6372 C.ar      1 MOL     0.0131
      8 C         -41.8842  -77.1959   20.0656 C.ar      1 MOL     0.0397
      9 C         -41.2715  -78.5172   20.1316 C.2       1 MOL     0.0752
     10 O         -45.2742  -79.2218   22.1764 O.2       1 MOL    -0.2507
     11 O         -43.9203  -78.1005   20.8236 O.3       1 MOL    -0.4254
     12 O         -40.1785  -78.7531   19.5562 O.co2     1 MOL    -0.5445
     13 O         -41.8666  -79.5581   20.8244 O.co2     1 MOL    -0.5445
     14 H         -44.3232  -77.9869   24.1616 H         1 MOL     0.0342
     15 H         -43.9925  -76.5828   23.1760 H         1 MOL     0.0342
     16 H         -42.7764  -77.8227   23.3647 H         1 MOL     0.0342
     17 H         -44.6849  -75.5559   20.5751 H         1 MOL     0.0654
     18 H         -43.3512  -73.6993   19.8445 H         1 MOL     0.0619
     19 H         -41.0429  -74.0807   19.2454 H         1 MOL     0.0618
     20 H         -40.1003  -76.2929   19.3809 H         1 MOL     0.0625
@<TRIPOS>BOND
     1    1    2 1 
     2    1   14 1 
     3    1   15 1 
     4    1   16 1 
     5    2   10 2 
     6    2   11 1 
     7    3    4 ar
     8    3    8 ar
     9    3   11 1 
    10    4    5 ar
    11    4   17 1 
    12    5    6 ar
    13    5   18 1 
    14    6    7 ar
    15    6   19 1 
    16    7    8 ar
    17    7   20 1 
    18    8    9 1 
    19    9   12 ar
    20    9   13 ar
@<TRIPOS>SUBSTRUCTURE
1 MOL         1
@<TRIPOS>MOLECULE
query molecule
   20    20     1     0     0
SMALL
NO_CHARGE

@<TRIPOS>ATOM
      1 C         -68.3566  -28.6962   21.1771 C.3       1 MOL     0.1362
      2 C         -67.7577  -29.0397   22.4916 C.2       1 MOL     0.3092
      3 C         -65.4330  -28.4199   22.0993 C.ar      1 MOL     0.1404
      4 C         -65.5821  -27.1169   21.6740 C.ar      1 MOL     0.0468
      5 C         -64.5651  -26.3840   21.0948 C.ar      1 MOL     0.0037
      6 C         -63.3408  -26.9866   20.9356 C.ar      1 MOL     0.0009
      7 C         -63.1374  -28.2871   21.3427 C.ar      1 MOL     0.0131
      8 C         -64.1897  -28.9957   21.9245 C.ar      1 MOL     0.0397
      9 C         -63.9321  -30.3689   22.3412 C.2       1 MOL     0.0752
     10 O         -68.4577  -29.2252   23.5329 O.2       1 MOL    -0.2507
     11 O         -66.4115  -29.1823   22.6775 O.3       1 MOL    -0.4254
     12 O         -64.2457  -30.7652   23.4928 O.co2     1 MOL    -0.5445
     13 O         -63.3340  -31.2840   21.4912 O.co2     1 MOL    -0.5445
     14 H         -69.4206  -28.6399   21.2745 H         1 MOL     0.0342
     15 H         -68.1034  -29.4507   20.4621 H         1 MOL     0.0342
     16 H         -67.9770  -27.7516   20.8485 H         1 MOL     0.0342
     17 H         -66.5019  -26.6655   21.7949 H         1 MOL     0.0654
     18 H         -64.7204  -25.4096   20.7907 H         1 MOL     0.0619
     19 H         -62.5644  -26.4599   20.5056 H         1 MOL     0.0618
     20 H         -62.2145  -28.7333   21.2200 H         1 MOL     0.0625
@<TRIPOS>BOND
     1    1    2 1 
     2    1   14 1 
     3    1   15 1 
     4    1   16 1 
     5    2   10 2 
     6    2   11 1 
     7    3    4 ar
     8    3    8 ar
     9    3   11 1 
    10    4    5 ar
    11    4   17 1 
    12    5    6 ar
    13    5   18 1 
    14    6    7 ar
    15    6   19 1 
    16    7    8 ar
    17    7   20 1 
    18    8    9 1 
    19    9   12 ar
    20    9   13 ar
@<TRIPOS>SUBSTRUCTURE
1 MOL         1
@<TRIPOS>MOLECULE
query molecule
   20    20     1     0     0
SMALL
NO_CHARGE

@<TRIPOS>ATOM
      1 C         -68.8321  -30.0542   10.0262 C.3       1 MOL     0.1362
      2 C         -67.6573  -29.1622    9.8554 C.2       1 MOL     0.3092
      3 C         -65.6281  -28.1572   10.7577 C.ar      1 MOL     0.1404
      4 C         -65.5738  -26.7830   10.8557 C.ar      1 MOL     0.0468
      5 C         -64.4038  -26.0576   10.7476 C.ar      1 MOL     0.0037
      6 C         -63.2331  -26.7434   10.5318 C.ar      1 MOL     0.0009
      7 C         -63.2306  -28.1171   10.4255 C.ar      1 MOL     0.0131
      8 C         -64.4334  -28.8157   10.5406 C.ar      1 MOL     0.0397
      9 C         -64.3865  -30.2680   10.4220 C.2       1 MOL     0.0752
     10 O         -67.4051  -28.5674    8.7639 O.2       1 MOL    -0.2507
     11 O         -66.7631  -28.9153   10.8585 O.3       1 MOL    -0.4254
     12 O         -64.8660  -30.8508    9.4160 O.co2     1 MOL    -0.5445
     13 O         -63.8176  -31.0575   11.4072 O.co2     1 MOL    -0.5445
     14 H         -69.3853  -30.0934    9.1111 H         1 MOL     0.0342
     15 H         -69.4585  -29.6731   10.8054 H         1 MOL     0.0342
     16 H         -68.4986  -31.0370   10.2851 H         1 MOL     0.0342
     17 H         -66.4538  -26.2695   11.0185 H         1 MOL     0.0654
     18 H         -64.4087  -25.0283   10.8278 H         1 MOL     0.0619
     19 H         -62.3452  -26.2241   10.4477 H         1 MOL     0.0618
     20 H         -62.3469  -28.6256   10.2634 H         1 MOL     0.0625
@<TRIPOS>BOND
     1    1    2 1 
     2    1   14 1 
     3    1   15 1 
     4    1   16 1 
     5    2   10 2 
     6    2   11 1 
     7    3    4 ar
     8    3    8 ar
     9    3   11 1 
    10    4    5 ar
    11    4   17 1 
    12    5    6 ar
    13    5   18 1 
    14    6    7 ar
    15    6   19 1 
    16    7    8 ar
    17    7   20 1 
    18    8    9 1 
    19    9   12 ar
    20    9   13 ar
@<TRIPOS>SUBSTRUCTURE
1 MOL         1
@<TRIPOS>MOLECULE
query molecule
   20    20     1     0     0
SMALL
NO_CHARGE

@<TRIPOS>ATOM
      1 C         -40.7949  -26.9325   22.6725 C.3       1 MOL     0.1362
      2 C         -41.6131  -27.8425   21.8316 C.2       1 MOL     0.3092
      3 C         -40.5025  -27.3142   19.7269 C.ar      1 MOL     0.1404
      4 C         -40.4319  -25.9660   19.4468 C.ar      1 MOL     0.0468
      5 C         -39.4287  -25.3979   18.6868 C.ar      1 MOL     0.0037
      6 C         -38.4500  -26.2210   18.1848 C.ar      1 MOL     0.0009
      7 C         -38.4728  -27.5760   18.4339 C.ar      1 MOL     0.0131
      8 C         -39.5031  -28.1134   19.2070 C.ar      1 MOL     0.0397
      9 C         -39.4898  -29.5515   19.4466 C.2       1 MOL     0.0752
     10 O         -42.4968  -28.6113   22.3182 O.2       1 MOL    -0.2507
     11 O         -41.4766  -27.9190   20.4742 O.3       1 MOL    -0.4254
     12 O         -38.7125  -30.3066   18.8086 O.co2     1 MOL    -0.5445
     13 O         -40.3288  -30.1385   20.3788 O.co2     1 MOL    -0.5445
     14 H         -41.0778  -27.0452   23.6983 H         1 MOL     0.0342
     15 H         -40.9591  -25.9206   22.3665 H         1 MOL     0.0342
     16 H         -39.7596  -27.1763   22.5582 H         1 MOL     0.0342
     17 H         -41.1672  -25.3490   19.8252 H         1 MOL     0.0654
     18 H         -39.4141  -24.3822   18.5018 H         1 MOL     0.0619
     19 H         -37.6892  -25.8205   17.6140 H         1 MOL     0.0618
     20 H         -37.7339  -28.1882   18.0534 H         1 MOL     0.0625
@<TRIPOS>BOND
     1    1    2 1 
     2    1   14 1 
     3    1   15 1 
     4    1   16 1 
     5    2   10 2 
     6    2   11 1 
     7    3    4 ar
     8    3    8 ar
     9    3   11 1 
    10    4    5 ar
    11    4   17 1 
    12    5    6 ar
    13    5   18 1 
    14    6    7 ar
    15    6   19 1 
    16    7    8 ar
    17    7   20 1 
    18    8    9 1 
    19    9   12 ar
    20    9   13 ar
@<TRIPOS>SUBSTRUCTURE
1 MOL         1
@<TRIPOS>MOLECULE
query molecule
   20    20     1     0     0
SMALL
NO_CHARGE

@<TRIPOS>ATOM
      1 C         -50.6591  -74.4886   12.8002 C.3       1 MOL     0.1362
      2 C         -50.3555  -73.0359   12.7500 C.2       1 MOL     0.3092
      3 C         -50.1374  -71.0036   11.4217 C.ar      1 MOL     0.1404
      4 C         -50.7375  -69.8269   11.8169 C.ar      1 MOL     0.0468
      5 C         -50.2090  -68.5780   11.5568 C.ar      1 MOL     0.0037
      6 C         -49.0222  -68.5064   10.8685 C.ar      1 MOL     0.0009
      7 C         -48.3804  -69.6515   10.4498 C.ar      1 MOL     0.0131
      8 C         -48.9455  -70.8961   10.7318 C.ar      1 MOL     0.0397
      9 C         -48.2343  -72.0824   10.2709 C.2       1 MOL     0.0752
     10 O         -49.8236  -72.4159   13.7203 O.2       1 MOL    -0.2507
     11 O         -50.6247  -72.2606   11.6576 O.3       1 MOL    -0.4254
     12 O         -47.0364  -72.2855   10.5955 O.co2     1 MOL    -0.5445
     13 O         -48.8456  -73.0248    9.4612 O.co2     1 MOL    -0.5445
     14 H         -50.3615  -74.8818   13.7498 H         1 MOL     0.0342
     15 H         -50.1237  -74.9916   12.0225 H         1 MOL     0.0342
     16 H         -51.7095  -74.6380   12.6645 H         1 MOL     0.0342
     17 H         -51.6284  -69.8824   12.3344 H         1 MOL     0.0654
     18 H         -50.6921  -67.7216   11.8719 H         1 MOL     0.0619
     19 H         -48.6064  -67.5847   10.6619 H         1 MOL     0.0618
     20 H         -47.4888  -69.5898    9.9331 H         1 MOL     0.0625
@<TRIPOS>BOND
     1    1    2 1 
     2    1   14 1 
     3    1   15 1 
     4    1   16 1 
     5    2   10 2 
     6    2   11 1 
     7    3    4 ar
     8    3    8 ar
     9    3   11 1 
    10    4    5 ar
    11    4   17 1 
    12    5    6 ar
    13    5   18 1 
    14    6    7 ar
    15    6   19 1 
    16    7    8 ar
    17    7   20 1 
    18    8    9 1 
    19    9   12 ar
    20    9   13 ar
@<TRIPOS>SUBSTRUCTURE
1 MOL         1
@<TRIPOS>MOLECULE
query molecule
   20    20     1     0     0
SMALL
NO_CHARGE

@<TRIPOS>ATOM
      1 C         -39.2306  -81.6275   17.5748 C.3       1 MOL     0.1362
      2 C         -38.1173  -81.0523   16.7783 C.2       1 MOL     0.3092
      3 C         -37.0973  -79.3558   18.2010 C.ar      1 MOL     0.1404
      4 C         -35.8909  -79.7352   18.7501 C.ar      1 MOL     0.0468
      5 C         -35.4171  -79.2527   19.9540 C.ar      1 MOL     0.0037
      6 C         -36.1897  -78.3463   20.6388 C.ar      1 MOL     0.0009
      7 C         -37.4041  -77.9334   20.1356 C.ar      1 MOL     0.0131
      8 C         -37.8494  -78.4433   18.9151 C.ar      1 MOL     0.0397
      9 C         -39.1396  -77.9803   18.4184 C.2       1 MOL     0.0752
     10 O         -37.5662  -81.6794   15.8235 O.2       1 MOL    -0.2507
     11 O         -37.6051  -79.8075   17.0130 O.3       1 MOL    -0.4254
     12 O         -40.1949  -78.6176   18.6665 O.co2     1 MOL    -0.5445
     13 O         -39.2522  -76.8290   17.6572 O.co2     1 MOL    -0.5445
     14 H         -39.4604  -82.6068   17.2100 H         1 MOL     0.0342
     15 H         -40.0937  -81.0018   17.4845 H         1 MOL     0.0342
     16 H         -38.9396  -81.6877   18.6024 H         1 MOL     0.0342
     17 H         -35.3115  -80.4154   18.2342 H         1 MOL     0.0654
     18 H         -34.5067  -79.5639   20.3287 H         1 MOL     0.0619
     19 H         -35.8576  -77.9706   21.5408 H         1 MOL     0.0618
     20 H         -37.9792  -77.2519   20.6558 H         1 MOL     0.0625
@<TRIPOS>BOND
     1    1    2 1 
     2    1   14 1 
     3    1   15 1 
     4    1   16 1 
     5    2   10 2 
     6    2   11 1 
     7    3    4 ar
     8    3    8 ar
     9    3   11 1 
    10    4    5 ar
    11    4   17 1 
    12    5    6 ar
    13    5   18 1 
    14    6    7 ar
    15    6   19 1 
    16    7    8 ar
    17    7   20 1 
    18    8    9 1 
    19    9   12 ar
    20    9   13 ar
@<TRIPOS>SUBSTRUCTURE
1 MOL         1
@<TRIPOS>MOLECULE
query molecule
   20    20     1     0     0
SMALL
NO_CHARGE

@<TRIPOS>ATOM
      1 C         -25.0098  -77.4886    8.1841 C.3       1 MOL     0.1362
      2 C         -23.8762  -76.5698    7.9091 C.2       1 MOL     0.3092
      3 C         -23.7231  -75.1058    5.9660 C.ar      1 MOL     0.1404
      4 C         -24.9782  -74.5884    5.7248 C.ar      1 MOL     0.0468
      5 C         -25.1971  -73.4124    5.0351 C.ar      1 MOL     0.0037
      6 C         -24.1055  -72.7226    4.5661 C.ar      1 MOL     0.0009
      7 C         -22.8288  -73.1951    4.7788 C.ar      1 MOL     0.0131
      8 C         -22.6475  -74.3877    5.4809 C.ar      1 MOL     0.0397
      9 C         -21.2806  -74.8522    5.6841 C.2       1 MOL     0.0752
     10 O         -23.2158  -76.0052    8.8330 O.2       1 MOL    -0.2507
     11 O         -23.4601  -76.2654    6.6437 O.3       1 MOL    -0.4254
     12 O         -21.0405  -75.8721    6.3796 O.co2     1 MOL    -0.5445
     13 O         -20.1999  -74.1915    5.1243 O.co2     1 MOL    -0.5445
     14 H         -25.1499  -77.5745    9.2414 H         1 MOL     0.0342
     15 H         -24.7947  -78.4528    7.7735 H         1 MOL     0.0342
     16 H         -25.9000  -77.1004    7.7357 H         1 MOL     0.0342
     17 H         -25.7969  -75.1072    6.0783 H         1 MOL     0.0654
     18 H         -26.1549  -73.0607    4.8771 H         1 MOL     0.0619
     19 H         -24.2427  -71.8408    4.0478 H         1 MOL     0.0618
     20 H         -22.0133  -72.6712    4.4235 H         1 MOL     0.0625
@<TRIPOS>BOND
     1    1    2 1 
     2    1   14 1 
     3    1   15 1 
     4    1   16 1 
     5    2   10 2 
     6    2   11 1 
     7    3    4 ar
     8    3    8 ar
     9    3   11 1 
    10    4    5 ar
    11    4   17 1 
    12    5    6 ar
    13    5   18 1 
    14    6    7 ar
    15    6   19 1 
    16    7    8 ar
    17    7   20 1 
    18    8    9 1 
    19    9   12 ar
    20    9   13 ar
@<TRIPOS>SUBSTRUCTURE
1 MOL         1
@<TRIPOS>MOLECULE
query molecule
   20    20     1     0     0
SMALL
NO_CHARGE

@<TRIPOS>ATOM
      1 C         -44.9386  -51.1461  -24.8016 C.3       1 MOL     0.1362
      2 C         -45.6140  -52.0176  -23.8069 C.2       1 MOL     0.3092
      3 C         -46.5879  -53.5611  -25.4228 C.ar      1 MOL     0.1404
      4 C         -47.7018  -53.1562  -26.1273 C.ar      1 MOL     0.0468
      5 C         -47.9867  -53.5800  -27.4103 C.ar      1 MOL     0.0037
      6 C         -47.1126  -54.4503  -28.0151 C.ar      1 MOL     0.0009
      7 C         -45.9842  -54.8872  -27.3560 C.ar      1 MOL     0.0131
      8 C         -45.7298  -54.4363  -26.0599 C.ar      1 MOL     0.0397
      9 C         -44.5251  -54.9228  -25.3983 C.2       1 MOL     0.0752
     10 O         -45.6310  -51.7518  -22.5668 O.2       1 MOL    -0.2507
     11 O         -46.2668  -53.1672  -24.1521 O.3       1 MOL    -0.4254
     12 O         -43.4602  -54.2544  -25.4200 O.co2     1 MOL    -0.5445
     13 O         -44.5062  -56.1335  -24.7263 O.co2     1 MOL    -0.5445
     14 H         -44.4998  -50.3084  -24.3010 H         1 MOL     0.0342
     15 H         -45.6552  -50.7992  -25.5162 H         1 MOL     0.0342
     16 H         -44.1754  -51.7030  -25.3032 H         1 MOL     0.0342
     17 H         -48.3569  -52.5020  -25.6720 H         1 MOL     0.0654
     18 H         -48.8330  -53.2509  -27.9018 H         1 MOL     0.0619
     19 H         -47.3030  -54.7815  -28.9738 H         1 MOL     0.0618
     20 H         -45.3318  -55.5411  -27.8170 H         1 MOL     0.0625
@<TRIPOS>BOND
     1    1    2 1 
     2    1   14 1 
     3    1   15 1 
     4    1   16 1 
     5    2   10 2 
     6    2   11 1 
     7    3    4 ar
     8    3    8 ar
     9    3   11 1 
    10    4    5 ar
    11    4   17 1 
    12    5    6 ar
    13    5   18 1 
    14    6    7 ar
    15    6   19 1 
    16    7    8 ar
    17    7   20 1 
    18    8    9 1 
    19    9   12 ar
    20    9   13 ar
@<TRIPOS>SUBSTRUCTURE
1 MOL         1
@<TRIPOS>MOLECULE
query molecule
   20    20     1     0     0
SMALL
NO_CHARGE

@<TRIPOS>ATOM
      1 C         -35.8737  -33.9126   32.1845 C.3       1 MOL     0.1362
      2 C         -35.0985  -35.1774   32.2486 C.2       1 MOL     0.3092
      3 C         -35.2389  -35.6785   29.8671 C.ar      1 MOL     0.1404
      4 C         -36.4621  -35.9623   29.2977 C.ar      1 MOL     0.0468
      5 C         -36.7839  -35.6526   27.9911 C.ar      1 MOL     0.0037
      6 C         -35.8340  -35.0280   27.2198 C.ar      1 MOL     0.0009
      7 C         -34.5949  -34.7218   27.7387 C.ar      1 MOL     0.0131
      8 C         -34.3068  -35.0503   29.0642 C.ar      1 MOL     0.0397
      9 C         -32.9842  -34.7088   29.5740 C.2       1 MOL     0.0752
     10 O         -34.5886  -35.6116   33.3258 O.2       1 MOL    -0.2507
     11 O         -34.8777  -35.9667   31.1553 O.3       1 MOL    -0.4254
     12 O         -32.4269  -35.4155   30.4523 O.co2     1 MOL    -0.5445
     13 O         -32.2953  -33.5986   29.1152 O.co2     1 MOL    -0.5445
     14 H         -35.9146  -33.4705   33.1581 H         1 MOL     0.0342
     15 H         -36.8668  -34.1202   31.8452 H         1 MOL     0.0342
     16 H         -35.3983  -33.2373   31.5047 H         1 MOL     0.0342
     17 H         -37.1747  -36.4307   29.8785 H         1 MOL     0.0654
     18 H         -37.7132  -35.8832   27.6049 H         1 MOL     0.0619
     19 H         -36.0502  -34.7858   26.2401 H         1 MOL     0.0618
     20 H         -33.8862  -34.2522   27.1531 H         1 MOL     0.0625
@<TRIPOS>BOND
     1    1    2 1 
     2    1   14 1 
     3    1   15 1 
     4    1   16 1 
     5    2   10 2 
     6    2   11 1 
     7    3    4 ar
     8    3    8 ar
     9    3   11 1 
    10    4    5 ar
    11    4   17 1 
    12    5    6 ar
    13    5   18 1 
    14    6    7 ar
    15    6   19 1 
    16    7    8 ar
    17    7   20 1 
    18    8    9 1 
    19    9   12 ar
    20    9   13 ar
@<TRIPOS>SUBSTRUCTURE
1 MOL         1
@<TRIPOS>MOLECULE
query molecule
   20    20     1     0     0
SMALL
NO_CHARGE

@<TRIPOS>ATOM
      1 C          -9.2735  -46.4318  -14.8783 C.3       1 MOL     0.1362
      2 C         -10.4620  -46.2106  -15.7405 C.2       1 MOL     0.3092
      3 C         -11.0037  -43.8614  -15.3795 C.ar      1 MOL     0.1404
      4 C         -12.1041  -43.5858  -14.5960 C.ar      1 MOL     0.0468
      5 C         -12.2190  -42.4517  -13.8166 C.ar      1 MOL     0.0037
      6 C         -11.1806  -41.5522  -13.8233 C.ar      1 MOL     0.0009
      7 C         -10.0575  -41.7783  -14.5887 C.ar      1 MOL     0.0131
      8 C          -9.9777  -42.9366  -15.3633 C.ar      1 MOL     0.0397
      9 C          -8.7723  -43.1373  -16.1585 C.2       1 MOL     0.0752
     10 O         -11.2013  -47.1604  -16.1404 O.2       1 MOL    -0.2507
     11 O         -10.8477  -44.9707  -16.1658 O.3       1 MOL    -0.4254
     12 O          -8.7345  -44.0043  -17.0686 O.co2     1 MOL    -0.5445
     13 O          -7.6285  -42.3872  -15.9424 O.co2     1 MOL    -0.5445
     14 H          -9.1709  -47.4773  -14.6749 H         1 MOL     0.0342
     15 H          -9.3969  -45.9000  -13.9582 H         1 MOL     0.0342
     16 H          -8.3980  -46.0775  -15.3805 H         1 MOL     0.0342
     17 H         -12.8828  -44.2627  -14.5915 H         1 MOL     0.0654
     18 H         -13.0618  -42.2849  -13.2440 H         1 MOL     0.0619
     19 H         -11.2421  -40.6969  -13.2490 H         1 MOL     0.0618
     20 H          -9.2811  -41.0979  -14.5885 H         1 MOL     0.0625
@<TRIPOS>BOND
     1    1    2 1 
     2    1   14 1 
     3    1   15 1 
     4    1   16 1 
     5    2   10 2 
     6    2   11 1 
     7    3    4 ar
     8    3    8 ar
     9    3   11 1 
    10    4    5 ar
    11    4   17 1 
    12    5    6 ar
    13    5   18 1 
    14    6    7 ar
    15    6   19 1 
    16    7    8 ar
    17    7   20 1 
    18    8    9 1 
    19    9   12 ar
    20    9   13 ar
@<TRIPOS>SUBSTRUCTURE
1 MOL         1
@<TRIPOS>MOLECULE
query molecule
   20    20     1     0     0
SMALL
NO_CHARGE

@<TRIPOS>ATOM
      1 C         -11.6338  -33.6784  -11.8130 C.3       1 MOL     0.1362
      2 C         -10.4936  -32.7959  -11.4582 C.2       1 MOL     0.3092
      3 C         -10.8437  -32.8962   -9.0478 C.ar      1 MOL     0.1404
      4 C         -10.8204  -34.1752   -8.5334 C.ar      1 MOL     0.0468
      5 C         -11.5109  -34.5520   -7.3986 C.ar      1 MOL     0.0037
      6 C         -12.2595  -33.6007   -6.7489 C.ar      1 MOL     0.0009
      7 C         -12.3181  -32.3074   -7.2205 C.ar      1 MOL     0.0131
      8 C         -11.6060  -31.9643   -8.3707 C.ar      1 MOL     0.0397
      9 C         -11.6952  -30.5854   -8.8358 C.2       1 MOL     0.0752
     10 O          -9.7364  -32.2746  -12.3320 O.2       1 MOL    -0.2507
     11 O         -10.1760  -32.4794  -10.1675 O.3       1 MOL    -0.4254
     12 O         -11.7165  -29.6278   -8.0209 O.co2     1 MOL    -0.5445
     13 O         -11.7617  -30.2784  -10.1844 O.co2     1 MOL    -0.5445
     14 H         -11.6871  -33.7807  -12.8768 H         1 MOL     0.0342
     15 H         -12.5437  -33.2482  -11.4502 H         1 MOL     0.0342
     16 H         -11.4917  -34.6406  -11.3678 H         1 MOL     0.0342
     17 H         -10.2572  -34.8883   -9.0221 H         1 MOL     0.0654
     18 H         -11.4651  -35.5219   -7.0475 H         1 MOL     0.0619
     19 H         -12.7845  -33.8573   -5.8983 H         1 MOL     0.0618
     20 H         -12.8826  -31.5979   -6.7268 H         1 MOL     0.0625
@<TRIPOS>BOND
     1    1    2 1 
     2    1   14 1 
     3    1   15 1 
     4    1   16 1 
     5    2   10 2 
     6    2   11 1 
     7    3    4 ar
     8    3    8 ar
     9    3   11 1 
    10    4    5 ar
    11    4   17 1 
    12    5    6 ar
    13    5   18 1 
    14    6    7 ar
    15    6   19 1 
    16    7    8 ar
    17    7   20 1 
    18    8    9 1 
    19    9   12 ar
    20    9   13 ar
@<TRIPOS>SUBSTRUCTURE
1 MOL         1
@<TRIPOS>MOLECULE
query molecule
   20    20     1     0     0
SMALL
NO_CHARGE

@<TRIPOS>ATOM
      1 C         -28.4377  -72.2223   -4.5777 C.3       1 MOL     0.1362
      2 C         -27.7385  -71.3379   -3.6114 C.2       1 MOL     0.3092
      3 C         -26.6787  -71.0324   -1.4375 C.ar      1 MOL     0.1404
      4 C         -27.0369  -69.8718   -0.7852 C.ar      1 MOL     0.0468
      5 C         -26.2130  -69.2146    0.1070 C.ar      1 MOL     0.0037
      6 C         -24.9717  -69.7475    0.3571 C.ar      1 MOL     0.0009
      7 C         -24.5631  -70.9054   -0.2680 C.ar      1 MOL     0.0131
      8 C         -25.4241  -71.5414   -1.1635 C.ar      1 MOL     0.0397
      9 C         -24.9529  -72.7638   -1.8032 C.2       1 MOL     0.0752
     10 O         -27.3509  -70.1686   -3.9134 O.2       1 MOL    -0.2507
     11 O         -27.4619  -71.7159   -2.3278 O.3       1 MOL    -0.4254
     12 O         -24.4593  -72.7400   -2.9597 O.co2     1 MOL    -0.5445
     13 O         -25.0318  -73.9913   -1.1672 O.co2     1 MOL    -0.5445
     14 H         -28.5428  -71.7144   -5.5135 H         1 MOL     0.0342
     15 H         -29.4058  -72.4716   -4.1966 H         1 MOL     0.0342
     16 H         -27.8685  -73.1170   -4.7183 H         1 MOL     0.0342
     17 H         -27.9698  -69.4732   -0.9735 H         1 MOL     0.0654
     18 H         -26.5219  -68.3471    0.5741 H         1 MOL     0.0619
     19 H         -24.3374  -69.2753    1.0203 H         1 MOL     0.0618
     20 H         -23.6288  -71.3000   -0.0750 H         1 MOL     0.0625
@<TRIPOS>BOND
     1    1    2 1 
     2    1   14 1 
     3    1   15 1 
     4    1   16 1 
     5    2   10 2 
     6    2   11 1 
     7    3    4 ar
     8    3    8 ar
     9    3   11 1 
    10    4    5 ar
    11    4   17 1 
    12    5    6 ar
    13    5   18 1 
    14    6    7 ar
    15    6   19 1 
    16    7    8 ar
    17    7   20 1 
    18    8    9 1 
    19    9   12 ar
    20    9   13 ar
@<TRIPOS>SUBSTRUCTURE
1 MOL         1
@<TRIPOS>MOLECULE
query molecule
   20    20     1     0     0
SMALL
NO_CHARGE

@<TRIPOS>ATOM
      1 C         -29.6196  -39.6786   -0.8931 C.3       1 MOL     0.1362
      2 C         -30.7353  -39.2855   -1.7906 C.2       1 MOL     0.3092
      3 C         -33.1574  -39.5524   -1.8591 C.ar      1 MOL     0.1404
      4 C         -33.9232  -39.1713   -2.9404 C.ar      1 MOL     0.0468
      5 C         -35.2153  -38.6972   -2.8289 C.ar      1 MOL     0.0037
      6 C         -35.7651  -38.6017   -1.5735 C.ar      1 MOL     0.0009
      7 C         -35.0435  -38.9686   -0.4585 C.ar      1 MOL     0.0131
      8 C         -33.7401  -39.4438   -0.6115 C.ar      1 MOL     0.0397
      9 C         -33.0116  -39.8212    0.5937 C.2       1 MOL     0.0752
     10 O         -30.7044  -38.2325   -2.4969 O.2       1 MOL    -0.2507
     11 O         -31.8753  -40.0271   -1.9232 O.3       1 MOL    -0.4254
     12 O         -33.5867  -39.8616    1.7114 O.co2     1 MOL    -0.5445
     13 O         -31.6660  -40.1459    0.5553 O.co2     1 MOL    -0.5445
     14 H         -28.8389  -38.9495   -0.9554 H         1 MOL     0.0342
     15 H         -29.2406  -40.6332   -1.1929 H         1 MOL     0.0342
     16 H         -29.9756  -39.7364    0.1139 H         1 MOL     0.0342
     17 H         -33.5092  -39.2443   -3.8826 H         1 MOL     0.0654
     18 H         -35.7537  -38.4229   -3.6661 H         1 MOL     0.0619
     19 H         -36.7293  -38.2505   -1.4636 H         1 MOL     0.0618
     20 H         -35.4634  -38.8942    0.4816 H         1 MOL     0.0625
@<TRIPOS>BOND
     1    1    2 1 
     2    1   14 1 
     3    1   15 1 
     4    1   16 1 
     5    2   10 2 
     6    2   11 1 
     7    3    4 ar
     8    3    8 ar
     9    3   11 1 
    10    4    5 ar
    11    4   17 1 
    12    5    6 ar
    13    5   18 1 
    14    6    7 ar
    15    6   19 1 
    16    7    8 ar
    17    7   20 1 
    18    8    9 1 
    19    9   12 ar
    20    9   13 ar
@<TRIPOS>SUBSTRUCTURE
1 MOL         1
@<TRIPOS>MOLECULE
query molecule
   20    20     1     0     0
SMALL
NO_CHARGE

@<TRIPOS>ATOM
      1 C         -59.2972  -60.7019  -23.2623 C.3       1 MOL     0.1362
      2 C         -60.3098  -60.8837  -24.3330 C.2       1 MOL     0.3092
      3 C         -61.8391  -59.0524  -24.8328 C.ar      1 MOL     0.1404
      4 C         -61.4779  -58.6110  -26.0881 C.ar      1 MOL     0.0468
      5 C         -61.8081  -57.3640  -26.5808 C.ar      1 MOL     0.0037
      6 C         -62.5357  -56.5207  -25.7766 C.ar      1 MOL     0.0009
      7 C         -62.9223  -56.9113  -24.5131 C.ar      1 MOL     0.0131
      8 C         -62.5699  -58.1799  -24.0501 C.ar      1 MOL     0.0397
      9 C         -62.9989  -58.5537  -22.7077 C.2       1 MOL     0.0752
     10 O         -60.1059  -61.6166  -25.3479 O.2       1 MOL    -0.2507
     11 O         -61.5341  -60.2777  -24.3048 O.3       1 MOL    -0.4254
     12 O         -63.7633  -57.8094  -22.0420 O.co2     1 MOL    -0.5445
     13 O         -62.5823  -59.7345  -22.1164 O.co2     1 MOL    -0.5445
     14 H         -58.4227  -61.2712  -23.4990 H         1 MOL     0.0342
     15 H         -59.7000  -61.0383  -22.3300 H         1 MOL     0.0342
     16 H         -59.0403  -59.6663  -23.1870 H         1 MOL     0.0342
     17 H         -60.9321  -59.2458  -26.6911 H         1 MOL     0.0654
     18 H         -61.5170  -57.0740  -27.5280 H         1 MOL     0.0619
     19 H         -62.7953  -55.5834  -26.1220 H         1 MOL     0.0618
     20 H         -63.4691  -56.2722  -23.9146 H         1 MOL     0.0625
@<TRIPOS>BOND
     1    1    2 1 
     2    1   14 1 
     3    1   15 1 
     4    1   16 1 
     5    2   10 2 
     6    2   11 1 
     7    3    4 ar
     8    3    8 ar
     9    3   11 1 
    10    4    5 ar
    11    4   17 1 
    12    5    6 ar
    13    5   18 1 
    14    6    7 ar
    15    6   19 1 
    16    7    8 ar
    17    7   20 1 
    18    8    9 1 
    19    9   12 ar
    20    9   13 ar
@<TRIPOS>SUBSTRUCTURE
1 MOL         1
@<TRIPOS>MOLECULE
query molecule
   20    20     1     0     0
SMALL
NO_CHARGE

@<TRIPOS>ATOM
      1 C         -50.8608  -70.5842   26.9317 C.3       1 MOL     0.1362
      2 C         -49.9460  -70.1294   28.0093 C.2       1 MOL     0.3092
      3 C         -50.7210  -71.5432   29.8376 C.ar      1 MOL     0.1404
      4 C         -52.0570  -71.8784   29.7763 C.ar      1 MOL     0.0468
      5 C         -52.5739  -73.0456   30.3026 C.ar      1 MOL     0.0037
      6 C         -51.7097  -73.9180   30.9186 C.ar      1 MOL     0.0009
      7 C         -50.3648  -73.6320   31.0081 C.ar      1 MOL     0.0131
      8 C         -49.8795  -72.4421   30.4637 C.ar      1 MOL     0.0397
      9 C         -48.4503  -72.1781   30.5799 C.2       1 MOL     0.0752
     10 O         -48.8964  -69.4569   27.7748 O.2       1 MOL    -0.2507
     11 O         -50.1661  -70.3995   29.3304 O.3       1 MOL    -0.4254
     12 O         -47.8398  -71.5217   29.6980 O.co2     1 MOL    -0.5445
     13 O         -47.7137  -72.6389   31.6581 O.co2     1 MOL    -0.5445
     14 H         -50.4863  -70.2558   25.9847 H         1 MOL     0.0342
     15 H         -51.8344  -70.1710   27.0928 H         1 MOL     0.0342
     16 H         -50.9203  -71.6522   26.9420 H         1 MOL     0.0342
     17 H         -52.7046  -71.2225   29.3127 H         1 MOL     0.0654
     18 H         -53.5822  -73.2573   30.2340 H         1 MOL     0.0619
     19 H         -52.0715  -74.7974   31.3197 H         1 MOL     0.0618
     20 H         -49.7215  -74.2925   31.4723 H         1 MOL     0.0625
@<TRIPOS>BOND
     1    1    2 1 
     2    1   14 1 
     3    1   15 1 
     4    1   16 1 
     5    2   10 2 
     6    2   11 1 
     7    3    4 ar
     8    3    8 ar
     9    3   11 1 
    10    4    5 ar
    11    4   17 1 
    12    5    6 ar
    13    5   18 1 
    14    6    7 ar
    15    6   19 1 
    16    7    8 ar
    17    7   20 1 
    18    8    9 1 
    19    9   12 ar
    20    9   13 ar
@<TRIPOS>SUBSTRUCTURE
1 MOL         1
@<TRIPOS>MOLECULE
query molecule
   20    20     1     0     0
SMALL
NO_CHARGE

@<TRIPOS>ATOM
      1 C          -9.4834  -54.5471   17.0892 C.3       1 MOL     0.1362
      2 C          -9.1750  -55.1805   18.3962 C.2       1 MOL     0.3092
      3 C          -8.1767  -54.9448   20.6076 C.ar      1 MOL     0.1404
      4 C          -9.0349  -54.4696   21.5764 C.ar      1 MOL     0.0468
      5 C          -8.9144  -54.7766   22.9172 C.ar      1 MOL     0.0037
      6 C          -7.8848  -55.5997   23.3042 C.ar      1 MOL     0.0009
      7 C          -6.9980  -56.1022   22.3771 C.ar      1 MOL     0.0131
      8 C          -7.1525  -55.7697   21.0305 C.ar      1 MOL     0.0397
      9 C          -6.1927  -56.3226   20.0824 C.2       1 MOL     0.0752
     10 O          -9.7426  -56.2442   18.7900 O.2       1 MOL    -0.2507
     11 O          -8.2586  -54.6670   19.2700 O.3       1 MOL    -0.4254
     12 O          -5.8357  -55.6701   19.0683 O.co2     1 MOL    -0.5445
     13 O          -5.6419  -57.5806   20.2594 O.co2     1 MOL    -0.5445
     14 H         -10.2269  -55.1245   16.5804 H         1 MOL     0.0342
     15 H          -8.5950  -54.5063   16.4945 H         1 MOL     0.0342
     16 H          -9.8499  -53.5553   17.2514 H         1 MOL     0.0342
     17 H          -9.8081  -53.8522   21.2841 H         1 MOL     0.0654
     18 H          -9.5805  -54.3986   23.6098 H         1 MOL     0.0619
     19 H          -7.7734  -55.8443   24.3006 H         1 MOL     0.0618
     20 H          -6.2268  -56.7203   22.6753 H         1 MOL     0.0625
@<TRIPOS>BOND
     1    1    2 1 
     2    1   14 1 
     3    1   15 1 
     4    1   16 1 
     5    2   10 2 
     6    2   11 1 
     7    3    4 ar
     8    3    8 ar
     9    3   11 1 
    10    4    5 ar
    11    4   17 1 
    12    5    6 ar
    13    5   18 1 
    14    6    7 ar
    15    6   19 1 
    16    7    8 ar
    17    7   20 1 
    18    8    9 1 
    19    9   12 ar
    20    9   13 ar
@<TRIPOS>SUBSTRUCTURE
1 MOL         1
@<TRIPOS>MOLECULE
query molecule
   20    20     1     0     0
SMALL
NO_CHARGE

@<TRIPOS>ATOM
      1 C         -21.2917  -60.6159  -15.7630 C.3       1 MOL     0.1362
      2 C         -21.4236  -59.7424  -16.9565 C.2       1 MOL     0.3092
      3 C         -20.5780  -59.0943  -19.1490 C.ar      1 MOL     0.1404
      4 C         -21.3480  -57.9750  -19.3840 C.ar      1 MOL     0.0468
      5 C         -21.1197  -57.0992  -20.4268 C.ar      1 MOL     0.0037
      6 C         -20.0689  -57.3580  -21.2731 C.ar      1 MOL     0.0009
      7 C         -19.2677  -58.4630  -21.0841 C.ar      1 MOL     0.0131
      8 C         -19.5297  -59.3253  -20.0184 C.ar      1 MOL     0.0397
      9 C         -18.6581  -60.4824  -19.8541 C.2       1 MOL     0.0752
     10 O         -22.1554  -58.7065  -16.9665 O.2       1 MOL    -0.2507
     11 O         -20.7677  -59.9877  -18.1297 O.3       1 MOL    -0.4254
     12 O         -18.9307  -61.3848  -19.0217 O.co2     1 MOL    -0.5445
     13 O         -17.5023  -60.6310  -20.6022 O.co2     1 MOL    -0.5445
     14 H         -21.8936  -60.2265  -14.9686 H         1 MOL     0.0342
     15 H         -20.2680  -60.6444  -15.4536 H         1 MOL     0.0342
     16 H         -21.6182  -61.6049  -16.0074 H         1 MOL     0.0342
     17 H         -22.1364  -57.7816  -18.7471 H         1 MOL     0.0654
     18 H         -21.7216  -56.2719  -20.5660 H         1 MOL     0.0619
     19 H         -19.8773  -56.7183  -22.0599 H         1 MOL     0.0618
     20 H         -18.4798  -58.6509  -21.7240 H         1 MOL     0.0625
@<TRIPOS>BOND
     1    1    2 1 
     2    1   14 1 
     3    1   15 1 
     4    1   16 1 
     5    2   10 2 
     6    2   11 1 
     7    3    4 ar
     8    3    8 ar
     9    3   11 1 
    10    4    5 ar
    11    4   17 1 
    12    5    6 ar
    13    5   18 1 
    14    6    7 ar
    15    6   19 1 
    16    7    8 ar
    17    7   20 1 
    18    8    9 1 
    19    9   12 ar
    20    9   13 ar
@<TRIPOS>SUBSTRUCTURE
1 MOL         1
@<TRIPOS>MOLECULE
query molecule
   20    20     1     0     0
SMALL
NO_CHARGE

@<TRIPOS>ATOM
      1 C         -11.3461  -75.5752    7.6836 C.3       1 MOL     0.1362
      2 C         -12.7939  -75.6408    7.3606 C.2       1 MOL     0.3092
      3 C         -14.7035  -77.0095    6.7107 C.ar      1 MOL     0.1404
      4 C         -14.9094  -77.1629    5.3561 C.ar      1 MOL     0.0468
      5 C         -16.1550  -77.3564    4.7925 C.ar      1 MOL     0.0037
      6 C         -17.2452  -77.3986    5.6273 C.ar      1 MOL     0.0009
      7 C         -17.0961  -77.2503    6.9890 C.ar      1 MOL     0.0131
      8 C         -15.8207  -77.0569    7.5218 C.ar      1 MOL     0.0397
      9 C         -15.7070  -76.9045    8.9673 C.2       1 MOL     0.0752
     10 O         -13.4840  -74.6073    7.1069 O.2       1 MOL    -0.2507
     11 O         -13.4891  -76.8160    7.3115 O.3       1 MOL    -0.4254
     12 O         -14.9370  -77.6395    9.6368 O.co2     1 MOL    -0.5445
     13 O         -16.4396  -75.9518    9.6553 O.co2     1 MOL    -0.5445
     14 H         -11.0223  -74.5556    7.6618 H         1 MOL     0.0342
     15 H         -10.7941  -76.1401    6.9620 H         1 MOL     0.0342
     16 H         -11.1798  -75.9825    8.6587 H         1 MOL     0.0342
     17 H         -14.0895  -77.1318    4.7305 H         1 MOL     0.0654
     18 H         -16.2638  -77.4672    3.7717 H         1 MOL     0.0619
     19 H         -18.1871  -77.5424    5.2305 H         1 MOL     0.0618
     20 H         -17.9200  -77.2833    7.6101 H         1 MOL     0.0625
@<TRIPOS>BOND
     1    1    2 1 
     2    1   14 1 
     3    1   15 1 
     4    1   16 1 
     5    2   10 2 
     6    2   11 1 
     7    3    4 ar
     8    3    8 ar
     9    3   11 1 
    10    4    5 ar
    11    4   17 1 
    12    5    6 ar
    13    5   18 1 
    14    6    7 ar
    15    6   19 1 
    16    7    8 ar
    17    7   20 1 
    18    8    9 1 
    19    9   12 ar
    20    9   13 ar
@<TRIPOS>SUBSTRUCTURE
1 MOL         1
@<TRIPOS>MOLECULE
query molecule
   20    20     1     0     0
SMALL
NO_CHARGE

@<TRIPOS>ATOM
      1 C         -43.5323  -67.9658   -3.1430 C.3       1 MOL     0.1362
      2 C         -42.4751  -67.6375   -2.1534 C.2       1 MOL     0.3092
      3 C         -43.6458  -66.1600   -0.6078 C.ar      1 MOL     0.1404
      4 C         -44.1896  -65.9218    0.6365 C.ar      1 MOL     0.0468
      5 C         -45.0888  -64.9056    0.8925 C.ar      1 MOL     0.0037
      6 C         -45.4592  -64.0896   -0.1488 C.ar      1 MOL     0.0009
      7 C         -44.9464  -64.2837   -1.4128 C.ar      1 MOL     0.0131
      8 C         -44.0393  -65.3214   -1.6326 C.ar      1 MOL     0.0397
      9 C         -43.5208  -65.4922   -2.9845 C.2       1 MOL     0.0752
     10 O         -41.2397  -67.7840   -2.4006 O.2       1 MOL    -0.2507
     11 O         -42.7530  -67.1535   -0.9062 O.3       1 MOL    -0.4254
     12 O         -42.3564  -65.9245   -3.1810 O.co2     1 MOL    -0.5445
     13 O         -44.2848  -65.1848   -4.0978 O.co2     1 MOL    -0.5445
     14 H         -43.0784  -68.3252   -4.0429 H         1 MOL     0.0342
     15 H         -44.1041  -67.0876   -3.3583 H         1 MOL     0.0342
     16 H         -44.1751  -68.7203   -2.7407 H         1 MOL     0.0342
     17 H         -43.9099  -66.5350    1.4177 H         1 MOL     0.0654
     18 H         -45.4715  -64.7625    1.8407 H         1 MOL     0.0619
     19 H         -46.1297  -63.3228    0.0169 H         1 MOL     0.0618
     20 H         -45.2293  -63.6664   -2.1904 H         1 MOL     0.0625
@<TRIPOS>BOND
     1    1    2 1 
     2    1   14 1 
     3    1   15 1 
     4    1   16 1 
     5    2   10 2 
     6    2   11 1 
     7    3    4 ar
     8    3    8 ar
     9    3   11 1 
    10    4    5 ar
    11    4   17 1 
    12    5    6 ar
    13    5   18 1 
    14    6    7 ar
    15    6   19 1 
    16    7    8 ar
    17    7   20 1 
    18    8    9 1 
    19    9   12 ar
    20    9   13 ar
@<TRIPOS>SUBSTRUCTURE
1 MOL         1
@<TRIPOS>MOLECULE
query molecule
   20    20     1     0     0
SMALL
NO_CHARGE

@<TRIPOS>ATOM
      1 C         -49.7393  -69.7777   27.8266 C.3       1 MOL     0.1362
      2 C         -51.1973  -69.5082   27.9072 C.2       1 MOL     0.3092
      3 C         -51.5729  -69.4072   25.5008 C.ar      1 MOL     0.1404
      4 C         -51.1002  -68.3023   24.8251 C.ar      1 MOL     0.0468
      5 C         -50.6828  -68.3355   23.5093 C.ar      1 MOL     0.0037
      6 C         -50.7418  -69.5339   22.8402 C.ar      1 MOL     0.0009
      7 C         -51.2065  -70.6691   23.4677 C.ar      1 MOL     0.0131
      8 C         -51.6192  -70.5961   24.7989 C.ar      1 MOL     0.0397
      9 C         -52.1040  -71.8202   25.4253 C.2       1 MOL     0.0752
     10 O         -51.8003  -69.3405   29.0104 O.2       1 MOL    -0.2507
     11 O         -51.9962  -69.4200   26.8022 O.3       1 MOL    -0.4254
     12 O         -52.9582  -71.7807   26.3473 O.co2     1 MOL    -0.5445
     13 O         -51.6440  -73.0661   25.0332 O.co2     1 MOL    -0.5445
     14 H         -49.3265  -69.8009   28.8135 H         1 MOL     0.0342
     15 H         -49.2648  -69.0043   27.2597 H         1 MOL     0.0342
     16 H         -49.5771  -70.7209   27.3488 H         1 MOL     0.0342
     17 H         -51.0558  -67.4032   25.3293 H         1 MOL     0.0654
     18 H         -50.3350  -67.4832   23.0416 H         1 MOL     0.0619
     19 H         -50.4353  -69.5849   21.8560 H         1 MOL     0.0618
     20 H         -51.2477  -71.5662   22.9585 H         1 MOL     0.0625
@<TRIPOS>BOND
     1    1    2 1 
     2    1   14 1 
     3    1   15 1 
     4    1   16 1 
     5    2   10 2 
     6    2   11 1 
     7    3    4 ar
     8    3    8 ar
     9    3   11 1 
    10    4    5 ar
    11    4   17 1 
    12    5    6 ar
    13    5   18 1 
    14    6    7 ar
    15    6   19 1 
    16    7    8 ar
    17    7   20 1 
    18    8    9 1 
    19    9   12 ar
    20    9   13 ar
@<TRIPOS>SUBSTRUCTURE
1 MOL         1
@<TRIPOS>MOLECULE
query molecule
   20    20     1     0     0
SMALL
NO_CHARGE

@<TRIPOS>ATOM
      1 C         -64.1862  -37.8002    8.5275 C.3       1 MOL     0.1362
      2 C         -64.1812  -36.4211    7.9771 C.2       1 MOL     0.3092
      3 C         -63.5791  -34.2337    8.8687 C.ar      1 MOL     0.1404
      4 C         -63.8315  -32.9735    8.3697 C.ar      1 MOL     0.0468
      5 C         -62.9644  -31.9089    8.5162 C.ar      1 MOL     0.0037
      6 C         -61.7890  -32.1185    9.1959 C.ar      1 MOL     0.0009
      7 C         -61.4866  -33.3585    9.7147 C.ar      1 MOL     0.0131
      8 C         -62.3886  -34.4103    9.5467 C.ar      1 MOL     0.0397
      9 C         -62.0302  -35.7059   10.1111 C.2       1 MOL     0.0752
     10 O         -63.9660  -36.1763    6.7513 O.2       1 MOL    -0.2507
     11 O         -64.4084  -35.3156    8.7473 O.3       1 MOL    -0.4254
     12 O         -61.0622  -36.3655    9.6535 O.co2     1 MOL    -0.5445
     13 O         -62.7385  -36.2581   11.1651 O.co2     1 MOL    -0.5445
     14 H         -63.9864  -38.4980    7.7413 H         1 MOL     0.0342
     15 H         -65.1442  -38.0097    8.9552 H         1 MOL     0.0342
     16 H         -63.4324  -37.8856    9.2816 H         1 MOL     0.0342
     17 H         -64.7150  -32.8175    7.8602 H         1 MOL     0.0654
     18 H         -63.1936  -30.9807    8.1263 H         1 MOL     0.0619
     19 H         -61.1243  -31.3386    9.3190 H         1 MOL     0.0618
     20 H         -60.6015  -33.5084   10.2245 H         1 MOL     0.0625
@<TRIPOS>BOND
     1    1    2 1 
     2    1   14 1 
     3    1   15 1 
     4    1   16 1 
     5    2   10 2 
     6    2   11 1 
     7    3    4 ar
     8    3    8 ar
     9    3   11 1 
    10    4    5 ar
    11    4   17 1 
    12    5    6 ar
    13    5   18 1 
    14    6    7 ar
    15    6   19 1 
    16    7    8 ar
    17    7   20 1 
    18    8    9 1 
    19    9   12 ar
    20    9   13 ar
@<TRIPOS>SUBSTRUCTURE
1 MOL         1
@<TRIPOS>MOLECULE
query molecule
   20    20     1     0     0
SMALL
NO_CHARGE

@<TRIPOS>ATOM
      1 C         -22.4345  -50.5017  -20.2468 C.3       1 MOL     0.1362
      2 C         -22.3859  -49.0644  -20.6165 C.2       1 MOL     0.3092
      3 C         -22.3387  -47.3716  -22.3699 C.ar      1 MOL     0.1404
      4 C         -22.9447  -46.1977  -21.9754 C.ar      1 MOL     0.0468
      5 C         -22.6173  -44.9604  -22.4935 C.ar      1 MOL     0.0037
      6 C         -21.6351  -44.8978  -23.4521 C.ar      1 MOL     0.0009
      7 C         -20.9974  -46.0407  -23.8830 C.ar      1 MOL     0.0131
      8 C         -21.3555  -47.2734  -23.3353 C.ar      1 MOL     0.0397
      9 C         -20.6562  -48.4577  -23.8190 C.2       1 MOL     0.0752
     10 O         -22.1119  -48.1530  -19.7781 O.2       1 MOL    -0.2507
     11 O         -22.6310  -48.6173  -21.8842 O.3       1 MOL    -0.4254
     12 O         -20.1920  -48.5031  -24.9868 O.co2     1 MOL    -0.5445
     13 O         -20.4789  -49.5726  -23.0170 O.co2     1 MOL    -0.5445
     14 H         -22.2086  -50.6095  -19.2064 H         1 MOL     0.0342
     15 H         -21.7158  -51.0430  -20.8256 H         1 MOL     0.0342
     16 H         -23.4131  -50.8870  -20.4421 H         1 MOL     0.0342
     17 H         -23.6816  -46.2463  -21.2548 H         1 MOL     0.0654
     18 H         -23.0968  -44.1057  -22.1687 H         1 MOL     0.0619
     19 H         -21.3720  -43.9848  -23.8548 H         1 MOL     0.0618
     20 H         -20.2602  -45.9858  -24.6036 H         1 MOL     0.0625
@<TRIPOS>BOND
     1    1    2 1 
     2    1   14 1 
     3    1   15 1 
     4    1   16 1 
     5    2   10 2 
     6    2   11 1 
     7    3    4 ar
     8    3    8 ar
     9    3   11 1 
    10    4    5 ar
    11    4   17 1 
    12    5    6 ar
    13    5   18 1 
    14    6    7 ar
    15    6   19 1 
    16    7    8 ar
    17    7   20 1 
    18    8    9 1 
    19    9   12 ar
    20    9   13 ar
@<TRIPOS>SUBSTRUCTURE
1 MOL         1
@<TRIPOS>MOLECULE
query molecule
   20    20     1     0     0
SMALL
NO_CHARGE

@<TRIPOS>ATOM
      1 C         -48.4579  -56.0310  -23.3685 C.3       1 MOL     0.1362
      2 C         -47.2511  -55.1742  -23.2485 C.2       1 MOL     0.3092
      3 C         -46.4235  -56.1600  -21.1784 C.ar      1 MOL     0.1404
      4 C         -47.3743  -56.2884  -20.1882 C.ar      1 MOL     0.0468
      5 C         -47.3329  -57.2674  -19.2153 C.ar      1 MOL     0.0037
      6 C         -46.2888  -58.1599  -19.2373 C.ar      1 MOL     0.0009
      7 C         -45.3109  -58.0767  -20.2044 C.ar      1 MOL     0.0131
      8 C         -45.3872  -57.0734  -21.1716 C.ar      1 MOL     0.0397
      9 C         -44.3324  -57.0207  -22.1767 C.2       1 MOL     0.0752
     10 O         -46.9058  -54.3515  -24.1500 O.2       1 MOL    -0.2507
     11 O         -46.4250  -55.2070  -22.1606 O.3       1 MOL    -0.4254
     12 O         -44.3733  -56.1836  -23.1143 O.co2     1 MOL    -0.5445
     13 O         -43.2521  -57.8862  -22.1394 O.co2     1 MOL    -0.5445
     14 H         -48.9448  -55.8315  -24.3002 H         1 MOL     0.0342
     15 H         -49.1284  -55.8169  -22.5628 H         1 MOL     0.0342
     16 H         -48.1695  -57.0603  -23.3288 H         1 MOL     0.0342
     17 H         -48.1583  -55.6178  -20.1735 H         1 MOL     0.0654
     18 H         -48.0671  -57.3274  -18.4918 H         1 MOL     0.0619
     19 H         -46.2354  -58.9011  -18.5211 H         1 MOL     0.0618
     20 H         -44.5294  -58.7511  -20.2146 H         1 MOL     0.0625
@<TRIPOS>BOND
     1    1    2 1 
     2    1   14 1 
     3    1   15 1 
     4    1   16 1 
     5    2   10 2 
     6    2   11 1 
     7    3    4 ar
     8    3    8 ar
     9    3   11 1 
    10    4    5 ar
    11    4   17 1 
    12    5    6 ar
    13    5   18 1 
    14    6    7 ar
    15    6   19 1 
    16    7    8 ar
    17    7   20 1 
    18    8    9 1 
    19    9   12 ar
    20    9   13 ar
@<TRIPOS>SUBSTRUCTURE
1 MOL         1
@<TRIPOS>MOLECULE
query molecule
   20    20     1     0     0
SMALL
NO_CHARGE

@<TRIPOS>ATOM
      1 C         -46.6252  -69.8898   14.8412 C.3       1 MOL     0.1362
      2 C         -48.0343  -69.8648   15.3088 C.2       1 MOL     0.3092
      3 C         -48.9255  -68.0313   13.9723 C.ar      1 MOL     0.1404
      4 C         -49.4650  -68.4277   12.7670 C.ar      1 MOL     0.0468
      5 C         -49.5065  -67.6188   11.6486 C.ar      1 MOL     0.0037
      6 C         -48.9827  -66.3524   11.7443 C.ar      1 MOL     0.0009
      7 C         -48.4308  -65.9056   12.9251 C.ar      1 MOL     0.0131
      8 C         -48.4075  -66.7523   14.0344 C.ar      1 MOL     0.0397
      9 C         -47.8146  -66.2405   15.2641 C.2       1 MOL     0.0752
     10 O         -48.5639  -70.8343   15.9320 O.2       1 MOL    -0.2507
     11 O         -48.8636  -68.7983   15.1040 O.3       1 MOL    -0.4254
     12 O         -48.5195  -66.0329   16.2847 O.co2     1 MOL    -0.5445
     13 O         -46.4610  -65.9627   15.3550 O.co2     1 MOL    -0.5445
     14 H         -46.1759  -70.8216   15.1147 H         1 MOL     0.0342
     15 H         -46.0846  -69.0863   15.2960 H         1 MOL     0.0342
     16 H         -46.6007  -69.7793   13.7775 H         1 MOL     0.0342
     17 H         -49.8587  -69.3788   12.6969 H         1 MOL     0.0654
     18 H         -49.9206  -67.9563   10.7651 H         1 MOL     0.0619
     19 H         -49.0019  -65.7283   10.9226 H         1 MOL     0.0618
     20 H         -48.0392  -64.9526   12.9896 H         1 MOL     0.0625
@<TRIPOS>BOND
     1    1    2 1 
     2    1   14 1 
     3    1   15 1 
     4    1   16 1 
     5    2   10 2 
     6    2   11 1 
     7    3    4 ar
     8    3    8 ar
     9    3   11 1 
    10    4    5 ar
    11    4   17 1 
    12    5    6 ar
    13    5   18 1 
    14    6    7 ar
    15    6   19 1 
    16    7    8 ar
    17    7   20 1 
    18    8    9 1 
    19    9   12 ar
    20    9   13 ar
@<TRIPOS>SUBSTRUCTURE
1 MOL         1
@<TRIPOS>MOLECULE
query molecule
   20    20     1     0     0
SMALL
NO_CHARGE

@<TRIPOS>ATOM
      1 C         -19.9552  -35.1845   15.7358 C.3       1 MOL     0.1362
      2 C         -18.7693  -35.0646   16.6214 C.2       1 MOL     0.3092
      3 C         -17.3673  -36.2537   18.2222 C.ar      1 MOL     0.1404
      4 C         -17.7961  -35.7581   19.4352 C.ar      1 MOL     0.0468
      5 C         -17.0798  -35.8913   20.6082 C.ar      1 MOL     0.0037
      6 C         -15.8770  -36.5535   20.5620 C.ar      1 MOL     0.0009
      7 C         -15.4011  -37.0681   19.3758 C.ar      1 MOL     0.0131
      8 C         -16.1540  -36.9139   18.2108 C.ar      1 MOL     0.0397
      9 C         -15.6144  -37.4733   16.9773 C.2       1 MOL     0.0752
     10 O         -18.3500  -33.9481   17.0529 O.2       1 MOL    -0.2507
     11 O         -18.0435  -36.1449   17.0373 O.3       1 MOL    -0.4254
     12 O         -15.6593  -38.7100   16.7538 O.co2     1 MOL    -0.5445
     13 O         -15.0332  -36.6699   16.0107 O.co2     1 MOL    -0.5445
     14 H         -20.3581  -34.2115   15.5468 H         1 MOL     0.0342
     15 H         -20.6963  -35.7908   16.2130 H         1 MOL     0.0342
     16 H         -19.6651  -35.6374   14.8112 H         1 MOL     0.0342
     17 H         -18.7000  -35.2617   19.4684 H         1 MOL     0.0654
     18 H         -17.4388  -35.5046   21.4957 H         1 MOL     0.0619
     19 H         -15.3227  -36.6664   21.4253 H         1 MOL     0.0618
     20 H         -14.4964  -37.5646   19.3489 H         1 MOL     0.0625
@<TRIPOS>BOND
     1    1    2 1 
     2    1   14 1 
     3    1   15 1 
     4    1   16 1 
     5    2   10 2 
     6    2   11 1 
     7    3    4 ar
     8    3    8 ar
     9    3   11 1 
    10    4    5 ar
    11    4   17 1 
    12    5    6 ar
    13    5   18 1 
    14    6    7 ar
    15    6   19 1 
    16    7    8 ar
    17    7   20 1 
    18    8    9 1 
    19    9   12 ar
    20    9   13 ar
@<TRIPOS>SUBSTRUCTURE
1 MOL         1
@<TRIPOS>MOLECULE
query molecule
   20    20     1     0     0
SMALL
NO_CHARGE

@<TRIPOS>ATOM
      1 C         -62.2426  -36.5800  -11.2131 C.3       1 MOL     0.1362
      2 C         -62.2158  -35.4341  -12.1570 C.2       1 MOL     0.3092
      3 C         -63.5142  -36.5247  -13.9083 C.ar      1 MOL     0.1404
      4 C         -63.0091  -37.5010  -14.7404 C.ar      1 MOL     0.0468
      5 C         -63.7663  -38.5420  -15.2400 C.ar      1 MOL     0.0037
      6 C         -65.0926  -38.6069  -14.8874 C.ar      1 MOL     0.0009
      7 C         -65.6486  -37.6567  -14.0589 C.ar      1 MOL     0.0131
      8 C         -64.8510  -36.6194  -13.5735 C.ar      1 MOL     0.0397
      9 C         -65.4785  -35.6351  -12.6999 C.2       1 MOL     0.0752
     10 O         -61.6449  -34.3356  -11.8808 O.2       1 MOL    -0.2507
     11 O         -62.8015  -35.4771  -13.3907 O.3       1 MOL    -0.4254
     12 O         -65.0389  -35.4255  -11.5405 O.co2     1 MOL    -0.5445
     13 O         -66.5776  -34.8989  -13.1095 O.co2     1 MOL    -0.5445
     14 H         -61.7218  -36.3151  -10.3167 H         1 MOL     0.0342
     15 H         -61.7671  -37.4251  -11.6651 H         1 MOL     0.0342
     16 H         -63.2571  -36.8246  -10.9784 H         1 MOL     0.0342
     17 H         -62.0127  -37.4514  -15.0036 H         1 MOL     0.0654
     18 H         -63.3470  -39.2527  -15.8606 H         1 MOL     0.0619
     19 H         -65.6797  -39.3755  -15.2475 H         1 MOL     0.0618
     20 H         -66.6459  -37.7120  -13.7982 H         1 MOL     0.0625
@<TRIPOS>BOND
     1    1    2 1 
     2    1   14 1 
     3    1   15 1 
     4    1   16 1 
     5    2   10 2 
     6    2   11 1 
     7    3    4 ar
     8    3    8 ar
     9    3   11 1 
    10    4    5 ar
    11    4   17 1 
    12    5    6 ar
    13    5   18 1 
    14    6    7 ar
    15    6   19 1 
    16    7    8 ar
    17    7   20 1 
    18    8    9 1 
    19    9   12 ar
    20    9   13 ar
@<TRIPOS>SUBSTRUCTURE
1 MOL         1
@<TRIPOS>MOLECULE
query molecule
   20    20     1     0     0
SMALL
NO_CHARGE

@<TRIPOS>ATOM
      1 C         -73.7751  -76.2267   22.7314 C.3       1 MOL     0.1362
      2 C         -73.7166  -76.3548   24.2095 C.2       1 MOL     0.3092
      3 C         -72.1526  -74.5174   24.5560 C.ar      1 MOL     0.1404
      4 C         -72.5764  -73.2201   24.3600 C.ar      1 MOL     0.0468
      5 C         -71.7484  -72.2073   23.9178 C.ar      1 MOL     0.0037
      6 C         -70.4333  -72.5103   23.6611 C.ar      1 MOL     0.0009
      7 C         -69.9574  -73.7909   23.8397 C.ar      1 MOL     0.0131
      8 C         -70.8247  -74.7880   24.2885 C.ar      1 MOL     0.0397
      9 C         -70.2809  -76.1293   24.4643 C.2       1 MOL     0.0752
     10 O         -74.3877  -77.2224   24.8464 O.2       1 MOL    -0.2507
     11 O         -72.9370  -75.5506   24.9922 O.3       1 MOL    -0.4254
     12 O         -70.3166  -76.7003   25.5841 O.co2     1 MOL    -0.5445
     13 O         -69.7055  -76.8215   23.4120 O.co2     1 MOL    -0.5445
     14 H         -74.4478  -76.9593   22.3369 H         1 MOL     0.0342
     15 H         -72.7991  -76.3815   22.3214 H         1 MOL     0.0342
     16 H         -74.1199  -75.2479   22.4719 H         1 MOL     0.0342
     17 H         -73.5642  -72.9940   24.5540 H         1 MOL     0.0654
     18 H         -72.1078  -71.2486   23.7849 H         1 MOL     0.0619
     19 H         -69.7941  -71.7707   23.3299 H         1 MOL     0.0618
     20 H         -68.9678  -74.0110   23.6448 H         1 MOL     0.0625
@<TRIPOS>BOND
     1    1    2 1 
     2    1   14 1 
     3    1   15 1 
     4    1   16 1 
     5    2   10 2 
     6    2   11 1 
     7    3    4 ar
     8    3    8 ar
     9    3   11 1 
    10    4    5 ar
    11    4   17 1 
    12    5    6 ar
    13    5   18 1 
    14    6    7 ar
    15    6   19 1 
    16    7    8 ar
    17    7   20 1 
    18    8    9 1 
    19    9   12 ar
    20    9   13 ar
@<TRIPOS>SUBSTRUCTURE
1 MOL         1
@<TRIPOS>MOLECULE
query molecule
   20    20     1     0     0
SMALL
NO_CHARGE

@<TRIPOS>ATOM
      1 C         -44.6995  -84.0938   19.5239 C.3       1 MOL     0.1362
      2 C         -45.6997  -83.3869   18.6845 C.2       1 MOL     0.3092
      3 C         -46.4549  -82.6323   16.4930 C.ar      1 MOL     0.1404
      4 C         -47.6470  -83.1563   16.0399 C.ar      1 MOL     0.0468
      5 C         -48.5043  -82.4790   15.1955 C.ar      1 MOL     0.0037
      6 C         -48.1493  -81.2162   14.7872 C.ar      1 MOL     0.0009
      7 C         -46.9687  -80.6450   15.2097 C.ar      1 MOL     0.0131
      8 C         -46.1281  -81.3608   16.0635 C.ar      1 MOL     0.0397
      9 C         -44.8887  -80.7199   16.4867 C.2       1 MOL     0.0752
     10 O         -46.7381  -82.8448   19.1710 O.2       1 MOL    -0.2507
     11 O         -45.5764  -83.2668   17.3290 O.3       1 MOL    -0.4254
     12 O         -44.7558  -79.4705   16.4346 O.co2     1 MOL    -0.5445
     13 O         -43.8157  -81.4577   16.9576 O.co2     1 MOL    -0.5445
     14 H         -45.0059  -84.0583   20.5485 H         1 MOL     0.0342
     15 H         -43.7470  -83.6180   19.4199 H         1 MOL     0.0342
     16 H         -44.6256  -85.1131   19.2077 H         1 MOL     0.0342
     17 H         -47.9126  -84.1045   16.3480 H         1 MOL     0.0654
     18 H         -49.3884  -82.9095   14.8806 H         1 MOL     0.0619
     19 H         -48.7732  -80.6892   14.1564 H         1 MOL     0.0618
     20 H         -46.7087  -79.6956   14.8988 H         1 MOL     0.0625
@<TRIPOS>BOND
     1    1    2 1 
     2    1   14 1 
     3    1   15 1 
     4    1   16 1 
     5    2   10 2 
     6    2   11 1 
     7    3    4 ar
     8    3    8 ar
     9    3   11 1 
    10    4    5 ar
    11    4   17 1 
    12    5    6 ar
    13    5   18 1 
    14    6    7 ar
    15    6   19 1 
    16    7    8 ar
    17    7   20 1 
    18    8    9 1 
    19    9   12 ar
    20    9   13 ar
@<TRIPOS>SUBSTRUCTURE
1 MOL         1
@<TRIPOS>MOLECULE
query molecule
   20    20     1     0     0
SMALL
NO_CHARGE

@<TRIPOS>ATOM
      1 C         -37.6989  -80.1869   -3.6104 C.3       1 MOL     0.1362
      2 C         -38.2083  -80.6282   -4.9335 C.2       1 MOL     0.3092
      3 C         -37.1583  -78.8449   -6.2217 C.ar      1 MOL     0.1404
      4 C         -37.6778  -77.5793   -6.0506 C.ar      1 MOL     0.0468
      5 C         -36.9302  -76.4256   -6.1801 C.ar      1 MOL     0.0037
      6 C         -35.5986  -76.5475   -6.4954 C.ar      1 MOL     0.0009
      7 C         -35.0285  -77.7885   -6.6778 C.ar      1 MOL     0.0131
      8 C         -35.8165  -78.9320   -6.5381 C.ar      1 MOL     0.0397
      9 C         -35.1742  -80.2252   -6.7395 C.2       1 MOL     0.0752
     10 O         -39.0031  -81.6077   -5.0667 O.2       1 MOL    -0.2507
     11 O         -37.8610  -80.0134   -6.1032 O.3       1 MOL    -0.4254
     12 O         -33.9385  -80.3068   -6.9584 O.co2     1 MOL    -0.5445
     13 O         -35.8956  -81.4066   -6.6999 O.co2     1 MOL    -0.5445
     14 H         -38.1059  -80.8141   -2.8450 H         1 MOL     0.0342
     15 H         -37.9936  -79.1735   -3.4350 H         1 MOL     0.0342
     16 H         -36.6315  -80.2551   -3.5987 H         1 MOL     0.0342
     17 H         -38.6778  -77.4894   -5.8131 H         1 MOL     0.0654
     18 H         -37.3601  -75.4969   -6.0428 H         1 MOL     0.0619
     19 H         -35.0183  -75.7001   -6.5975 H         1 MOL     0.0618
     20 H         -34.0272  -77.8722   -6.9144 H         1 MOL     0.0625
@<TRIPOS>BOND
     1    1    2 1 
     2    1   14 1 
     3    1   15 1 
     4    1   16 1 
     5    2   10 2 
     6    2   11 1 
     7    3    4 ar
     8    3    8 ar
     9    3   11 1 
    10    4    5 ar
    11    4   17 1 
    12    5    6 ar
    13    5   18 1 
    14    6    7 ar
    15    6   19 1 
    16    7    8 ar
    17    7   20 1 
    18    8    9 1 
    19    9   12 ar
    20    9   13 ar
@<TRIPOS>SUBSTRUCTURE
1 MOL         1
@<TRIPOS>MOLECULE
query molecule
   20    20     1     0     0
SMALL
NO_CHARGE

@<TRIPOS>ATOM
      1 C         -34.5418  -27.7743  -11.8654 C.3       1 MOL     0.1362
      2 C         -34.6447  -27.8088  -10.3846 C.2       1 MOL     0.3092
      3 C         -33.1178  -26.0017   -9.7971 C.ar      1 MOL     0.1404
      4 C         -33.6961  -24.7600   -9.6396 C.ar      1 MOL     0.0468
      5 C         -33.0326  -23.5744   -9.8860 C.ar      1 MOL     0.0037
      6 C         -31.7273  -23.6374  -10.3095 C.ar      1 MOL     0.0009
      7 C         -31.1010  -24.8523  -10.4837 C.ar      1 MOL     0.0131
      8 C         -31.8044  -26.0295  -10.2242 C.ar      1 MOL     0.0397
      9 C         -31.1048  -27.2933  -10.4211 C.2       1 MOL     0.0752
     10 O         -35.5847  -28.4080   -9.7795 O.2       1 MOL    -0.2507
     11 O         -33.7366  -27.2001   -9.5649 O.3       1 MOL    -0.4254
     12 O         -30.2203  -27.4120  -11.3072 O.co2     1 MOL    -0.5445
     13 O         -31.3866  -28.4060   -9.6464 O.co2     1 MOL    -0.5445
     14 H         -35.3596  -28.3168  -12.2918 H         1 MOL     0.0342
     15 H         -33.6194  -28.2233  -12.1690 H         1 MOL     0.0342
     16 H         -34.5720  -26.7592  -12.2013 H         1 MOL     0.0342
     17 H         -34.6763  -24.7143   -9.3208 H         1 MOL     0.0654
     18 H         -33.5044  -22.6654   -9.7545 H         1 MOL     0.0619
     19 H         -31.2095  -22.7652  -10.5001 H         1 MOL     0.0618
     20 H         -30.1198  -24.8918  -10.8021 H         1 MOL     0.0625
@<TRIPOS>BOND
     1    1    2 1 
     2    1   14 1 
     3    1   15 1 
     4    1   16 1 
     5    2   10 2 
     6    2   11 1 
     7    3    4 ar
     8    3    8 ar
     9    3   11 1 
    10    4    5 ar
    11    4   17 1 
    12    5    6 ar
    13    5   18 1 
    14    6    7 ar
    15    6   19 1 
    16    7    8 ar
    17    7   20 1 
    18    8    9 1 
    19    9   12 ar
    20    9   13 ar
@<TRIPOS>SUBSTRUCTURE
1 MOL         1
@<TRIPOS>MOLECULE
query molecule
   20    20     1     0     0
SMALL
NO_CHARGE

@<TRIPOS>ATOM
      1 C         -50.3327  -80.6337  -18.1309 C.3       1 MOL     0.1362
      2 C         -50.6872  -81.4409  -19.3257 C.2       1 MOL     0.3092
      3 C         -49.9810  -79.7830  -20.9673 C.ar      1 MOL     0.1404
      4 C         -50.7166  -78.6174  -21.0011 C.ar      1 MOL     0.0468
      5 C         -50.1917  -77.3964  -21.3759 C.ar      1 MOL     0.0037
      6 C         -48.8661  -77.3423  -21.7326 C.ar      1 MOL     0.0009
      7 C         -48.0853  -78.4775  -21.7170 C.ar      1 MOL     0.0131
      8 C         -48.6517  -79.6936  -21.3320 C.ar      1 MOL     0.0397
      9 C         -47.7909  -80.8703  -21.3292 C.2       1 MOL     0.0752
     10 O         -51.2276  -82.5852  -19.2404 O.2       1 MOL    -0.2507
     11 O         -50.4594  -81.0124  -20.6030 O.3       1 MOL    -0.4254
     12 O         -46.5413  -80.7580  -21.4145 O.co2     1 MOL    -0.5445
     13 O         -48.3127  -82.1496  -21.2353 O.co2     1 MOL    -0.5445
     14 H         -50.6041  -81.1700  -17.2457 H         1 MOL     0.0342
     15 H         -50.8604  -79.7035  -18.1600 H         1 MOL     0.0342
     16 H         -49.2796  -80.4464  -18.1270 H         1 MOL     0.0342
     17 H         -51.7118  -78.6595  -20.7322 H         1 MOL     0.0654
     18 H         -50.7791  -76.5474  -21.3866 H         1 MOL     0.0619
     19 H         -48.4499  -76.4415  -22.0164 H         1 MOL     0.0618
     20 H         -47.0899  -78.4291  -21.9863 H         1 MOL     0.0625
@<TRIPOS>BOND
     1    1    2 1 
     2    1   14 1 
     3    1   15 1 
     4    1   16 1 
     5    2   10 2 
     6    2   11 1 
     7    3    4 ar
     8    3    8 ar
     9    3   11 1 
    10    4    5 ar
    11    4   17 1 
    12    5    6 ar
    13    5   18 1 
    14    6    7 ar
    15    6   19 1 
    16    7    8 ar
    17    7   20 1 
    18    8    9 1 
    19    9   12 ar
    20    9   13 ar
@<TRIPOS>SUBSTRUCTURE
1 MOL         1
@<TRIPOS>MOLECULE
query molecule
   20    20     1     0     0
SMALL
NO_CHARGE

@<TRIPOS>ATOM
      1 C         -12.3802  -72.2616   20.7853 C.3       1 MOL     0.1362
      2 C         -10.9135  -72.3914   20.5940 C.2       1 MOL     0.3092
      3 C          -9.3895  -74.1223   19.8044 C.ar      1 MOL     0.1404
      4 C          -8.1306  -73.8879   20.3153 C.ar      1 MOL     0.0468
      5 C          -7.1810  -74.8763   20.4833 C.ar      1 MOL     0.0037
      6 C          -7.5103  -76.1603   20.1224 C.ar      1 MOL     0.0009
      7 C          -8.7546  -76.4499   19.6062 C.ar      1 MOL     0.0131
      8 C          -9.6881  -75.4240   19.4515 C.ar      1 MOL     0.0397
      9 C         -10.9926  -75.7733   18.9018 C.2       1 MOL     0.0752
     10 O         -10.0736  -71.7824   21.3238 O.2       1 MOL    -0.2507
     11 O         -10.3601  -73.1750   19.6211 O.3       1 MOL    -0.4254
     12 O         -11.4373  -75.1982   17.8757 O.co2     1 MOL    -0.5445
     13 O         -11.7886  -76.7443   19.4858 O.co2     1 MOL    -0.5445
     14 H         -12.5754  -71.5995   21.6029 H         1 MOL     0.0342
     15 H         -12.7983  -73.2232   20.9976 H         1 MOL     0.0342
     16 H         -12.8225  -71.8693   19.8938 H         1 MOL     0.0342
     17 H          -7.8850  -72.9232   20.5866 H         1 MOL     0.0654
     18 H          -6.2494  -74.6564   20.8704 H         1 MOL     0.0619
     19 H          -6.8181  -76.9169   20.2385 H         1 MOL     0.0618
     20 H          -8.9949  -77.4172   19.3373 H         1 MOL     0.0625
@<TRIPOS>BOND
     1    1    2 1 
     2    1   14 1 
     3    1   15 1 
     4    1   16 1 
     5    2   10 2 
     6    2   11 1 
     7    3    4 ar
     8    3    8 ar
     9    3   11 1 
    10    4    5 ar
    11    4   17 1 
    12    5    6 ar
    13    5   18 1 
    14    6    7 ar
    15    6   19 1 
    16    7    8 ar
    17    7   20 1 
    18    8    9 1 
    19    9   12 ar
    20    9   13 ar
@<TRIPOS>SUBSTRUCTURE
1 MOL         1
@<TRIPOS>MOLECULE
query molecule
   20    20     1     0     0
SMALL
NO_CHARGE

@<TRIPOS>ATOM
      1 C         -55.6433  -71.1156   -9.2807 C.3       1 MOL     0.1362
      2 C         -55.2323  -72.4791   -9.7010 C.2       1 MOL     0.3092
      3 C         -54.9761  -73.3708   -7.4467 C.ar      1 MOL     0.1404
      4 C         -56.0779  -73.1205   -6.6565 C.ar      1 MOL     0.0468
      5 C         -56.0195  -73.0120   -5.2812 C.ar      1 MOL     0.0037
      6 C         -54.7984  -73.1624   -4.6699 C.ar      1 MOL     0.0009
      7 C         -53.6650  -73.4133   -5.4122 C.ar      1 MOL     0.0131
      8 C         -53.7640  -73.5167   -6.8005 C.ar      1 MOL     0.0397
      9 C         -52.5410  -73.7829   -7.5482 C.2       1 MOL     0.0752
     10 O         -55.0792  -72.8010  -10.9182 O.2       1 MOL    -0.2507
     11 O         -54.9879  -73.4862   -8.8104 O.3       1 MOL    -0.4254
     12 O         -52.5816  -74.0888   -8.7674 O.co2     1 MOL    -0.5445
     13 O         -51.2949  -73.7118   -6.9483 O.co2     1 MOL    -0.5445
     14 H         -55.7756  -70.5010  -10.1466 H         1 MOL     0.0342
     15 H         -54.8857  -70.6920   -8.6553 H         1 MOL     0.0342
     16 H         -56.5635  -71.1721   -8.7382 H         1 MOL     0.0342
     17 H         -56.9943  -73.0086   -7.1171 H         1 MOL     0.0654
     18 H         -56.8704  -72.8239   -4.7275 H         1 MOL     0.0619
     19 H         -54.7285  -73.0860   -3.6431 H         1 MOL     0.0618
     20 H         -52.7509  -73.5253   -4.9459 H         1 MOL     0.0625
@<TRIPOS>BOND
     1    1    2 1 
     2    1   14 1 
     3    1   15 1 
     4    1   16 1 
     5    2   10 2 
     6    2   11 1 
     7    3    4 ar
     8    3    8 ar
     9    3   11 1 
    10    4    5 ar
    11    4   17 1 
    12    5    6 ar
    13    5   18 1 
    14    6    7 ar
    15    6   19 1 
    16    7    8 ar
    17    7   20 1 
    18    8    9 1 
    19    9   12 ar
    20    9   13 ar
@<TRIPOS>SUBSTRUCTURE
1 MOL         1
@<TRIPOS>MOLECULE
query molecule
   20    20     1     0     0
SMALL
NO_CHARGE

@<TRIPOS>ATOM
      1 C         -27.4086  -46.3475   29.6731 C.3       1 MOL     0.1362
      2 C         -26.3882  -46.7907   30.6565 C.2       1 MOL     0.3092
      3 C         -25.0224  -44.8476   31.2052 C.ar      1 MOL     0.1404
      4 C         -25.4800  -43.5507   31.1066 C.ar      1 MOL     0.0468
      5 C         -24.6727  -42.4821   30.7705 C.ar      1 MOL     0.0037
      6 C         -23.3436  -42.7260   30.5225 C.ar      1 MOL     0.0009
      7 C         -22.8341  -44.0034   30.6065 C.ar      1 MOL     0.0131
      8 C         -23.6814  -45.0581   30.9495 C.ar      1 MOL     0.0397
      9 C         -23.1020  -46.3937   31.0273 C.2       1 MOL     0.0752
     10 O         -26.0061  -47.9968   30.7469 O.2       1 MOL    -0.2507
     11 O         -25.7854  -45.9349   31.5347 O.3       1 MOL    -0.4254
     12 O         -22.8297  -47.0426   29.9851 O.co2     1 MOL    -0.5445
     13 O         -22.8327  -46.9969   32.2444 O.co2     1 MOL    -0.5445
     14 H         -27.7351  -47.1873   29.0959 H         1 MOL     0.0342
     15 H         -26.9815  -45.6127   29.0232 H         1 MOL     0.0342
     16 H         -28.2427  -45.9236   30.1915 H         1 MOL     0.0342
     17 H         -26.4782  -43.3691   31.2939 H         1 MOL     0.0654
     18 H         -25.0572  -41.5259   30.7083 H         1 MOL     0.0619
     19 H         -22.7194  -41.9440   30.2696 H         1 MOL     0.0618
     20 H         -21.8342  -44.1790   30.4189 H         1 MOL     0.0625
@<TRIPOS>BOND
     1    1    2 1 
     2    1   14 1 
     3    1   15 1 
     4    1   16 1 
     5    2   10 2 
     6    2   11 1 
     7    3    4 ar
     8    3    8 ar
     9    3   11 1 
    10    4    5 ar
    11    4   17 1 
    12    5    6 ar
    13    5   18 1 
    14    6    7 ar
    15    6   19 1 
    16    7    8 ar
    17    7   20 1 
    18    8    9 1 
    19    9   12 ar
    20    9   13 ar
@<TRIPOS>SUBSTRUCTURE
1 MOL         1
@<TRIPOS>MOLECULE
query molecule
   20    20     1     0     0
SMALL
NO_CHARGE

@<TRIPOS>ATOM
      1 C         -67.3073  -44.9164   10.5684 C.3       1 MOL     0.1362
      2 C         -65.8619  -44.6732   10.8061 C.2       1 MOL     0.3092
      3 C         -66.0227  -44.5283   13.2341 C.ar      1 MOL     0.1404
      4 C         -66.6969  -45.5875   13.8039 C.ar      1 MOL     0.0468
      5 C         -67.3901  -45.4967   14.9946 C.ar      1 MOL     0.0037
      6 C         -67.4071  -44.2866   15.6447 C.ar      1 MOL     0.0009
      7 C         -66.7503  -43.1953   15.1192 C.ar      1 MOL     0.0131
      8 C         -66.0599  -43.3261   13.9134 C.ar      1 MOL     0.0397
      9 C         -65.3786  -42.1471   13.3923 C.2       1 MOL     0.0752
     10 O         -65.0275  -44.5408    9.8601 O.2       1 MOL    -0.2507
     11 O         -65.3240  -44.5732   12.0581 O.3       1 MOL    -0.4254
     12 O         -65.0507  -41.2005   14.1524 O.co2     1 MOL    -0.5445
     13 O         -65.0697  -42.0237   12.0480 O.co2     1 MOL    -0.5445
     14 H         -67.4933  -44.9551    9.5154 H         1 MOL     0.0342
     15 H         -67.8783  -44.1224   11.0022 H         1 MOL     0.0342
     16 H         -67.5907  -45.8456   11.0161 H         1 MOL     0.0342
     17 H         -66.6825  -46.4959   13.3148 H         1 MOL     0.0654
     18 H         -67.8813  -46.3162   15.3861 H         1 MOL     0.0619
     19 H         -67.9180  -44.1931   16.5365 H         1 MOL     0.0618
     20 H         -66.7674  -42.2891   15.6135 H         1 MOL     0.0625
@<TRIPOS>BOND
     1    1    2 1 
     2    1   14 1 
     3    1   15 1 
     4    1   16 1 
     5    2   10 2 
     6    2   11 1 
     7    3    4 ar
     8    3    8 ar
     9    3   11 1 
    10    4    5 ar
    11    4   17 1 
    12    5    6 ar
    13    5   18 1 
    14    6    7 ar
    15    6   19 1 
    16    7    8 ar
    17    7   20 1 
    18    8    9 1 
    19    9   12 ar
    20    9   13 ar
@<TRIPOS>SUBSTRUCTURE
1 MOL         1
@<TRIPOS>MOLECULE
query molecule
   20    20     1     0     0
SMALL
NO_CHARGE

@<TRIPOS>ATOM
      1 C         -57.0773  -50.1928  -28.9037 C.3       1 MOL     0.1362
      2 C         -55.6761  -49.8624  -29.2675 C.2       1 MOL     0.3092
      3 C         -54.1295  -48.0226  -28.8609 C.ar      1 MOL     0.1404
      4 C         -54.6497  -46.7993  -29.2265 C.ar      1 MOL     0.0468
      5 C         -53.8719  -45.7269  -29.6160 C.ar      1 MOL     0.0037
      6 C         -52.5080  -45.8894  -29.6390 C.ar      1 MOL     0.0009
      7 C         -51.9355  -47.0912  -29.2838 C.ar      1 MOL     0.0131
      8 C         -52.7546  -48.1523  -28.8952 C.ar      1 MOL     0.0397
      9 C         -52.1086  -49.4065  -28.5273 C.2       1 MOL     0.0752
     10 O         -55.1405  -50.2563  -30.3477 O.2       1 MOL    -0.2507
     11 O         -54.8614  -49.1106  -28.4688 O.3       1 MOL    -0.4254
     12 O         -50.9073  -49.4310  -28.1563 O.co2     1 MOL    -0.5445
     13 O         -52.7879  -50.6123  -28.5737 O.co2     1 MOL    -0.5445
     14 H         -57.5155  -50.7871  -29.6782 H         1 MOL     0.0342
     15 H         -57.6379  -49.2890  -28.7876 H         1 MOL     0.0342
     16 H         -57.0873  -50.7395  -27.9843 H         1 MOL     0.0342
     17 H         -55.6742  -46.6786  -29.2079 H         1 MOL     0.0654
     18 H         -54.3037  -44.8274  -29.8816 H         1 MOL     0.0619
     19 H         -51.9048  -45.1027  -29.9263 H         1 MOL     0.0618
     20 H         -50.9097  -47.2058  -29.3035 H         1 MOL     0.0625
@<TRIPOS>BOND
     1    1    2 1 
     2    1   14 1 
     3    1   15 1 
     4    1   16 1 
     5    2   10 2 
     6    2   11 1 
     7    3    4 ar
     8    3    8 ar
     9    3   11 1 
    10    4    5 ar
    11    4   17 1 
    12    5    6 ar
    13    5   18 1 
    14    6    7 ar
    15    6   19 1 
    16    7    8 ar
    17    7   20 1 
    18    8    9 1 
    19    9   12 ar
    20    9   13 ar
@<TRIPOS>SUBSTRUCTURE
1 MOL         1
@<TRIPOS>MOLECULE
query molecule
   20    20     1     0     0
SMALL
NO_CHARGE

@<TRIPOS>ATOM
      1 C         -68.9284  -83.7297  -15.2171 C.3       1 MOL     0.1362
      2 C         -69.3743  -82.4247  -14.6666 C.2       1 MOL     0.3092
      3 C         -71.2565  -81.3521  -15.7842 C.ar      1 MOL     0.1404
      4 C         -71.5830  -81.9286  -16.9933 C.ar      1 MOL     0.0468
      5 C         -72.1741  -81.2366  -18.0318 C.ar      1 MOL     0.0037
      6 C         -72.4514  -79.9037  -17.8482 C.ar      1 MOL     0.0009
      7 C         -72.1455  -79.2776  -16.6595 C.ar      1 MOL     0.0131
      8 C         -71.5487  -80.0106  -15.6326 C.ar      1 MOL     0.0397
      9 C         -71.2415  -79.3101  -14.3914 C.2       1 MOL     0.0752
     10 O         -68.5788  -81.6153  -14.1002 O.2       1 MOL    -0.2507
     11 O         -70.6710  -81.9987  -14.7296 O.3       1 MOL    -0.4254
     12 O         -70.9916  -78.0776  -14.3888 O.co2     1 MOL    -0.5445
     13 O         -71.2110  -79.9709  -13.1749 O.co2     1 MOL    -0.5445
     14 H         -67.8773  -83.8446  -15.0534 H         1 MOL     0.0342
     15 H         -69.1312  -83.7615  -16.2671 H         1 MOL     0.0342
     16 H         -69.4554  -84.5216  -14.7278 H         1 MOL     0.0342
     17 H         -71.3748  -82.9300  -17.1294 H         1 MOL     0.0654
     18 H         -72.4022  -81.7084  -18.9214 H         1 MOL     0.0619
     19 H         -72.8933  -79.3644  -18.6091 H         1 MOL     0.0618
     20 H         -72.3570  -78.2757  -16.5288 H         1 MOL     0.0625
@<TRIPOS>BOND
     1    1    2 1 
     2    1   14 1 
     3    1   15 1 
     4    1   16 1 
     5    2   10 2 
     6    2   11 1 
     7    3    4 ar
     8    3    8 ar
     9    3   11 1 
    10    4    5 ar
    11    4   17 1 
    12    5    6 ar
    13    5   18 1 
    14    6    7 ar
    15    6   19 1 
    16    7    8 ar
    17    7   20 1 
    18    8    9 1 
    19    9   12 ar
    20    9   13 ar
@<TRIPOS>SUBSTRUCTURE
1 MOL         1
@<TRIPOS>MOLECULE
query molecule
   20    20     1     0     0
SMALL
NO_CHARGE

@<TRIPOS>ATOM
      1 C         -37.8038  -31.7274  -19.8472 C.3       1 MOL     0.1362
      2 C         -37.7133  -32.6760  -18.7085 C.2       1 MOL     0.3092
      3 C         -35.2908  -32.9384  -18.7794 C.ar      1 MOL     0.1404
      4 C         -34.4590  -31.9903  -18.2225 C.ar      1 MOL     0.0468
      5 C         -33.2033  -31.6954  -18.7154 C.ar      1 MOL     0.0037
      6 C         -32.7611  -32.3847  -19.8184 C.ar      1 MOL     0.0009
      7 C         -33.5522  -33.3424  -20.4146 C.ar      1 MOL     0.0131
      8 C         -34.8157  -33.6129  -19.8873 C.ar      1 MOL     0.0397
      9 C         -35.6205  -34.6334  -20.5480 C.2       1 MOL     0.0752
     10 O         -38.7218  -33.0071  -18.0143 O.2       1 MOL    -0.2507
     11 O         -36.5403  -33.2625  -18.3248 O.3       1 MOL    -0.4254
     12 O         -36.2075  -35.5252  -19.8835 O.co2     1 MOL    -0.5445
     13 O         -35.7673  -34.6615  -21.9247 O.co2     1 MOL    -0.5445
     14 H         -38.8166  -31.4010  -19.9590 H         1 MOL     0.0342
     15 H         -37.4856  -32.2161  -20.7442 H         1 MOL     0.0342
     16 H         -37.1746  -30.8831  -19.6586 H         1 MOL     0.0342
     17 H         -34.7922  -31.4740  -17.3937 H         1 MOL     0.0654
     18 H         -32.6126  -30.9772  -18.2666 H         1 MOL     0.0619
     19 H         -31.8260  -32.1828  -20.2058 H         1 MOL     0.0618
     20 H         -33.2131  -33.8564  -21.2432 H         1 MOL     0.0625
@<TRIPOS>BOND
     1    1    2 1 
     2    1   14 1 
     3    1   15 1 
     4    1   16 1 
     5    2   10 2 
     6    2   11 1 
     7    3    4 ar
     8    3    8 ar
     9    3   11 1 
    10    4    5 ar
    11    4   17 1 
    12    5    6 ar
    13    5   18 1 
    14    6    7 ar
    15    6   19 1 
    16    7    8 ar
    17    7   20 1 
    18    8    9 1 
    19    9   12 ar
    20    9   13 ar
@<TRIPOS>SUBSTRUCTURE
1 MOL         1
@<TRIPOS>MOLECULE
query molecule
   20    20     1     0     0
SMALL
NO_CHARGE

@<TRIPOS>ATOM
      1 C         -35.5742  -56.6569  -25.6543 C.3       1 MOL     0.1362
      2 C         -35.3343  -58.1145  -25.5041 C.2       1 MOL     0.3092
      3 C         -33.8865  -58.3299  -27.4534 C.ar      1 MOL     0.1404
      4 C         -34.4683  -58.0951  -28.6812 C.ar      1 MOL     0.0468
      5 C         -33.7782  -57.5946  -29.7675 C.ar      1 MOL     0.0037
      6 C         -32.4417  -57.3158  -29.6145 C.ar      1 MOL     0.0009
      7 C         -31.8104  -57.5322  -28.4091 C.ar      1 MOL     0.0131
      8 C         -32.5415  -58.0389  -27.3336 C.ar      1 MOL     0.0397
      9 C         -31.8354  -58.2531  -26.0762 C.2       1 MOL     0.0752
     10 O         -35.8610  -58.8008  -24.5767 O.2       1 MOL    -0.2507
     11 O         -34.5311  -58.8239  -26.3518 O.3       1 MOL    -0.4254
     12 O         -32.1539  -57.6175  -25.0389 O.co2     1 MOL    -0.5445
     13 O         -30.7916  -59.1576  -25.9762 O.co2     1 MOL    -0.5445
     14 H         -36.2331  -56.3229  -24.8802 H         1 MOL     0.0342
     15 H         -36.0191  -56.4654  -26.6083 H         1 MOL     0.0342
     16 H         -34.6441  -56.1334  -25.5829 H         1 MOL     0.0342
     17 H         -35.4723  -58.3043  -28.7943 H         1 MOL     0.0654
     18 H         -34.2540  -57.4334  -30.6695 H         1 MOL     0.0619
     19 H         -31.9038  -56.9407  -30.4114 H         1 MOL     0.0618
     20 H         -30.8058  -57.3202  -28.3016 H         1 MOL     0.0625
@<TRIPOS>BOND
     1    1    2 1 
     2    1   14 1 
     3    1   15 1 
     4    1   16 1 
     5    2   10 2 
     6    2   11 1 
     7    3    4 ar
     8    3    8 ar
     9    3   11 1 
    10    4    5 ar
    11    4   17 1 
    12    5    6 ar
    13    5   18 1 
    14    6    7 ar
    15    6   19 1 
    16    7    8 ar
    17    7   20 1 
    18    8    9 1 
    19    9   12 ar
    20    9   13 ar
@<TRIPOS>SUBSTRUCTURE
1 MOL         1
@<TRIPOS>MOLECULE
query molecule
   20    20     1     0     0
SMALL
NO_CHARGE

@<TRIPOS>ATOM
      1 C          -0.7275  -59.1983   18.5674 C.3       1 MOL     0.1362
      2 C          -1.2255  -57.8743   19.0188 C.2       1 MOL     0.3092
      3 C          -2.2412  -56.4964   20.7544 C.ar      1 MOL     0.1404
      4 C          -3.5527  -56.1483   20.5100 C.ar      1 MOL     0.0468
      5 C          -4.1344  -54.9903   20.9867 C.ar      1 MOL     0.0037
      6 C          -3.3643  -54.1420   21.7448 C.ar      1 MOL     0.0009
      7 C          -2.0476  -54.4413   22.0188 C.ar      1 MOL     0.0131
      8 C          -1.4948  -55.6216   21.5197 C.ar      1 MOL     0.0397
      9 C          -0.0984  -55.9003   21.8329 C.2       1 MOL     0.0752
     10 O          -1.3148  -56.8770   18.2402 O.2       1 MOL    -0.2507
     11 O          -1.6246  -57.6319   20.3029 O.3       1 MOL    -0.4254
     12 O           0.6367  -56.5161   21.0193 O.co2     1 MOL    -0.5445
     13 O           0.4687  -55.5021   23.0318 O.co2     1 MOL    -0.5445
     14 H          -0.4764  -59.1488   17.5284 H         1 MOL     0.0342
     15 H          -1.4892  -59.9349   18.7154 H         1 MOL     0.0342
     16 H           0.1406  -59.4643   19.1329 H         1 MOL     0.0342
     17 H          -4.1300  -56.7868   19.9412 H         1 MOL     0.0654
     18 H          -5.1214  -54.7686   20.7798 H         1 MOL     0.0619
     19 H          -3.7760  -53.2702   22.1129 H         1 MOL     0.0618
     20 H          -1.4751  -53.7990   22.5893 H         1 MOL     0.0625
@<TRIPOS>BOND
     1    1    2 1 
     2    1   14 1 
     3    1   15 1 
     4    1   16 1 
     5    2   10 2 
     6    2   11 1 
     7    3    4 ar
     8    3    8 ar
     9    3   11 1 
    10    4    5 ar
    11    4   17 1 
    12    5    6 ar
    13    5   18 1 
    14    6    7 ar
    15    6   19 1 
    16    7    8 ar
    17    7   20 1 
    18    8    9 1 
    19    9   12 ar
    20    9   13 ar
@<TRIPOS>SUBSTRUCTURE
1 MOL         1
@<TRIPOS>MOLECULE
query molecule
   20    20     1     0     0
SMALL
NO_CHARGE

@<TRIPOS>ATOM
      1 C         -10.7094  -43.7135  -15.6495 C.3       1 MOL     0.1362
      2 C         -10.7990  -43.9522  -14.1867 C.2       1 MOL     0.3092
      3 C          -9.3996  -42.0832  -13.4858 C.ar      1 MOL     0.1404
      4 C          -9.9615  -40.8390  -13.2934 C.ar      1 MOL     0.0468
      5 C          -9.2854  -39.6557  -13.5157 C.ar      1 MOL     0.0037
      6 C          -7.9842  -39.7241  -13.9509 C.ar      1 MOL     0.0009
      7 C          -7.3742  -40.9417  -14.1599 C.ar      1 MOL     0.0131
      8 C          -8.0900  -42.1163  -13.9238 C.ar      1 MOL     0.0397
      9 C          -7.4074  -43.3833  -14.1573 C.2       1 MOL     0.0752
     10 O         -11.5958  -44.7996  -13.6810 O.2       1 MOL    -0.2507
     11 O         -10.0313  -43.2795  -13.2783 O.3       1 MOL    -0.4254
     12 O          -6.7892  -43.9657  -13.2299 O.co2     1 MOL    -0.5445
     13 O          -7.4115  -43.9900  -15.4021 O.co2     1 MOL    -0.5445
     14 H         -11.4011  -44.3526  -16.1574 H         1 MOL     0.0342
     15 H          -9.7158  -43.9253  -15.9849 H         1 MOL     0.0342
     16 H         -10.9464  -42.6916  -15.8589 H         1 MOL     0.0342
     17 H         -10.9386  -40.7893  -12.9658 H         1 MOL     0.0654
     18 H          -9.7451  -38.7447  -13.3583 H         1 MOL     0.0619
     19 H          -7.4572  -38.8537  -14.1241 H         1 MOL     0.0618
     20 H          -6.3960  -40.9852  -14.4869 H         1 MOL     0.0625
@<TRIPOS>BOND
     1    1    2 1 
     2    1   14 1 
     3    1   15 1 
     4    1   16 1 
     5    2   10 2 
     6    2   11 1 
     7    3    4 ar
     8    3    8 ar
     9    3   11 1 
    10    4    5 ar
    11    4   17 1 
    12    5    6 ar
    13    5   18 1 
    14    6    7 ar
    15    6   19 1 
    16    7    8 ar
    17    7   20 1 
    18    8    9 1 
    19    9   12 ar
    20    9   13 ar
@<TRIPOS>SUBSTRUCTURE
1 MOL         1
@<TRIPOS>MOLECULE
query molecule
   20    20     1     0     0
SMALL
NO_CHARGE

@<TRIPOS>ATOM
      1 C          -3.7088  -39.6461   -9.3535 C.3       1 MOL     0.1362
      2 C          -2.8421  -40.4074   -8.4186 C.2       1 MOL     0.3092
      3 C          -0.7195  -39.2147   -8.5368 C.ar      1 MOL     0.1404
      4 C          -0.3336  -38.4398   -7.4637 C.ar      1 MOL     0.0468
      5 C           0.4333  -37.2980   -7.5858 C.ar      1 MOL     0.0037
      6 C           0.8325  -36.9162   -8.8436 C.ar      1 MOL     0.0009
      7 C           0.4743  -37.6540   -9.9508 C.ar      1 MOL     0.0131
      8 C          -0.3014  -38.8027   -9.7873 C.ar      1 MOL     0.0397
      9 C          -0.6582  -39.5544  -10.9844 C.2       1 MOL     0.0752
     10 O          -3.3118  -41.1633   -7.5148 O.2       1 MOL    -0.2507
     11 O          -1.4776  -40.3517   -8.4622 O.3       1 MOL    -0.4254
     12 O          -0.6154  -40.8112  -10.9960 O.co2     1 MOL    -0.5445
     13 O          -1.0537  -38.9177  -12.1488 O.co2     1 MOL    -0.5445
     14 H          -4.7359  -39.8468   -9.1302 H         1 MOL     0.0342
     15 H          -3.4975  -39.9451  -10.3588 H         1 MOL     0.0342
     16 H          -3.5171  -38.5994   -9.2448 H         1 MOL     0.0342
     17 H          -0.6335  -38.7283   -6.5196 H         1 MOL     0.0654
     18 H           0.7002  -36.7471   -6.7543 H         1 MOL     0.0619
     19 H           1.4066  -36.0666   -8.9613 H         1 MOL     0.0618
     20 H           0.7781  -37.3609  -10.8929 H         1 MOL     0.0625
@<TRIPOS>BOND
     1    1    2 1 
     2    1   14 1 
     3    1   15 1 
     4    1   16 1 
     5    2   10 2 
     6    2   11 1 
     7    3    4 ar
     8    3    8 ar
     9    3   11 1 
    10    4    5 ar
    11    4   17 1 
    12    5    6 ar
    13    5   18 1 
    14    6    7 ar
    15    6   19 1 
    16    7    8 ar
    17    7   20 1 
    18    8    9 1 
    19    9   12 ar
    20    9   13 ar
@<TRIPOS>SUBSTRUCTURE
1 MOL         1
@<TRIPOS>MOLECULE
query molecule
   20    20     1     0     0
SMALL
NO_CHARGE

@<TRIPOS>ATOM
      1 C          -7.9425  -68.4338  -25.1408 C.3       1 MOL     0.1362
      2 C          -6.7723  -68.5893  -26.0414 C.2       1 MOL     0.3092
      3 C          -5.8613  -69.1230  -28.2386 C.ar      1 MOL     0.1404
      4 C          -5.2276  -68.1275  -28.9515 C.ar      1 MOL     0.0468
      5 C          -4.1897  -68.3637  -29.8311 C.ar      1 MOL     0.0037
      6 C          -3.7673  -69.6596  -30.0029 C.ar      1 MOL     0.0009
      7 C          -4.3661  -70.6928  -29.3156 C.ar      1 MOL     0.0131
      8 C          -5.4123  -70.4145  -28.4347 C.ar      1 MOL     0.0397
      9 C          -6.0181  -71.5363  -27.7275 C.2       1 MOL     0.0752
     10 O          -5.5796  -68.4124  -25.6476 O.2       1 MOL    -0.2507
     11 O          -6.8919  -68.9347  -27.3580 O.3       1 MOL    -0.4254
     12 O          -5.3118  -72.4725  -27.2735 O.co2     1 MOL    -0.5445
     13 O          -7.3866  -71.6153  -27.5313 O.co2     1 MOL    -0.5445
     14 H          -7.6050  -68.1621  -24.1624 H         1 MOL     0.0342
     15 H          -8.4778  -69.3586  -25.0892 H         1 MOL     0.0342
     16 H          -8.5865  -67.6696  -25.5221 H         1 MOL     0.0342
     17 H          -5.5455  -67.1546  -28.8209 H         1 MOL     0.0654
     18 H          -3.7428  -67.5875  -30.3448 H         1 MOL     0.0619
     19 H          -2.9930  -69.8623  -30.6545 H         1 MOL     0.0618
     20 H          -4.0431  -71.6641  -29.4497 H         1 MOL     0.0625
@<TRIPOS>BOND
     1    1    2 1 
     2    1   14 1 
     3    1   15 1 
     4    1   16 1 
     5    2   10 2 
     6    2   11 1 
     7    3    4 ar
     8    3    8 ar
     9    3   11 1 
    10    4    5 ar
    11    4   17 1 
    12    5    6 ar
    13    5   18 1 
    14    6    7 ar
    15    6   19 1 
    16    7    8 ar
    17    7   20 1 
    18    8    9 1 
    19    9   12 ar
    20    9   13 ar
@<TRIPOS>SUBSTRUCTURE
1 MOL         1
@<TRIPOS>MOLECULE
query molecule
   20    20     1     0     0
SMALL
NO_CHARGE

@<TRIPOS>ATOM
      1 C         -15.7914  -79.3661    8.0102 C.3       1 MOL     0.1362
      2 C         -14.3571  -79.6301    7.7312 C.2       1 MOL     0.3092
      3 C         -13.2653  -77.5396    7.1147 C.ar      1 MOL     0.1404
      4 C         -14.0317  -76.6136    7.7900 C.ar      1 MOL     0.0468
      5 C         -13.6452  -75.3023    7.9846 C.ar      1 MOL     0.0037
      6 C         -12.4325  -74.9015    7.4785 C.ar      1 MOL     0.0009
      7 C         -11.6273  -75.7862    6.7949 C.ar      1 MOL     0.0131
      8 C         -12.0520  -77.1040    6.6186 C.ar      1 MOL     0.0397
      9 C         -11.1700  -78.0075    5.8897 C.2       1 MOL     0.0752
     10 O         -13.7294  -80.6037    8.2477 O.2       1 MOL    -0.2507
     11 O         -13.6083  -78.8469    6.8989 O.3       1 MOL    -0.4254
     12 O         -11.6213  -78.7770    5.0033 O.co2     1 MOL    -0.5445
     13 O          -9.8097  -78.0548    6.1449 O.co2     1 MOL    -0.5445
     14 H         -16.1650  -80.1072    8.6855 H         1 MOL     0.0342
     15 H         -16.3454  -79.4054    7.0958 H         1 MOL     0.0342
     16 H         -15.8964  -78.3964    8.4495 H         1 MOL     0.0342
     17 H         -14.9418  -76.9163    8.1701 H         1 MOL     0.0654
     18 H         -14.2507  -74.6415    8.4972 H         1 MOL     0.0619
     19 H         -12.1209  -73.9266    7.6109 H         1 MOL     0.0618
     20 H         -10.7172  -75.4779    6.4176 H         1 MOL     0.0625
@<TRIPOS>BOND
     1    1    2 1 
     2    1   14 1 
     3    1   15 1 
     4    1   16 1 
     5    2   10 2 
     6    2   11 1 
     7    3    4 ar
     8    3    8 ar
     9    3   11 1 
    10    4    5 ar
    11    4   17 1 
    12    5    6 ar
    13    5   18 1 
    14    6    7 ar
    15    6   19 1 
    16    7    8 ar
    17    7   20 1 
    18    8    9 1 
    19    9   12 ar
    20    9   13 ar
@<TRIPOS>SUBSTRUCTURE
1 MOL         1
@<TRIPOS>MOLECULE
query molecule
   20    20     1     0     0
SMALL
NO_CHARGE

@<TRIPOS>ATOM
      1 C          -2.0620  -47.7609   26.9082 C.3       1 MOL     0.1362
      2 C          -2.5468  -48.6732   27.9747 C.2       1 MOL     0.3092
      3 C          -2.2243  -50.7303   26.7072 C.ar      1 MOL     0.1404
      4 C          -3.0654  -51.0322   25.6573 C.ar      1 MOL     0.0468
      5 C          -2.6662  -51.7412   24.5416 C.ar      1 MOL     0.0037
      6 C          -1.3615  -52.1665   24.4760 C.ar      1 MOL     0.0009
      7 C          -0.4788  -51.8925   25.4978 C.ar      1 MOL     0.0131
      8 C          -0.9194  -51.1728   26.6095 C.ar      1 MOL     0.0397
      9 C           0.0465  -50.9043   27.6681 C.2       1 MOL     0.0752
     10 O          -2.9678  -48.2514   29.0943 O.2       1 MOL    -0.2507
     11 O          -2.5766  -50.0315   27.8300 O.3       1 MOL    -0.4254
     12 O           0.0230  -51.5531   28.7451 O.co2     1 MOL    -0.5445
     13 O           1.0200  -49.9291   27.5305 O.co2     1 MOL    -0.5445
     14 H          -2.1329  -46.7482   27.2466 H         1 MOL     0.0342
     15 H          -2.6623  -47.8866   26.0316 H         1 MOL     0.0342
     16 H          -1.0428  -47.9908   26.6787 H         1 MOL     0.0342
     17 H          -4.0447  -50.7114   25.7078 H         1 MOL     0.0654
     18 H          -3.3298  -51.9451   23.7774 H         1 MOL     0.0619
     19 H          -1.0385  -52.6980   23.6524 H         1 MOL     0.0618
     20 H           0.5001  -52.2153   25.4414 H         1 MOL     0.0625
@<TRIPOS>BOND
     1    1    2 1 
     2    1   14 1 
     3    1   15 1 
     4    1   16 1 
     5    2   10 2 
     6    2   11 1 
     7    3    4 ar
     8    3    8 ar
     9    3   11 1 
    10    4    5 ar
    11    4   17 1 
    12    5    6 ar
    13    5   18 1 
    14    6    7 ar
    15    6   19 1 
    16    7    8 ar
    17    7   20 1 
    18    8    9 1 
    19    9   12 ar
    20    9   13 ar
@<TRIPOS>SUBSTRUCTURE
1 MOL         1
@<TRIPOS>MOLECULE
query molecule
   20    20     1     0     0
SMALL
NO_CHARGE

@<TRIPOS>ATOM
      1 C         -56.8307  -82.7450   13.0486 C.3       1 MOL     0.1362
      2 C         -56.2261  -81.4754   13.5255 C.2       1 MOL     0.3092
      3 C         -54.7242  -79.5901   13.1620 C.ar      1 MOL     0.1404
      4 C         -55.3067  -78.3410   13.1241 C.ar      1 MOL     0.0468
      5 C         -54.6580  -77.1863   13.5149 C.ar      1 MOL     0.0037
      6 C         -53.3644  -77.2899   13.9656 C.ar      1 MOL     0.0009
      7 C         -52.7343  -78.5139   14.0234 C.ar      1 MOL     0.0131
      8 C         -53.4229  -79.6589   13.6200 C.ar      1 MOL     0.0397
      9 C         -52.7197  -80.9338   13.6971 C.2       1 MOL     0.0752
     10 O         -56.5025  -80.9700   14.6555 O.2       1 MOL    -0.2507
     11 O         -55.3287  -80.7588   12.7852 O.3       1 MOL    -0.4254
     12 O         -53.1177  -81.8468   14.4649 O.co2     1 MOL    -0.5445
     13 O         -51.5922  -81.1867   12.9341 O.co2     1 MOL    -0.5445
     14 H         -57.4987  -83.1232   13.7941 H         1 MOL     0.0342
     15 H         -56.0574  -83.4615   12.8663 H         1 MOL     0.0342
     16 H         -57.3706  -82.5645   12.1430 H         1 MOL     0.0342
     17 H         -56.2786  -78.2649   12.7861 H         1 MOL     0.0654
     18 H         -55.1326  -76.2705   13.4705 H         1 MOL     0.0619
     19 H         -52.8579  -76.4415   14.2637 H         1 MOL     0.0618
     20 H         -51.7621  -78.5840   14.3633 H         1 MOL     0.0625
@<TRIPOS>BOND
     1    1    2 1 
     2    1   14 1 
     3    1   15 1 
     4    1   16 1 
     5    2   10 2 
     6    2   11 1 
     7    3    4 ar
     8    3    8 ar
     9    3   11 1 
    10    4    5 ar
    11    4   17 1 
    12    5    6 ar
    13    5   18 1 
    14    6    7 ar
    15    6   19 1 
    16    7    8 ar
    17    7   20 1 
    18    8    9 1 
    19    9   12 ar
    20    9   13 ar
@<TRIPOS>SUBSTRUCTURE
1 MOL         1
@<TRIPOS>MOLECULE
query molecule
   20    20     1     0     0
SMALL
NO_CHARGE

@<TRIPOS>ATOM
      1 C         -11.2885  -60.8439   26.6471 C.3       1 MOL     0.1362
      2 C         -12.0175  -61.7811   25.7555 C.2       1 MOL     0.3092
      3 C         -12.1184  -63.9794   24.7067 C.ar      1 MOL     0.1404
      4 C         -12.0854  -63.7049   23.3559 C.ar      1 MOL     0.0468
      5 C         -12.4776  -64.6062   22.3861 C.ar      1 MOL     0.0037
      6 C         -12.9231  -65.8412   22.7905 C.ar      1 MOL     0.0009
      7 C         -12.9769  -66.1675   24.1281 C.ar      1 MOL     0.0131
      8 C         -12.5716  -65.2299   25.0791 C.ar      1 MOL     0.0397
      9 C         -12.6443  -65.6154   26.4833 C.2       1 MOL     0.0752
     10 O         -12.9489  -61.4024   24.9822 O.2       1 MOL    -0.2507
     11 O         -11.7399  -63.1179   25.7005 O.3       1 MOL    -0.4254
     12 O         -13.2506  -64.8990   27.3204 O.co2     1 MOL    -0.5445
     13 O         -12.0507  -66.7772   26.9475 O.co2     1 MOL    -0.5445
     14 H         -11.6765  -59.8552   26.5178 H         1 MOL     0.0342
     15 H         -10.2477  -60.8536   26.3997 H         1 MOL     0.0342
     16 H         -11.4162  -61.1481   27.6646 H         1 MOL     0.0342
     17 H         -11.7498  -62.7772   23.0537 H         1 MOL     0.0654
     18 H         -12.4361  -64.3589   21.3845 H         1 MOL     0.0619
     19 H         -13.2216  -66.5327   22.0849 H         1 MOL     0.0618
     20 H         -13.3128  -67.0976   24.4244 H         1 MOL     0.0625
@<TRIPOS>BOND
     1    1    2 1 
     2    1   14 1 
     3    1   15 1 
     4    1   16 1 
     5    2   10 2 
     6    2   11 1 
     7    3    4 ar
     8    3    8 ar
     9    3   11 1 
    10    4    5 ar
    11    4   17 1 
    12    5    6 ar
    13    5   18 1 
    14    6    7 ar
    15    6   19 1 
    16    7    8 ar
    17    7   20 1 
    18    8    9 1 
    19    9   12 ar
    20    9   13 ar
@<TRIPOS>SUBSTRUCTURE
1 MOL         1
@<TRIPOS>MOLECULE
query molecule
   20    20     1     0     0
SMALL
NO_CHARGE

@<TRIPOS>ATOM
      1 C         -33.2394  -65.0424    0.2554 C.3       1 MOL     0.1362
      2 C         -33.8118  -64.8141    1.6063 C.2       1 MOL     0.3092
      3 C         -35.8324  -64.2030    2.8253 C.ar      1 MOL     0.1404
      4 C         -36.1186  -64.6558    4.0958 C.ar      1 MOL     0.0468
      5 C         -36.8117  -63.9125    5.0307 C.ar      1 MOL     0.0037
      6 C         -37.2369  -62.6557    4.6743 C.ar      1 MOL     0.0009
      7 C         -36.9781  -62.1544    3.4173 C.ar      1 MOL     0.0131
      8 C         -36.2743  -62.9355    2.4995 C.ar      1 MOL     0.0397
      9 C         -36.0217  -62.3675    1.1806 C.2       1 MOL     0.0752
     10 O         -33.0950  -64.5183    2.6101 O.2       1 MOL    -0.2507
     11 O         -35.1497  -64.9042    1.8685 O.3       1 MOL    -0.4254
     12 O         -36.9706  -62.0872    0.4044 O.co2     1 MOL    -0.5445
     13 O         -34.7351  -62.1180    0.7334 O.co2     1 MOL    -0.5445
     14 H         -32.1774  -64.9170    0.2929 H         1 MOL     0.0342
     15 H         -33.6575  -64.3377   -0.4325 H         1 MOL     0.0342
     16 H         -33.4711  -66.0358   -0.0666 H         1 MOL     0.0342
     17 H         -35.7979  -65.5995    4.3621 H         1 MOL     0.0654
     18 H         -37.0041  -64.2907    5.9719 H         1 MOL     0.0619
     19 H         -37.7566  -62.0802    5.3554 H         1 MOL     0.0618
     20 H         -37.3007  -61.2090    3.1567 H         1 MOL     0.0625
@<TRIPOS>BOND
     1    1    2 1 
     2    1   14 1 
     3    1   15 1 
     4    1   16 1 
     5    2   10 2 
     6    2   11 1 
     7    3    4 ar
     8    3    8 ar
     9    3   11 1 
    10    4    5 ar
    11    4   17 1 
    12    5    6 ar
    13    5   18 1 
    14    6    7 ar
    15    6   19 1 
    16    7    8 ar
    17    7   20 1 
    18    8    9 1 
    19    9   12 ar
    20    9   13 ar
@<TRIPOS>SUBSTRUCTURE
1 MOL         1
@<TRIPOS>MOLECULE
query molecule
   20    20     1     0     0
SMALL
NO_CHARGE

@<TRIPOS>ATOM
      1 C         -74.0667  -56.7088   -1.5083 C.3       1 MOL     0.1362
      2 C         -73.4132  -55.4929   -2.0555 C.2       1 MOL     0.3092
      3 C         -73.1364  -54.9547   -4.4169 C.ar      1 MOL     0.1404
      4 C         -73.3493  -53.6135   -4.6554 C.ar      1 MOL     0.0468
      5 C         -73.7745  -53.1146   -5.8707 C.ar      1 MOL     0.0037
      6 C         -73.9958  -54.0029   -6.8950 C.ar      1 MOL     0.0009
      7 C         -73.7990  -55.3541   -6.7106 C.ar      1 MOL     0.0131
      8 C         -73.3683  -55.8207   -5.4678 C.ar      1 MOL     0.0397
      9 C         -73.1723  -57.2573   -5.3150 C.2       1 MOL     0.0752
     10 O         -73.4580  -54.3704   -1.4667 O.2       1 MOL    -0.2507
     11 O         -72.7159  -55.4923   -3.2305 O.3       1 MOL    -0.4254
     12 O         -73.8165  -57.9103   -4.4548 O.co2     1 MOL    -0.5445
     13 O         -72.2733  -57.9540   -6.1049 O.co2     1 MOL    -0.5445
     14 H         -74.5490  -56.4683   -0.5839 H         1 MOL     0.0342
     15 H         -73.3286  -57.4646   -1.3392 H         1 MOL     0.0342
     16 H         -74.7921  -57.0687   -2.2072 H         1 MOL     0.0342
     17 H         -73.1819  -52.9476   -3.8854 H         1 MOL     0.0654
     18 H         -73.9212  -52.1015   -6.0060 H         1 MOL     0.0619
     19 H         -74.3138  -53.6549   -7.8131 H         1 MOL     0.0618
     20 H         -73.9673  -56.0157   -7.4851 H         1 MOL     0.0625
@<TRIPOS>BOND
     1    1    2 1 
     2    1   14 1 
     3    1   15 1 
     4    1   16 1 
     5    2   10 2 
     6    2   11 1 
     7    3    4 ar
     8    3    8 ar
     9    3   11 1 
    10    4    5 ar
    11    4   17 1 
    12    5    6 ar
    13    5   18 1 
    14    6    7 ar
    15    6   19 1 
    16    7    8 ar
    17    7   20 1 
    18    8    9 1 
    19    9   12 ar
    20    9   13 ar
@<TRIPOS>SUBSTRUCTURE
1 MOL         1
@<TRIPOS>MOLECULE
query molecule
   20    20     1     0     0
SMALL
NO_CHARGE

@<TRIPOS>ATOM
      1 C         -14.6983  -31.3879    5.9905 C.3       1 MOL     0.1362
      2 C         -15.5922  -31.0327    4.8593 C.2       1 MOL     0.3092
      3 C         -16.5498  -29.2676    3.4774 C.ar      1 MOL     0.1404
      4 C         -17.8468  -29.0524    3.8928 C.ar      1 MOL     0.0468
      5 C         -18.8212  -28.4952    3.0887 C.ar      1 MOL     0.0037
      6 C         -18.4780  -28.1362    1.8078 C.ar      1 MOL     0.0009
      7 C         -17.1960  -28.3297    1.3414 C.ar      1 MOL     0.0131
      8 C         -16.2382  -28.8955    2.1841 C.ar      1 MOL     0.0397
      9 C         -14.8941  -29.0828    1.6514 C.2       1 MOL     0.0752
     10 O         -16.4545  -31.8370    4.3922 O.2       1 MOL    -0.2507
     11 O         -15.5537  -29.8157    4.2392 O.3       1 MOL    -0.4254
     12 O         -14.3152  -30.1963    1.7327 O.co2     1 MOL    -0.5445
     13 O         -14.2058  -28.0479    1.0409 O.co2     1 MOL    -0.5445
     14 H         -14.9102  -32.3864    6.3115 H         1 MOL     0.0342
     15 H         -14.8634  -30.7101    6.8016 H         1 MOL     0.0342
     16 H         -13.6789  -31.3230    5.6731 H         1 MOL     0.0342
     17 H         -18.1028  -29.3218    4.8553 H         1 MOL     0.0654
     18 H         -19.7811  -28.3514    3.4408 H         1 MOL     0.0619
     19 H         -19.1884  -27.7175    1.1871 H         1 MOL     0.0618
     20 H         -16.9455  -28.0573    0.3776 H         1 MOL     0.0625
@<TRIPOS>BOND
     1    1    2 1 
     2    1   14 1 
     3    1   15 1 
     4    1   16 1 
     5    2   10 2 
     6    2   11 1 
     7    3    4 ar
     8    3    8 ar
     9    3   11 1 
    10    4    5 ar
    11    4   17 1 
    12    5    6 ar
    13    5   18 1 
    14    6    7 ar
    15    6   19 1 
    16    7    8 ar
    17    7   20 1 
    18    8    9 1 
    19    9   12 ar
    20    9   13 ar
@<TRIPOS>SUBSTRUCTURE
1 MOL         1
@<TRIPOS>MOLECULE
query molecule
   20    20     1     0     0
SMALL
NO_CHARGE

@<TRIPOS>ATOM
      1 C         -23.7675  -74.7446   12.2620 C.3       1 MOL     0.1362
      2 C         -23.1298  -74.5137   10.9410 C.2       1 MOL     0.3092
      3 C         -23.2024  -73.0722    8.9766 C.ar      1 MOL     0.1404
      4 C         -23.6659  -73.9756    8.0438 C.ar      1 MOL     0.0468
      5 C         -23.7277  -73.7084    6.6905 C.ar      1 MOL     0.0037
      6 C         -23.3054  -72.4766    6.2526 C.ar      1 MOL     0.0009
      7 C         -22.8326  -71.5366    7.1421 C.ar      1 MOL     0.0131
      8 C         -22.7856  -71.8434    8.5029 C.ar      1 MOL     0.0397
      9 C         -22.2786  -70.8209    9.4100 C.2       1 MOL     0.0752
     10 O         -22.5471  -75.4359   10.2940 O.2       1 MOL    -0.2507
     11 O         -23.1238  -73.2942   10.3248 O.3       1 MOL    -0.4254
     12 O         -21.3680  -70.0313    9.0510 O.co2     1 MOL    -0.5445
     13 O         -22.7754  -70.6815   10.6951 O.co2     1 MOL    -0.5445
     14 H         -23.6470  -75.7705   12.5410 H         1 MOL     0.0342
     15 H         -24.8099  -74.5120   12.2000 H         1 MOL     0.0342
     16 H         -23.3052  -74.1178   12.9953 H         1 MOL     0.0342
     17 H         -23.9834  -74.8999    8.3743 H         1 MOL     0.0654
     18 H         -24.0826  -74.4146    6.0261 H         1 MOL     0.0619
     19 H         -23.3419  -72.2524    5.2458 H         1 MOL     0.0618
     20 H         -22.5171  -70.6131    6.8057 H         1 MOL     0.0625
@<TRIPOS>BOND
     1    1    2 1 
     2    1   14 1 
     3    1   15 1 
     4    1   16 1 
     5    2   10 2 
     6    2   11 1 
     7    3    4 ar
     8    3    8 ar
     9    3   11 1 
    10    4    5 ar
    11    4   17 1 
    12    5    6 ar
    13    5   18 1 
    14    6    7 ar
    15    6   19 1 
    16    7    8 ar
    17    7   20 1 
    18    8    9 1 
    19    9   12 ar
    20    9   13 ar
@<TRIPOS>SUBSTRUCTURE
1 MOL         1
@<TRIPOS>MOLECULE
query molecule
   20    20     1     0     0
SMALL
NO_CHARGE

@<TRIPOS>ATOM
      1 C         -57.1213  -68.6317   17.6481 C.3       1 MOL     0.1362
      2 C         -58.5754  -68.9300   17.6832 C.2       1 MOL     0.3092
      3 C         -59.3016  -66.8905   18.8035 C.ar      1 MOL     0.1404
      4 C         -58.5982  -66.4741   19.9138 C.ar      1 MOL     0.0468
      5 C         -58.4584  -65.1483   20.2734 C.ar      1 MOL     0.0037
      6 C         -59.0515  -64.1953   19.4812 C.ar      1 MOL     0.0009
      7 C         -59.7666  -64.5565   18.3602 C.ar      1 MOL     0.0131
      8 C         -59.8855  -65.9071   18.0289 C.ar      1 MOL     0.0397
      9 C         -60.6505  -66.2461   16.8349 C.2       1 MOL     0.0752
     10 O         -59.0900  -69.8941   17.0394 O.2       1 MOL    -0.2507
     11 O         -59.4655  -68.1911   18.4102 O.3       1 MOL    -0.4254
     12 O         -60.1503  -66.1186   15.6882 O.co2     1 MOL    -0.5445
     13 O         -61.9503  -66.7168   16.9165 O.co2     1 MOL    -0.5445
     14 H         -56.6275  -69.3407   17.0169 H         1 MOL     0.0342
     15 H         -56.7204  -68.6957   18.6380 H         1 MOL     0.0342
     16 H         -56.9691  -67.6447   17.2648 H         1 MOL     0.0342
     17 H         -58.1527  -67.1909   20.5073 H         1 MOL     0.0654
     18 H         -57.9219  -64.8805   21.1140 H         1 MOL     0.0619
     19 H         -58.9613  -63.1974   19.7285 H         1 MOL     0.0618
     20 H         -60.2094  -63.8348   17.7697 H         1 MOL     0.0625
@<TRIPOS>BOND
     1    1    2 1 
     2    1   14 1 
     3    1   15 1 
     4    1   16 1 
     5    2   10 2 
     6    2   11 1 
     7    3    4 ar
     8    3    8 ar
     9    3   11 1 
    10    4    5 ar
    11    4   17 1 
    12    5    6 ar
    13    5   18 1 
    14    6    7 ar
    15    6   19 1 
    16    7    8 ar
    17    7   20 1 
    18    8    9 1 
    19    9   12 ar
    20    9   13 ar
@<TRIPOS>SUBSTRUCTURE
1 MOL         1
