@<TRIPOS>MOLECULE
query molecule
   20    20     1     0     0
SMALL
NO_CHARGE

@<TRIPOS>ATOM
      1 C         -25.7127  -41.9857   -8.2964 C.3       1 MOL     0.1362
      2 C         -24.9174  -42.5389   -9.4690 C.2       1 MOL     0.3092
      3 C         -23.6197  -44.4187  -10.0626 C.ar      1 MOL     0.1404
      4 C         -22.3045  -43.9500  -10.2804 C.ar      1 MOL     0.0468
      5 C         -21.4612  -44.5782  -11.1947 C.ar      1 MOL     0.0037
      6 C         -21.9151  -45.6878  -11.9017 C.ar      1 MOL     0.0009
      7 C         -23.2101  -46.1503  -11.6985 C.ar      1 MOL     0.0131
      8 C         -24.0761  -45.5323  -10.7742 C.ar      1 MOL     0.0397
      9 C         -25.4363  -46.1705  -10.6389 C.2       1 MOL     0.0752
     10 O         -24.7769  -41.9336  -10.5195 O.2       1 MOL    -0.2507
     11 O         -24.4301  -43.7439   -9.1618 O.3       1 MOL    -0.4254
     12 O         -25.8291  -46.8395  -11.6395 O.co2     1 MOL    -0.5445
     13 O         -26.0811  -46.0229   -9.5586 O.co2     1 MOL    -0.5445
     14 H         -25.8756  -40.8958   -8.4230 H         1 MOL     0.0342
     15 H         -25.1649  -42.1613   -7.3485 H         1 MOL     0.0342
     16 H         -26.6970  -42.4936   -8.2438 H         1 MOL     0.0342
     17 H         -21.9450  -43.0842   -9.7410 H         1 MOL     0.0654
     18 H         -20.4604  -44.2078  -11.3585 H         1 MOL     0.0619
     19 H         -21.2677  -46.1885  -12.6054 H         1 MOL     0.0618
     20 H         -23.5579  -47.0137  -12.2499 H         1 MOL     0.0625
@<TRIPOS>BOND
     1    1    2 1 
     2    1   14 1 
     3    1   15 1 
     4    1   16 1 
     5    2   10 2 
     6    2   11 1 
     7    3    4 ar
     8    3    8 ar
     9    3   11 1 
    10    4    5 ar
    11    4   17 1 
    12    5    6 ar
    13    5   18 1 
    14    6    7 ar
    15    6   19 1 
    16    7    8 ar
    17    7   20 1 
    18    8    9 1 
    19    9   12 ar
    20    9   13 ar
@<TRIPOS>SUBSTRUCTURE
1 MOL         1
@<TRIPOS>MOLECULE
query molecule
   20    20     1     0     0
SMALL
NO_CHARGE

@<TRIPOS>ATOM
      1 C         -39.9702  -56.7991    5.5697 C.3       1 MOL     0.1362
      2 C         -40.2858  -56.3755    7.0069 C.2       1 MOL     0.3092
      3 C         -42.0004  -55.1573    8.1078 C.ar      1 MOL     0.1404
      4 C         -42.8878  -56.0239    8.7855 C.ar      1 MOL     0.0468
      5 C         -43.6024  -55.5919    9.9027 C.ar      1 MOL     0.0037
      6 C         -43.4333  -54.2912   10.3690 C.ar      1 MOL     0.0009
      7 C         -42.5558  -53.4324    9.7138 C.ar      1 MOL     0.0131
      8 C         -41.8316  -53.8423    8.5705 C.ar      1 MOL     0.0397
      9 C         -40.9527  -52.7843    7.9214 C.2       1 MOL     0.0752
     10 O         -39.6370  -56.7172    7.9819 O.2       1 MOL    -0.2507
     11 O         -41.3582  -55.6265    6.9880 O.3       1 MOL    -0.4254
     12 O         -40.8341  -51.6846    8.5504 O.co2     1 MOL    -0.5445
     13 O         -40.4286  -53.0568    6.8025 O.co2     1 MOL    -0.5445
     14 H         -39.1327  -57.5283    5.5590 H         1 MOL     0.0342
     15 H         -39.6912  -55.9216    4.9529 H         1 MOL     0.0342
     16 H         -40.8597  -57.2864    5.1172 H         1 MOL     0.0342
     17 H         -43.0232  -57.0383    8.4307 H         1 MOL     0.0654
     18 H         -44.2867  -56.2598   10.4059 H         1 MOL     0.0619
     19 H         -43.9823  -53.9508   11.2347 H         1 MOL     0.0618
     20 H         -42.4384  -52.4214   10.0861 H         1 MOL     0.0625
@<TRIPOS>BOND
     1    1    2 1 
     2    1   14 1 
     3    1   15 1 
     4    1   16 1 
     5    2   10 2 
     6    2   11 1 
     7    3    4 ar
     8    3    8 ar
     9    3   11 1 
    10    4    5 ar
    11    4   17 1 
    12    5    6 ar
    13    5   18 1 
    14    6    7 ar
    15    6   19 1 
    16    7    8 ar
    17    7   20 1 
    18    8    9 1 
    19    9   12 ar
    20    9   13 ar
@<TRIPOS>SUBSTRUCTURE
1 MOL         1
@<TRIPOS>MOLECULE
query molecule
   20    20     1     0     0
SMALL
NO_CHARGE

@<TRIPOS>ATOM
      1 C         -14.3836  -54.2250    3.6559 C.3       1 MOL     0.1362
      2 C         -13.3134  -53.5094    2.8233 C.2       1 MOL     0.3092
      3 C         -13.4753  -55.1911    1.1060 C.ar      1 MOL     0.1404
      4 C         -12.7123  -56.3460    1.3587 C.ar      1 MOL     0.0468
      5 C         -12.9665  -57.5401    0.6897 C.ar      1 MOL     0.0037
      6 C         -14.0059  -57.6035   -0.2383 C.ar      1 MOL     0.0009
      7 C         -14.8047  -56.4798   -0.4565 C.ar      1 MOL     0.0131
      8 C         -14.5736  -55.2732    0.2324 C.ar      1 MOL     0.0397
      9 C         -15.5335  -54.1215   -0.0157 C.2       1 MOL     0.0752
     10 O         -12.7225  -52.5244    3.2443 O.2       1 MOL    -0.2507
     11 O         -13.0953  -54.0186    1.6586 O.3       1 MOL    -0.4254
     12 O         -15.3492  -53.0742    0.6726 O.co2     1 MOL    -0.5445
     13 O         -16.4227  -54.2796   -0.9063 O.co2     1 MOL    -0.5445
     14 H         -14.1317  -54.1215    4.7336 H         1 MOL     0.0342
     15 H         -14.4220  -55.3094    3.4010 H         1 MOL     0.0342
     16 H         -15.3752  -53.7712    3.4764 H         1 MOL     0.0342
     17 H         -11.8920  -56.2965    2.0591 H         1 MOL     0.0654
     18 H         -12.3553  -58.4114    0.8809 H         1 MOL     0.0619
     19 H         -14.2062  -58.5279   -0.7626 H         1 MOL     0.0618
     20 H         -15.6204  -56.5451   -1.1663 H         1 MOL     0.0625
@<TRIPOS>BOND
     1    1    2 1 
     2    1   14 1 
     3    1   15 1 
     4    1   16 1 
     5    2   10 2 
     6    2   11 1 
     7    3    4 ar
     8    3    8 ar
     9    3   11 1 
    10    4    5 ar
    11    4   17 1 
    12    5    6 ar
    13    5   18 1 
    14    6    7 ar
    15    6   19 1 
    16    7    8 ar
    17    7   20 1 
    18    8    9 1 
    19    9   12 ar
    20    9   13 ar
@<TRIPOS>SUBSTRUCTURE
1 MOL         1
@<TRIPOS>MOLECULE
query molecule
   20    20     1     0     0
SMALL
NO_CHARGE

@<TRIPOS>ATOM
      1 C         -31.9427  -57.3881  -16.0623 C.3       1 MOL     0.1362
      2 C         -31.3929  -56.0426  -15.6084 C.2       1 MOL     0.3092
      3 C         -29.3465  -55.1560  -14.8866 C.ar      1 MOL     0.1404
      4 C         -28.6488  -54.6602  -16.0084 C.ar      1 MOL     0.0468
      5 C         -27.7438  -53.6122  -15.8845 C.ar      1 MOL     0.0037
      6 C         -27.5167  -53.0509  -14.6326 C.ar      1 MOL     0.0009
      7 C         -28.2063  -53.5313  -13.5166 C.ar      1 MOL     0.0131
      8 C         -29.1525  -54.5704  -13.6327 C.ar      1 MOL     0.0397
      9 C         -29.9191  -54.9645  -12.3904 C.2       1 MOL     0.0752
     10 O         -31.9602  -54.9739  -15.7651 O.2       1 MOL    -0.2507
     11 O         -30.1920  -56.2394  -15.0668 O.3       1 MOL    -0.4254
     12 O         -30.8712  -55.7810  -12.5319 O.co2     1 MOL    -0.5445
     13 O         -29.5705  -54.4102  -11.3082 O.co2     1 MOL    -0.5445
     14 H         -32.9133  -57.2512  -16.5806 H         1 MOL     0.0342
     15 H         -32.0825  -58.0650  -15.2002 H         1 MOL     0.0342
     16 H         -31.2265  -57.8540  -16.7714 H         1 MOL     0.0342
     17 H         -28.8178  -55.1107  -16.9777 H         1 MOL     0.0654
     18 H         -27.2209  -53.2428  -16.7530 H         1 MOL     0.0619
     19 H         -26.8067  -52.2456  -14.5232 H         1 MOL     0.0618
     20 H         -28.0199  -53.0912  -12.5462 H         1 MOL     0.0625
@<TRIPOS>BOND
     1    1    2 1 
     2    1   14 1 
     3    1   15 1 
     4    1   16 1 
     5    2   10 2 
     6    2   11 1 
     7    3    4 ar
     8    3    8 ar
     9    3   11 1 
    10    4    5 ar
    11    4   17 1 
    12    5    6 ar
    13    5   18 1 
    14    6    7 ar
    15    6   19 1 
    16    7    8 ar
    17    7   20 1 
    18    8    9 1 
    19    9   12 ar
    20    9   13 ar
@<TRIPOS>SUBSTRUCTURE
1 MOL         1
@<TRIPOS>MOLECULE
query molecule
   20    20     1     0     0
SMALL
NO_CHARGE

@<TRIPOS>ATOM
      1 C         -33.4652  -43.3729    7.8483 C.3       1 MOL     0.1362
      2 C         -33.7874  -42.9979    6.4074 C.2       1 MOL     0.3092
      3 C         -32.6808  -42.9863    4.3366 C.ar      1 MOL     0.1404
      4 C         -33.2535  -43.9273    3.4565 C.ar      1 MOL     0.0468
      5 C         -33.2195  -43.7216    2.0790 C.ar      1 MOL     0.0037
      6 C         -32.6033  -42.5825    1.5674 C.ar      1 MOL     0.0009
      7 C         -32.0443  -41.6406    2.4296 C.ar      1 MOL     0.0131
      8 C         -32.0694  -41.8261    3.8279 C.ar      1 MOL     0.0397
      9 C         -31.4042  -40.7664    4.6880 C.2       1 MOL     0.0752
     10 O         -34.8515  -42.5425    6.0241 O.2       1 MOL    -0.2507
     11 O         -32.7175  -43.2378    5.6887 O.3       1 MOL    -0.4254
     12 O         -30.7071  -39.9164    4.0651 O.co2     1 MOL    -0.5445
     13 O         -31.5918  -40.8018    5.9357 O.co2     1 MOL    -0.5445
     14 H         -34.2393  -42.9560    8.5259 H         1 MOL     0.0342
     15 H         -32.4754  -42.9599    8.1331 H         1 MOL     0.0342
     16 H         -33.4429  -44.4745    7.9728 H         1 MOL     0.0342
     17 H         -33.7245  -44.8187    3.8448 H         1 MOL     0.0654
     18 H         -33.6641  -44.4433    1.4098 H         1 MOL     0.0619
     19 H         -32.5567  -42.4354    0.4991 H         1 MOL     0.0618
     20 H         -31.5745  -40.7588    2.0144 H         1 MOL     0.0625
@<TRIPOS>BOND
     1    1    2 1 
     2    1   14 1 
     3    1   15 1 
     4    1   16 1 
     5    2   10 2 
     6    2   11 1 
     7    3    4 ar
     8    3    8 ar
     9    3   11 1 
    10    4    5 ar
    11    4   17 1 
    12    5    6 ar
    13    5   18 1 
    14    6    7 ar
    15    6   19 1 
    16    7    8 ar
    17    7   20 1 
    18    8    9 1 
    19    9   12 ar
    20    9   13 ar
@<TRIPOS>SUBSTRUCTURE
1 MOL         1
@<TRIPOS>MOLECULE
query molecule
   20    20     1     0     0
SMALL
NO_CHARGE

@<TRIPOS>ATOM
      1 C         -35.1102  -63.2811    5.9680 C.3       1 MOL     0.1362
      2 C         -33.6753  -62.7967    5.8619 C.2       1 MOL     0.3092
      3 C         -31.7438  -63.3648    4.6745 C.ar      1 MOL     0.1404
      4 C         -30.6704  -63.5505    5.5626 C.ar      1 MOL     0.0468
      5 C         -29.3656  -63.2898    5.1569 C.ar      1 MOL     0.0037
      6 C         -29.1186  -62.8521    3.8620 C.ar      1 MOL     0.0009
      7 C         -30.1800  -62.6700    2.9856 C.ar      1 MOL     0.0131
      8 C         -31.5096  -62.9055    3.3698 C.ar      1 MOL     0.0397
      9 C         -32.5966  -62.6390    2.3396 C.2       1 MOL     0.0752
     10 O         -33.2355  -61.7911    6.3886 O.2       1 MOL    -0.2507
     11 O         -33.0212  -63.6515    5.1038 O.3       1 MOL    -0.4254
     12 O         -33.7966  -62.8955    2.6571 O.co2     1 MOL    -0.5445
     13 O         -32.2136  -62.1594    1.2248 O.co2     1 MOL    -0.5445
     14 H         -35.5240  -63.0453    6.9698 H         1 MOL     0.0342
     15 H         -35.1449  -64.3789    5.8158 H         1 MOL     0.0342
     16 H         -35.7359  -62.7905    5.1947 H         1 MOL     0.0342
     17 H         -30.8477  -63.8969    6.5712 H         1 MOL     0.0654
     18 H         -28.5432  -63.4314    5.8436 H         1 MOL     0.0619
     19 H         -28.1069  -62.6536    3.5424 H         1 MOL     0.0618
     20 H         -29.9746  -62.3297    1.9781 H         1 MOL     0.0625
@<TRIPOS>BOND
     1    1    2 1 
     2    1   14 1 
     3    1   15 1 
     4    1   16 1 
     5    2   10 2 
     6    2   11 1 
     7    3    4 ar
     8    3    8 ar
     9    3   11 1 
    10    4    5 ar
    11    4   17 1 
    12    5    6 ar
    13    5   18 1 
    14    6    7 ar
    15    6   19 1 
    16    7    8 ar
    17    7   20 1 
    18    8    9 1 
    19    9   12 ar
    20    9   13 ar
@<TRIPOS>SUBSTRUCTURE
1 MOL         1
@<TRIPOS>MOLECULE
query molecule
   20    20     1     0     0
SMALL
NO_CHARGE

@<TRIPOS>ATOM
      1 C         -36.7239  -47.2591    2.5246 C.3       1 MOL     0.1362
      2 C         -36.1102  -46.3405    3.5623 C.2       1 MOL     0.3092
      3 C         -34.0540  -46.2149    4.6946 C.ar      1 MOL     0.1404
      4 C         -33.9426  -46.9571    5.8911 C.ar      1 MOL     0.0468
      5 C         -33.0880  -46.5515    6.9101 C.ar      1 MOL     0.0037
      6 C         -32.3341  -45.3933    6.7507 C.ar      1 MOL     0.0009
      7 C         -32.4366  -44.6561    5.5726 C.ar      1 MOL     0.0131
      8 C         -33.3022  -45.0456    4.5255 C.ar      1 MOL     0.0397
      9 C         -33.3283  -44.1608    3.2879 C.2       1 MOL     0.0752
     10 O         -36.6990  -45.4275    4.1114 O.2       1 MOL    -0.2507
     11 O         -34.8799  -46.7005    3.7209 O.3       1 MOL    -0.4254
     12 O         -32.5920  -43.1229    3.3312 O.co2     1 MOL    -0.5445
     13 O         -34.0593  -44.5074    2.3114 O.co2     1 MOL    -0.5445
     14 H         -37.8193  -47.0979    2.4668 H         1 MOL     0.0342
     15 H         -36.5351  -48.3205    2.7896 H         1 MOL     0.0342
     16 H         -36.2741  -47.0533    1.5323 H         1 MOL     0.0342
     17 H         -34.5255  -47.8589    6.0182 H         1 MOL     0.0654
     18 H         -33.0101  -47.1289    7.8194 H         1 MOL     0.0619
     19 H         -31.6693  -45.0714    7.5384 H         1 MOL     0.0618
     20 H         -31.8272  -43.7692    5.4597 H         1 MOL     0.0625
@<TRIPOS>BOND
     1    1    2 1 
     2    1   14 1 
     3    1   15 1 
     4    1   16 1 
     5    2   10 2 
     6    2   11 1 
     7    3    4 ar
     8    3    8 ar
     9    3   11 1 
    10    4    5 ar
    11    4   17 1 
    12    5    6 ar
    13    5   18 1 
    14    6    7 ar
    15    6   19 1 
    16    7    8 ar
    17    7   20 1 
    18    8    9 1 
    19    9   12 ar
    20    9   13 ar
@<TRIPOS>SUBSTRUCTURE
1 MOL         1
@<TRIPOS>MOLECULE
query molecule
   20    20     1     0     0
SMALL
NO_CHARGE

@<TRIPOS>ATOM
      1 C         -32.2103  -51.7168   -4.1384 C.3       1 MOL     0.1362
      2 C         -33.6836  -51.7445   -3.7058 C.2       1 MOL     0.3092
      3 C         -35.3254  -50.1292   -3.1352 C.ar      1 MOL     0.1404
      4 C         -35.2104  -49.4095   -1.9284 C.ar      1 MOL     0.0468
      5 C         -36.3139  -48.8630   -1.2836 C.ar      1 MOL     0.0037
      6 C         -37.5585  -49.0020   -1.8587 C.ar      1 MOL     0.0009
      7 C         -37.6999  -49.7110   -3.0464 C.ar      1 MOL     0.0131
      8 C         -36.5883  -50.3056   -3.6850 C.ar      1 MOL     0.0397
      9 C         -36.9050  -51.0891   -4.9248 C.2       1 MOL     0.0752
     10 O         -34.2712  -52.7624   -3.3888 O.2       1 MOL    -0.2507
     11 O         -34.1758  -50.5539   -3.7303 O.3       1 MOL    -0.4254
     12 O         -38.1293  -51.0934   -5.2598 O.co2     1 MOL    -0.5445
     13 O         -35.9667  -51.6658   -5.5383 O.co2     1 MOL    -0.5445
     14 H         -31.7483  -52.7130   -3.9701 H         1 MOL     0.0342
     15 H         -31.6467  -50.9429   -3.5752 H         1 MOL     0.0342
     16 H         -32.1524  -51.4888   -5.2167 H         1 MOL     0.0342
     17 H         -34.2300  -49.2798   -1.4928 H         1 MOL     0.0654
     18 H         -36.1943  -48.3283   -0.3568 H         1 MOL     0.0619
     19 H         -38.4264  -48.5642   -1.3879 H         1 MOL     0.0618
     20 H         -38.6835  -49.8155   -3.4899 H         1 MOL     0.0625
@<TRIPOS>BOND
     1    1    2 1 
     2    1   14 1 
     3    1   15 1 
     4    1   16 1 
     5    2   10 2 
     6    2   11 1 
     7    3    4 ar
     8    3    8 ar
     9    3   11 1 
    10    4    5 ar
    11    4   17 1 
    12    5    6 ar
    13    5   18 1 
    14    6    7 ar
    15    6   19 1 
    16    7    8 ar
    17    7   20 1 
    18    8    9 1 
    19    9   12 ar
    20    9   13 ar
@<TRIPOS>SUBSTRUCTURE
1 MOL         1
@<TRIPOS>MOLECULE
query molecule
   20    20     1     0     0
SMALL
NO_CHARGE

@<TRIPOS>ATOM
      1 C         -20.4982  -55.4462  -12.3648 C.3       1 MOL     0.1362
      2 C         -20.3592  -56.4504  -13.5005 C.2       1 MOL     0.3092
      3 C         -21.7663  -57.8523  -14.7621 C.ar      1 MOL     0.1404
      4 C         -21.9116  -57.4540  -16.1034 C.ar      1 MOL     0.0468
      5 C         -22.1361  -58.3976  -17.1058 C.ar      1 MOL     0.0037
      6 C         -22.2105  -59.7500  -16.7806 C.ar      1 MOL     0.0009
      7 C         -22.0810  -60.1495  -15.4517 C.ar      1 MOL     0.0131
      8 C         -21.8602  -59.2107  -14.4261 C.ar      1 MOL     0.0397
      9 C         -21.7432  -59.7447  -13.0054 C.2       1 MOL     0.0752
     10 O         -19.3036  -56.7762  -14.0145 O.2       1 MOL    -0.2507
     11 O         -21.5626  -56.8909  -13.8001 O.3       1 MOL    -0.4254
     12 O         -22.0362  -60.9666  -12.8072 O.co2     1 MOL    -0.5445
     13 O         -21.3434  -58.9350  -12.1143 O.co2     1 MOL    -0.5445
     14 H         -19.5007  -55.0852  -12.0432 H         1 MOL     0.0342
     15 H         -21.0037  -55.9274  -11.5021 H         1 MOL     0.0342
     16 H         -21.1053  -54.5790  -12.6967 H         1 MOL     0.0342
     17 H         -21.8482  -56.4072  -16.3615 H         1 MOL     0.0654
     18 H         -22.2494  -58.0803  -18.1320 H         1 MOL     0.0619
     19 H         -22.3780  -60.4834  -17.5546 H         1 MOL     0.0618
     20 H         -22.1510  -61.1998  -15.2046 H         1 MOL     0.0625
@<TRIPOS>BOND
     1    1    2 1 
     2    1   14 1 
     3    1   15 1 
     4    1   16 1 
     5    2   10 2 
     6    2   11 1 
     7    3    4 ar
     8    3    8 ar
     9    3   11 1 
    10    4    5 ar
    11    4   17 1 
    12    5    6 ar
    13    5   18 1 
    14    6    7 ar
    15    6   19 1 
    16    7    8 ar
    17    7   20 1 
    18    8    9 1 
    19    9   12 ar
    20    9   13 ar
@<TRIPOS>SUBSTRUCTURE
1 MOL         1
@<TRIPOS>MOLECULE
query molecule
   20    20     1     0     0
SMALL
NO_CHARGE

@<TRIPOS>ATOM
      1 C         -21.9229  -73.6039   13.2260 C.3       1 MOL     0.1362
      2 C         -21.8307  -72.1687   12.7059 C.2       1 MOL     0.3092
      3 C         -21.9240  -71.2312   10.5357 C.ar      1 MOL     0.1404
      4 C         -22.6481  -70.0331   10.6056 C.ar      1 MOL     0.0468
      5 C         -22.4596  -69.0165    9.6688 C.ar      1 MOL     0.0037
      6 C         -21.5671  -69.1956    8.6200 C.ar      1 MOL     0.0009
      7 C         -20.8561  -70.3861    8.5337 C.ar      1 MOL     0.0131
      8 C         -21.0025  -71.4145    9.4841 C.ar      1 MOL     0.0397
      9 C         -20.1272  -72.6438    9.3037 C.2       1 MOL     0.0752
     10 O         -21.5154  -71.2139   13.3823 O.2       1 MOL    -0.2507
     11 O         -22.1327  -72.2094   11.4567 O.3       1 MOL    -0.4254
     12 O         -19.3718  -72.6565    8.2793 O.co2     1 MOL    -0.5445
     13 O         -20.2027  -73.5527   10.1811 O.co2     1 MOL    -0.5445
     14 H         -21.4530  -73.6826   14.2268 H         1 MOL     0.0342
     15 H         -21.3937  -74.2888   12.5286 H         1 MOL     0.0342
     16 H         -22.9823  -73.9187   13.2964 H         1 MOL     0.0342
     17 H         -23.3628  -69.8915   11.4048 H         1 MOL     0.0654
     18 H         -23.0140  -68.0934    9.7526 H         1 MOL     0.0619
     19 H         -21.4255  -68.4213    7.8835 H         1 MOL     0.0618
     20 H         -20.1663  -70.5272    7.7107 H         1 MOL     0.0625
@<TRIPOS>BOND
     1    1    2 1 
     2    1   14 1 
     3    1   15 1 
     4    1   16 1 
     5    2   10 2 
     6    2   11 1 
     7    3    4 ar
     8    3    8 ar
     9    3   11 1 
    10    4    5 ar
    11    4   17 1 
    12    5    6 ar
    13    5   18 1 
    14    6    7 ar
    15    6   19 1 
    16    7    8 ar
    17    7   20 1 
    18    8    9 1 
    19    9   12 ar
    20    9   13 ar
@<TRIPOS>SUBSTRUCTURE
1 MOL         1
@<TRIPOS>MOLECULE
query molecule
   20    20     1     0     0
SMALL
NO_CHARGE

@<TRIPOS>ATOM
      1 C         -42.6274  -59.1648  -11.6013 C.3       1 MOL     0.1362
      2 C         -43.0248  -59.1406  -13.0659 C.2       1 MOL     0.3092
      3 C         -44.8334  -59.8683  -14.3885 C.ar      1 MOL     0.1404
      4 C         -44.4122  -60.8062  -15.3594 C.ar      1 MOL     0.0468
      5 C         -45.0480  -60.8885  -16.5976 C.ar      1 MOL     0.0037
      6 C         -46.1209  -60.0407  -16.8727 C.ar      1 MOL     0.0009
      7 C         -46.5757  -59.1508  -15.8975 C.ar      1 MOL     0.0131
      8 C         -45.9494  -59.0484  -14.6354 C.ar      1 MOL     0.0397
      9 C         -46.5399  -58.0526  -13.6429 C.2       1 MOL     0.0752
     10 O         -42.3986  -58.5658  -13.9406 O.2       1 MOL    -0.2507
     11 O         -44.1514  -59.8030  -13.1930 O.3       1 MOL    -0.4254
     12 O         -47.7265  -57.6560  -13.8923 O.co2     1 MOL    -0.5445
     13 O         -45.8481  -57.6596  -12.6536 O.co2     1 MOL    -0.5445
     14 H         -41.7016  -58.5711  -11.4593 H         1 MOL     0.0342
     15 H         -42.4618  -60.2050  -11.2592 H         1 MOL     0.0342
     16 H         -43.4378  -58.7080  -10.9967 H         1 MOL     0.0342
     17 H         -43.5881  -61.4767  -15.1509 H         1 MOL     0.0654
     18 H         -44.7166  -61.5995  -17.3400 H         1 MOL     0.0619
     19 H         -46.5995  -60.0824  -17.8423 H         1 MOL     0.0618
     20 H         -47.4197  -58.5148  -16.1283 H         1 MOL     0.0625
@<TRIPOS>BOND
     1    1    2 1 
     2    1   14 1 
     3    1   15 1 
     4    1   16 1 
     5    2   10 2 
     6    2   11 1 
     7    3    4 ar
     8    3    8 ar
     9    3   11 1 
    10    4    5 ar
    11    4   17 1 
    12    5    6 ar
    13    5   18 1 
    14    6    7 ar
    15    6   19 1 
    16    7    8 ar
    17    7   20 1 
    18    8    9 1 
    19    9   12 ar
    20    9   13 ar
@<TRIPOS>SUBSTRUCTURE
1 MOL         1
@<TRIPOS>MOLECULE
query molecule
   20    20     1     0     0
SMALL
NO_CHARGE

@<TRIPOS>ATOM
      1 C         -39.9486  -54.2765  -13.9464 C.3       1 MOL     0.1362
      2 C         -39.0663  -53.0912  -13.5885 C.2       1 MOL     0.3092
      3 C         -37.4701  -52.5740  -11.9312 C.ar      1 MOL     0.1404
      4 C         -38.0639  -51.8103  -10.9011 C.ar      1 MOL     0.0468
      5 C         -37.3116  -50.9100  -10.1507 C.ar      1 MOL     0.0037
      6 C         -35.9558  -50.7520  -10.4272 C.ar      1 MOL     0.0009
      7 C         -35.3674  -51.5041  -11.4422 C.ar      1 MOL     0.0131
      8 C         -36.1059  -52.4336  -12.2040 C.ar      1 MOL     0.0397
      9 C         -35.3481  -53.2143  -13.2635 C.2       1 MOL     0.0752
     10 O         -39.1074  -52.0016  -14.1339 O.2       1 MOL    -0.2507
     11 O         -38.2736  -53.4562  -12.6098 O.3       1 MOL    -0.4254
     12 O         -34.0828  -53.1564  -13.2004 O.co2     1 MOL    -0.5445
     13 O         -36.0148  -53.8397  -14.1363 O.co2     1 MOL    -0.5445
     14 H         -40.7500  -53.9632  -14.6456 H         1 MOL     0.0342
     15 H         -40.4200  -54.6813  -13.0251 H         1 MOL     0.0342
     16 H         -39.3445  -55.0762  -14.4175 H         1 MOL     0.0342
     17 H         -39.1177  -51.9333  -10.6877 H         1 MOL     0.0654
     18 H         -37.7791  -50.3418   -9.3599 H         1 MOL     0.0619
     19 H         -35.3658  -50.0531   -9.8536 H         1 MOL     0.0618
     20 H         -34.3132  -51.3702  -11.6523 H         1 MOL     0.0625
@<TRIPOS>BOND
     1    1    2 1 
     2    1   14 1 
     3    1   15 1 
     4    1   16 1 
     5    2   10 2 
     6    2   11 1 
     7    3    4 ar
     8    3    8 ar
     9    3   11 1 
    10    4    5 ar
    11    4   17 1 
    12    5    6 ar
    13    5   18 1 
    14    6    7 ar
    15    6   19 1 
    16    7    8 ar
    17    7   20 1 
    18    8    9 1 
    19    9   12 ar
    20    9   13 ar
@<TRIPOS>SUBSTRUCTURE
1 MOL         1
@<TRIPOS>MOLECULE
query molecule
   20    20     1     0     0
SMALL
NO_CHARGE

@<TRIPOS>ATOM
      1 C         -10.8317  -42.6951   -7.2795 C.3       1 MOL     0.1362
      2 C         -10.1189  -41.4900   -7.8791 C.2       1 MOL     0.3092
      3 C          -8.2666  -41.1666   -9.2944 C.ar      1 MOL     0.1404
      4 C          -8.7166  -41.1311  -10.6369 C.ar      1 MOL     0.0468
      5 C          -8.0020  -40.4418  -11.6171 C.ar      1 MOL     0.0037
      6 C          -6.8302  -39.7743  -11.2715 C.ar      1 MOL     0.0009
      7 C          -6.3883  -39.8060   -9.9536 C.ar      1 MOL     0.0131
      8 C          -7.0964  -40.4980   -8.9415 C.ar      1 MOL     0.0397
      9 C          -6.4968  -40.4151   -7.5560 C.2       1 MOL     0.0752
     10 O         -10.5702  -40.3593   -7.8703 O.2       1 MOL    -0.2507
     11 O          -8.9961  -41.9000   -8.3953 O.3       1 MOL    -0.4254
     12 O          -7.1305  -40.8511   -6.5477 O.co2     1 MOL    -0.5445
     13 O          -5.3623  -39.8441   -7.5146 O.co2     1 MOL    -0.5445
     14 H         -11.7020  -42.3612   -6.6788 H         1 MOL     0.0342
     15 H         -10.1442  -43.2731   -6.6306 H         1 MOL     0.0342
     16 H         -11.1937  -43.3558   -8.0953 H         1 MOL     0.0342
     17 H          -9.6259  -41.6457  -10.9177 H         1 MOL     0.0654
     18 H          -8.3511  -40.4253  -12.6394 H         1 MOL     0.0619
     19 H          -6.2683  -39.2371  -12.0195 H         1 MOL     0.0618
     20 H          -5.4794  -39.2813   -9.6883 H         1 MOL     0.0625
@<TRIPOS>BOND
     1    1    2 1 
     2    1   14 1 
     3    1   15 1 
     4    1   16 1 
     5    2   10 2 
     6    2   11 1 
     7    3    4 ar
     8    3    8 ar
     9    3   11 1 
    10    4    5 ar
    11    4   17 1 
    12    5    6 ar
    13    5   18 1 
    14    6    7 ar
    15    6   19 1 
    16    7    8 ar
    17    7   20 1 
    18    8    9 1 
    19    9   12 ar
    20    9   13 ar
@<TRIPOS>SUBSTRUCTURE
1 MOL         1
@<TRIPOS>MOLECULE
query molecule
   20    20     1     0     0
SMALL
NO_CHARGE

@<TRIPOS>ATOM
      1 C         -61.2439  -45.5762   14.2348 C.3       1 MOL     0.1362
      2 C         -62.3008  -46.6484   13.9953 C.2       1 MOL     0.3092
      3 C         -64.6420  -46.8706   14.1859 C.ar      1 MOL     0.1404
      4 C         -65.3008  -46.5340   12.9833 C.ar      1 MOL     0.0468
      5 C         -66.4696  -47.1816   12.5994 C.ar      1 MOL     0.0037
      6 C         -67.0005  -48.1767   13.4175 C.ar      1 MOL     0.0009
      7 C         -66.3634  -48.5122   14.6154 C.ar      1 MOL     0.0131
      8 C         -65.1815  -47.8577   15.0251 C.ar      1 MOL     0.0397
      9 C         -64.5804  -48.2907   16.3478 C.2       1 MOL     0.0752
     10 O         -62.0870  -47.7098   13.4292 O.2       1 MOL    -0.2507
     11 O         -63.4614  -46.2148   14.4706 O.3       1 MOL    -0.4254
     12 O         -64.9691  -49.3856   16.8605 O.co2     1 MOL    -0.5445
     13 O         -63.7100  -47.5230   16.8552 O.co2     1 MOL    -0.5445
     14 H         -60.2557  -45.9249   13.8702 H         1 MOL     0.0342
     15 H         -61.1759  -45.3299   15.3120 H         1 MOL     0.0342
     16 H         -61.5177  -44.6577   13.6710 H         1 MOL     0.0342
     17 H         -64.8847  -45.7653   12.3465 H         1 MOL     0.0654
     18 H         -66.9588  -46.9112   11.6757 H         1 MOL     0.0619
     19 H         -67.9084  -48.6793   13.1198 H         1 MOL     0.0618
     20 H         -66.7958  -49.2860   15.2367 H         1 MOL     0.0625
@<TRIPOS>BOND
     1    1    2 1 
     2    1   14 1 
     3    1   15 1 
     4    1   16 1 
     5    2   10 2 
     6    2   11 1 
     7    3    4 ar
     8    3    8 ar
     9    3   11 1 
    10    4    5 ar
    11    4   17 1 
    12    5    6 ar
    13    5   18 1 
    14    6    7 ar
    15    6   19 1 
    16    7    8 ar
    17    7   20 1 
    18    8    9 1 
    19    9   12 ar
    20    9   13 ar
@<TRIPOS>SUBSTRUCTURE
1 MOL         1
@<TRIPOS>MOLECULE
query molecule
   20    20     1     0     0
SMALL
NO_CHARGE

@<TRIPOS>ATOM
      1 C         -29.1418  -72.3277   11.4857 C.3       1 MOL     0.1362
      2 C         -28.5014  -71.6369   12.6855 C.2       1 MOL     0.3092
      3 C         -27.3888  -72.3212   14.6387 C.ar      1 MOL     0.1404
      4 C         -25.9825  -72.2879   14.5585 C.ar      1 MOL     0.0468
      5 C         -25.2087  -72.0835   15.6954 C.ar      1 MOL     0.0037
      6 C         -25.8359  -71.9032   16.9251 C.ar      1 MOL     0.0009
      7 C         -27.2311  -71.9240   17.0133 C.ar      1 MOL     0.0131
      8 C         -28.0373  -72.1325   15.8681 C.ar      1 MOL     0.0397
      9 C         -29.5553  -72.1335   16.0384 C.2       1 MOL     0.0752
     10 O         -28.4142  -70.4376   12.8343 O.2       1 MOL    -0.2507
     11 O         -28.0920  -72.5723   13.4932 O.3       1 MOL    -0.4254
     12 O         -29.9204  -71.9340   17.2357 O.co2     1 MOL    -0.5445
     13 O         -30.3314  -72.2755   15.0389 O.co2     1 MOL    -0.5445
     14 H         -29.5726  -71.5736   10.7998 H         1 MOL     0.0342
     15 H         -29.9510  -73.0146   11.8219 H         1 MOL     0.0342
     16 H         -28.3758  -72.9160   10.9407 H         1 MOL     0.0342
     17 H         -25.5072  -72.4358   13.5995 H         1 MOL     0.0654
     18 H         -24.1332  -72.0706   15.6175 H         1 MOL     0.0619
     19 H         -25.2361  -71.7528   17.8099 H         1 MOL     0.0618
     20 H         -27.6947  -71.7713   17.9823 H         1 MOL     0.0625
@<TRIPOS>BOND
     1    1    2 1 
     2    1   14 1 
     3    1   15 1 
     4    1   16 1 
     5    2   10 2 
     6    2   11 1 
     7    3    4 ar
     8    3    8 ar
     9    3   11 1 
    10    4    5 ar
    11    4   17 1 
    12    5    6 ar
    13    5   18 1 
    14    6    7 ar
    15    6   19 1 
    16    7    8 ar
    17    7   20 1 
    18    8    9 1 
    19    9   12 ar
    20    9   13 ar
@<TRIPOS>SUBSTRUCTURE
1 MOL         1
@<TRIPOS>MOLECULE
query molecule
   20    20     1     0     0
SMALL
NO_CHARGE

@<TRIPOS>ATOM
      1 C         -42.5517  -31.4175   -2.9396 C.3       1 MOL     0.1362
      2 C         -41.6208  -31.7155   -4.1157 C.2       1 MOL     0.3092
      3 C         -41.9993  -32.5760   -6.2946 C.ar      1 MOL     0.1404
      4 C         -40.7234  -32.8993   -6.7619 C.ar      1 MOL     0.0468
      5 C         -40.4452  -32.9412   -8.1256 C.ar      1 MOL     0.0037
      6 C         -41.4441  -32.6710   -9.0498 C.ar      1 MOL     0.0009
      7 C         -42.7242  -32.3695   -8.6013 C.ar      1 MOL     0.0131
      8 C         -43.0319  -32.3482   -7.2298 C.ar      1 MOL     0.0397
      9 C         -44.4904  -32.1506   -6.8626 C.2       1 MOL     0.0752
     10 O         -40.5024  -31.2418   -4.2276 O.2       1 MOL    -0.2507
     11 O         -42.2550  -32.4980   -4.9480 O.3       1 MOL    -0.4254
     12 O         -44.8000  -32.1532   -5.6341 O.co2     1 MOL    -0.5445
     13 O         -45.3180  -32.1044   -7.8226 O.co2     1 MOL    -0.5445
     14 H         -41.9682  -31.0437   -2.0752 H         1 MOL     0.0342
     15 H         -43.0894  -32.3393   -2.6429 H         1 MOL     0.0342
     16 H         -43.2985  -30.6452   -3.2278 H         1 MOL     0.0342
     17 H         -39.9362  -33.1020   -6.0497 H         1 MOL     0.0654
     18 H         -39.4466  -33.1850   -8.4609 H         1 MOL     0.0619
     19 H         -41.2310  -32.7016  -10.1064 H         1 MOL     0.0618
     20 H         -43.5036  -32.1543   -9.3191 H         1 MOL     0.0625
@<TRIPOS>BOND
     1    1    2 1 
     2    1   14 1 
     3    1   15 1 
     4    1   16 1 
     5    2   10 2 
     6    2   11 1 
     7    3    4 ar
     8    3    8 ar
     9    3   11 1 
    10    4    5 ar
    11    4   17 1 
    12    5    6 ar
    13    5   18 1 
    14    6    7 ar
    15    6   19 1 
    16    7    8 ar
    17    7   20 1 
    18    8    9 1 
    19    9   12 ar
    20    9   13 ar
@<TRIPOS>SUBSTRUCTURE
1 MOL         1
@<TRIPOS>MOLECULE
query molecule
   20    20     1     0     0
SMALL
NO_CHARGE

@<TRIPOS>ATOM
      1 C          -5.5393  -38.5434  -10.9146 C.3       1 MOL     0.1362
      2 C          -6.0040  -39.9522  -10.5755 C.2       1 MOL     0.3092
      3 C          -7.7125  -40.9640   -9.3149 C.ar      1 MOL     0.1404
      4 C          -8.6818  -41.5789  -10.1267 C.ar      1 MOL     0.0468
      5 C          -9.4019  -42.6793   -9.6637 C.ar      1 MOL     0.0037
      6 C          -9.1443  -43.1848   -8.3884 C.ar      1 MOL     0.0009
      7 C          -8.1940  -42.5659   -7.5696 C.ar      1 MOL     0.0131
      8 C          -7.4714  -41.4402   -8.0184 C.ar      1 MOL     0.0397
      9 C          -6.4832  -40.7921   -7.0773 C.2       1 MOL     0.0752
     10 O          -5.4744  -40.9748  -10.9799 O.2       1 MOL    -0.2507
     11 O          -7.0527  -39.8551   -9.7952 O.3       1 MOL    -0.4254
     12 O          -5.5929  -39.9885   -7.5194 O.co2     1 MOL    -0.5445
     13 O          -6.7074  -41.0381   -5.8555 O.co2     1 MOL    -0.5445
     14 H          -4.6914  -38.5788  -11.6294 H         1 MOL     0.0342
     15 H          -5.2134  -38.0181   -9.9945 H         1 MOL     0.0342
     16 H          -6.3736  -37.9758  -11.3771 H         1 MOL     0.0342
     17 H          -8.8725  -41.1888  -11.1168 H         1 MOL     0.0654
     18 H         -10.1418  -43.1445  -10.2975 H         1 MOL     0.0619
     19 H          -9.6853  -44.0550   -8.0393 H         1 MOL     0.0618
     20 H          -8.0144  -42.9651   -6.5794 H         1 MOL     0.0625
@<TRIPOS>BOND
     1    1    2 1 
     2    1   14 1 
     3    1   15 1 
     4    1   16 1 
     5    2   10 2 
     6    2   11 1 
     7    3    4 ar
     8    3    8 ar
     9    3   11 1 
    10    4    5 ar
    11    4   17 1 
    12    5    6 ar
    13    5   18 1 
    14    6    7 ar
    15    6   19 1 
    16    7    8 ar
    17    7   20 1 
    18    8    9 1 
    19    9   12 ar
    20    9   13 ar
@<TRIPOS>SUBSTRUCTURE
1 MOL         1
@<TRIPOS>MOLECULE
query molecule
   20    20     1     0     0
SMALL
NO_CHARGE

@<TRIPOS>ATOM
      1 C         -11.6419  -43.0520    7.1465 C.3       1 MOL     0.1362
      2 C         -11.2715  -44.3926    6.5280 C.2       1 MOL     0.3092
      3 C         -12.1368  -46.5858    6.6237 C.ar      1 MOL     0.1404
      4 C         -11.2637  -47.6091    7.0264 C.ar      1 MOL     0.0468
      5 C         -11.3620  -48.8837    6.4624 C.ar      1 MOL     0.0037
      6 C         -12.3340  -49.1425    5.4959 C.ar      1 MOL     0.0009
      7 C         -13.2105  -48.1313    5.0985 C.ar      1 MOL     0.0131
      8 C         -13.1354  -46.8511    5.6685 C.ar      1 MOL     0.0397
      9 C         -14.1441  -45.8140    5.2250 C.2       1 MOL     0.0752
     10 O         -10.4777  -44.5309    5.6060 O.2       1 MOL    -0.2507
     11 O         -11.9875  -45.3155    7.1352 O.3       1 MOL    -0.4254
     12 O         -14.4606  -44.9040    6.0457 O.co2     1 MOL    -0.5445
     13 O         -14.5886  -45.9332    4.0409 O.co2     1 MOL    -0.5445
     14 H         -10.8150  -42.3243    7.0347 H         1 MOL     0.0342
     15 H         -11.8801  -43.1745    8.2226 H         1 MOL     0.0342
     16 H         -12.5423  -42.6568    6.6290 H         1 MOL     0.0342
     17 H         -10.5055  -47.4115    7.7713 H         1 MOL     0.0654
     18 H         -10.6845  -49.6662    6.7704 H         1 MOL     0.0619
     19 H         -12.4117  -50.1261    5.0562 H         1 MOL     0.0618
     20 H         -13.9729  -48.3425    4.3622 H         1 MOL     0.0625
@<TRIPOS>BOND
     1    1    2 1 
     2    1   14 1 
     3    1   15 1 
     4    1   16 1 
     5    2   10 2 
     6    2   11 1 
     7    3    4 ar
     8    3    8 ar
     9    3   11 1 
    10    4    5 ar
    11    4   17 1 
    12    5    6 ar
    13    5   18 1 
    14    6    7 ar
    15    6   19 1 
    16    7    8 ar
    17    7   20 1 
    18    8    9 1 
    19    9   12 ar
    20    9   13 ar
@<TRIPOS>SUBSTRUCTURE
1 MOL         1
@<TRIPOS>MOLECULE
query molecule
   20    20     1     0     0
SMALL
NO_CHARGE

@<TRIPOS>ATOM
      1 C         -27.6337  -71.1217    0.8379 C.3       1 MOL     0.1362
      2 C         -26.6693  -70.2993   -0.0168 C.2       1 MOL     0.3092
      3 C         -24.6069  -69.1643    0.2017 C.ar      1 MOL     0.1404
      4 C         -24.8712  -67.8139   -0.1004 C.ar      1 MOL     0.0468
      5 C         -23.9292  -67.0362   -0.7645 C.ar      1 MOL     0.0037
      6 C         -22.7066  -67.5904   -1.1259 C.ar      1 MOL     0.0009
      7 C         -22.4116  -68.9061   -0.7672 C.ar      1 MOL     0.0131
      8 C         -23.3413  -69.7057   -0.0701 C.ar      1 MOL     0.0397
      9 C         -22.8825  -71.0932    0.3588 C.2       1 MOL     0.0752
     10 O         -26.8607  -70.0328   -1.1894 O.2       1 MOL    -0.2507
     11 O         -25.6243  -69.9328    0.7357 O.3       1 MOL    -0.4254
     12 O         -21.7863  -71.5081   -0.1443 O.co2     1 MOL    -0.5445
     13 O         -23.5886  -71.7334    1.1979 O.co2     1 MOL    -0.5445
     14 H         -28.5074  -71.4305    0.2267 H         1 MOL     0.0342
     15 H         -27.9952  -70.5295    1.7027 H         1 MOL     0.0342
     16 H         -27.1227  -72.0324    1.2111 H         1 MOL     0.0342
     17 H         -25.8267  -67.3830    0.1642 H         1 MOL     0.0654
     18 H         -24.1552  -66.0134   -1.0148 H         1 MOL     0.0619
     19 H         -21.9834  -66.9978   -1.6662 H         1 MOL     0.0618
     20 H         -21.4423  -69.3145   -1.0212 H         1 MOL     0.0625
@<TRIPOS>BOND
     1    1    2 1 
     2    1   14 1 
     3    1   15 1 
     4    1   16 1 
     5    2   10 2 
     6    2   11 1 
     7    3    4 ar
     8    3    8 ar
     9    3   11 1 
    10    4    5 ar
    11    4   17 1 
    12    5    6 ar
    13    5   18 1 
    14    6    7 ar
    15    6   19 1 
    16    7    8 ar
    17    7   20 1 
    18    8    9 1 
    19    9   12 ar
    20    9   13 ar
@<TRIPOS>SUBSTRUCTURE
1 MOL         1
@<TRIPOS>MOLECULE
query molecule
   20    20     1     0     0
SMALL
NO_CHARGE

@<TRIPOS>ATOM
      1 C         -45.3098  -60.4608  -17.6330 C.3       1 MOL     0.1362
      2 C         -44.9139  -60.6450  -16.1761 C.2       1 MOL     0.3092
      3 C         -44.1428  -59.3044  -14.3983 C.ar      1 MOL     0.1404
      4 C         -42.8703  -59.7560  -13.9898 C.ar      1 MOL     0.0468
      5 C         -42.4495  -59.6086  -12.6683 C.ar      1 MOL     0.0037
      6 C         -43.3006  -59.0194  -11.7366 C.ar      1 MOL     0.0009
      7 C         -44.5565  -58.5636  -12.1360 C.ar      1 MOL     0.0131
      8 C         -44.9933  -58.6791  -13.4743 C.ar      1 MOL     0.0397
      9 C         -46.3456  -58.0869  -13.8211 C.2       1 MOL     0.0752
     10 O         -44.9559  -61.7077  -15.5781 O.2       1 MOL    -0.2507
     11 O         -44.5263  -59.4800  -15.7100 O.3       1 MOL    -0.4254
     12 O         -46.7353  -58.0147  -15.0191 O.co2     1 MOL    -0.5445
     13 O         -47.0034  -57.6588  -12.8138 O.co2     1 MOL    -0.5445
     14 H         -45.0745  -61.3749  -18.2154 H         1 MOL     0.0342
     15 H         -44.7536  -59.6055  -18.0687 H         1 MOL     0.0342
     16 H         -46.3976  -60.2582  -17.7038 H         1 MOL     0.0342
     17 H         -42.2091  -60.2245  -14.7063 H         1 MOL     0.0654
     18 H         -41.4696  -59.9489  -12.3680 H         1 MOL     0.0619
     19 H         -42.9847  -58.9092  -10.7100 H         1 MOL     0.0618
     20 H         -45.2092  -58.1033  -11.4056 H         1 MOL     0.0625
@<TRIPOS>BOND
     1    1    2 1 
     2    1   14 1 
     3    1   15 1 
     4    1   16 1 
     5    2   10 2 
     6    2   11 1 
     7    3    4 ar
     8    3    8 ar
     9    3   11 1 
    10    4    5 ar
    11    4   17 1 
    12    5    6 ar
    13    5   18 1 
    14    6    7 ar
    15    6   19 1 
    16    7    8 ar
    17    7   20 1 
    18    8    9 1 
    19    9   12 ar
    20    9   13 ar
@<TRIPOS>SUBSTRUCTURE
1 MOL         1
@<TRIPOS>MOLECULE
query molecule
   20    20     1     0     0
SMALL
NO_CHARGE

@<TRIPOS>ATOM
      1 C         -46.3945  -68.5925   -6.8932 C.3       1 MOL     0.1362
      2 C         -46.1171  -68.8009   -5.4015 C.2       1 MOL     0.3092
      3 C         -44.4336  -68.1105   -3.8749 C.ar      1 MOL     0.1404
      4 C         -44.9367  -66.9952   -3.1613 C.ar      1 MOL     0.0468
      5 C         -44.4575  -66.6792   -1.8922 C.ar      1 MOL     0.0037
      6 C         -43.4767  -67.4774   -1.3068 C.ar      1 MOL     0.0009
      7 C         -42.9843  -68.5834   -1.9960 C.ar      1 MOL     0.0131
      8 C         -43.4434  -68.9135   -3.2905 C.ar      1 MOL     0.0397
      9 C         -42.7777  -70.1110   -3.9489 C.2       1 MOL     0.0752
     10 O         -46.9144  -69.2875   -4.6191 O.2       1 MOL    -0.2507
     11 O         -44.9187  -68.3430   -5.1402 O.3       1 MOL    -0.4254
     12 O         -41.9571  -70.7755   -3.2334 O.co2     1 MOL    -0.5445
     13 O         -43.0509  -70.3543   -5.1618 O.co2     1 MOL    -0.5445
     14 H         -47.4448  -68.8625   -7.1308 H         1 MOL     0.0342
     15 H         -45.7149  -69.2137   -7.5099 H         1 MOL     0.0342
     16 H         -46.2418  -67.5245   -7.1587 H         1 MOL     0.0342
     17 H         -45.7033  -66.3736   -3.6085 H         1 MOL     0.0654
     18 H         -44.8388  -65.8200   -1.3605 H         1 MOL     0.0619
     19 H         -43.1000  -67.2385   -0.3227 H         1 MOL     0.0618
     20 H         -42.2161  -69.1891   -1.5298 H         1 MOL     0.0625
@<TRIPOS>BOND
     1    1    2 1 
     2    1   14 1 
     3    1   15 1 
     4    1   16 1 
     5    2   10 2 
     6    2   11 1 
     7    3    4 ar
     8    3    8 ar
     9    3   11 1 
    10    4    5 ar
    11    4   17 1 
    12    5    6 ar
    13    5   18 1 
    14    6    7 ar
    15    6   19 1 
    16    7    8 ar
    17    7   20 1 
    18    8    9 1 
    19    9   12 ar
    20    9   13 ar
@<TRIPOS>SUBSTRUCTURE
1 MOL         1
@<TRIPOS>MOLECULE
query molecule
   20    20     1     0     0
SMALL
NO_CHARGE

@<TRIPOS>ATOM
      1 C          -8.2221  -56.8948    7.9979 C.3       1 MOL     0.1362
      2 C          -9.6520  -57.4110    8.1248 C.2       1 MOL     0.3092
      3 C         -10.8360  -58.6587    9.7386 C.ar      1 MOL     0.1404
      4 C         -10.5388  -60.0404    9.7862 C.ar      1 MOL     0.0468
      5 C         -11.4935  -60.9672   10.1926 C.ar      1 MOL     0.0037
      6 C         -12.7696  -60.5283   10.5392 C.ar      1 MOL     0.0009
      7 C         -13.0728  -59.1671   10.4852 C.ar      1 MOL     0.0131
      8 C         -12.1081  -58.2081   10.1069 C.ar      1 MOL     0.0397
      9 C         -12.5394  -56.7477   10.1157 C.2       1 MOL     0.0752
     10 O         -10.4570  -57.4575    7.2131 O.2       1 MOL    -0.2507
     11 O          -9.8265  -57.8105    9.3581 O.3       1 MOL    -0.4254
     12 O         -13.7412  -56.5269   10.4668 O.co2     1 MOL    -0.5445
     13 O         -11.6991  -55.8687    9.7592 O.co2     1 MOL    -0.5445
     14 H          -7.9671  -56.7159    6.9341 H         1 MOL     0.0342
     15 H          -7.5204  -57.6570    8.4026 H         1 MOL     0.0342
     16 H          -8.0846  -55.9548    8.5674 H         1 MOL     0.0342
     17 H          -9.5491  -60.3763    9.5085 H         1 MOL     0.0654
     18 H         -11.2443  -62.0162   10.2382 H         1 MOL     0.0619
     19 H         -13.5190  -61.2397   10.8527 H         1 MOL     0.0618
     20 H         -14.0687  -58.8393   10.7528 H         1 MOL     0.0625
@<TRIPOS>BOND
     1    1    2 1 
     2    1   14 1 
     3    1   15 1 
     4    1   16 1 
     5    2   10 2 
     6    2   11 1 
     7    3    4 ar
     8    3    8 ar
     9    3   11 1 
    10    4    5 ar
    11    4   17 1 
    12    5    6 ar
    13    5   18 1 
    14    6    7 ar
    15    6   19 1 
    16    7    8 ar
    17    7   20 1 
    18    8    9 1 
    19    9   12 ar
    20    9   13 ar
@<TRIPOS>SUBSTRUCTURE
1 MOL         1
@<TRIPOS>MOLECULE
query molecule
   20    20     1     0     0
SMALL
NO_CHARGE

@<TRIPOS>ATOM
      1 C         -32.9253  -22.1615   16.5566 C.3       1 MOL     0.1362
      2 C         -33.3643  -23.4262   15.8240 C.2       1 MOL     0.3092
      3 C         -34.0593  -25.5739   16.5190 C.ar      1 MOL     0.1404
      4 C         -35.3821  -25.8508   16.1299 C.ar      1 MOL     0.0468
      5 C         -35.8138  -27.1622   15.9269 C.ar      1 MOL     0.0037
      6 C         -34.9248  -28.2180   16.1062 C.ar      1 MOL     0.0009
      7 C         -33.6179  -27.9579   16.4980 C.ar      1 MOL     0.0131
      8 C         -33.1766  -26.6399   16.7360 C.ar      1 MOL     0.0397
      9 C         -31.7534  -26.4952   17.2329 C.2       1 MOL     0.0752
     10 O         -33.3920  -23.5310   14.6102 O.2       1 MOL    -0.2507
     11 O         -33.6812  -24.2849   16.7114 O.3       1 MOL    -0.4254
     12 O         -31.3339  -25.3409   17.5235 O.co2     1 MOL    -0.5445
     13 O         -31.0768  -27.5700   17.2425 O.co2     1 MOL    -0.5445
     14 H         -32.6105  -21.3888   15.8264 H         1 MOL     0.0342
     15 H         -32.0756  -22.3893   17.2321 H         1 MOL     0.0342
     16 H         -33.7680  -21.7639   17.1597 H         1 MOL     0.0342
     17 H         -36.0765  -25.0341   15.9846 H         1 MOL     0.0654
     18 H         -36.8334  -27.3593   15.6323 H         1 MOL     0.0619
     19 H         -35.2458  -29.2355   15.9441 H         1 MOL     0.0618
     20 H         -32.9259  -28.7789   16.6337 H         1 MOL     0.0625
@<TRIPOS>BOND
     1    1    2 1 
     2    1   14 1 
     3    1   15 1 
     4    1   16 1 
     5    2   10 2 
     6    2   11 1 
     7    3    4 ar
     8    3    8 ar
     9    3   11 1 
    10    4    5 ar
    11    4   17 1 
    12    5    6 ar
    13    5   18 1 
    14    6    7 ar
    15    6   19 1 
    16    7    8 ar
    17    7   20 1 
    18    8    9 1 
    19    9   12 ar
    20    9   13 ar
@<TRIPOS>SUBSTRUCTURE
1 MOL         1
@<TRIPOS>MOLECULE
query molecule
   20    20     1     0     0
SMALL
NO_CHARGE

@<TRIPOS>ATOM
      1 C          -7.1566  -42.5953   -7.6817 C.3       1 MOL     0.1362
      2 C          -6.4376  -41.2549   -7.7565 C.2       1 MOL     0.3092
      3 C          -5.3428  -40.0093   -9.4253 C.ar      1 MOL     0.1404
      4 C          -6.1988  -39.2926  -10.2893 C.ar      1 MOL     0.0468
      5 C          -5.7683  -38.1266  -10.9117 C.ar      1 MOL     0.0037
      6 C          -4.4836  -37.6491  -10.6769 C.ar      1 MOL     0.0009
      7 C          -3.6373  -38.3477   -9.8220 C.ar      1 MOL     0.0131
      8 C          -4.0553  -39.5318   -9.1774 C.ar      1 MOL     0.0397
      9 C          -3.0419  -40.1805   -8.2639 C.2       1 MOL     0.0752
     10 O          -6.4687  -40.4081   -6.8852 O.2       1 MOL    -0.2507
     11 O          -5.8153  -41.1849   -8.9031 O.3       1 MOL    -0.4254
     12 O          -3.4185  -41.1690   -7.5701 O.co2     1 MOL    -0.5445
     13 O          -1.8825  -39.6593   -8.2437 O.co2     1 MOL    -0.5445
     14 H          -7.5558  -42.7579   -6.6606 H         1 MOL     0.0342
     15 H          -6.4665  -43.4202   -7.9416 H         1 MOL     0.0342
     16 H          -8.0053  -42.5985   -8.3976 H         1 MOL     0.0342
     17 H          -7.1977  -39.6617  -10.4770 H         1 MOL     0.0654
     18 H          -6.4290  -37.5945  -11.5787 H         1 MOL     0.0619
     19 H          -4.1430  -36.7452  -11.1574 H         1 MOL     0.0618
     20 H          -2.6368  -37.9755   -9.6465 H         1 MOL     0.0625
@<TRIPOS>BOND
     1    1    2 1 
     2    1   14 1 
     3    1   15 1 
     4    1   16 1 
     5    2   10 2 
     6    2   11 1 
     7    3    4 ar
     8    3    8 ar
     9    3   11 1 
    10    4    5 ar
    11    4   17 1 
    12    5    6 ar
    13    5   18 1 
    14    6    7 ar
    15    6   19 1 
    16    7    8 ar
    17    7   20 1 
    18    8    9 1 
    19    9   12 ar
    20    9   13 ar
@<TRIPOS>SUBSTRUCTURE
1 MOL         1
@<TRIPOS>MOLECULE
query molecule
   20    20     1     0     0
SMALL
NO_CHARGE

@<TRIPOS>ATOM
      1 C         -30.6912  -21.9581   15.0932 C.3       1 MOL     0.1362
      2 C         -32.0174  -22.6887   15.0059 C.2       1 MOL     0.3092
      3 C         -33.6920  -23.4597   16.4510 C.ar      1 MOL     0.1404
      4 C         -34.8424  -22.6518   16.4965 C.ar      1 MOL     0.0468
      5 C         -36.0946  -23.2134   16.7349 C.ar      1 MOL     0.0037
      6 C         -36.2103  -24.5905   16.9241 C.ar      1 MOL     0.0009
      7 C         -35.0751  -25.3988   16.8567 C.ar      1 MOL     0.0131
      8 C         -33.8005  -24.8467   16.6233 C.ar      1 MOL     0.0397
      9 C         -32.6234  -25.8073   16.5643 C.2       1 MOL     0.0752
     10 O         -32.5514  -23.0591   13.9717 O.2       1 MOL    -0.2507
     11 O         -32.4736  -22.8532   16.2329 O.3       1 MOL    -0.4254
     12 O         -32.8913  -27.0501   16.5427 O.co2     1 MOL    -0.5445
     13 O         -31.4567  -25.3124   16.5162 O.co2     1 MOL    -0.5445
     14 H         -30.1402  -22.0229   14.1345 H         1 MOL     0.0342
     15 H         -30.0676  -22.4054   15.8957 H         1 MOL     0.0342
     16 H         -30.8710  -20.8906   15.3378 H         1 MOL     0.0342
     17 H         -34.7538  -21.5846   16.3450 H         1 MOL     0.0654
     18 H         -36.9709  -22.5840   16.7753 H         1 MOL     0.0619
     19 H         -37.1762  -25.0294   17.1255 H         1 MOL     0.0618
     20 H         -35.1736  -26.4675   16.9918 H         1 MOL     0.0625
@<TRIPOS>BOND
     1    1    2 1 
     2    1   14 1 
     3    1   15 1 
     4    1   16 1 
     5    2   10 2 
     6    2   11 1 
     7    3    4 ar
     8    3    8 ar
     9    3   11 1 
    10    4    5 ar
    11    4   17 1 
    12    5    6 ar
    13    5   18 1 
    14    6    7 ar
    15    6   19 1 
    16    7    8 ar
    17    7   20 1 
    18    8    9 1 
    19    9   12 ar
    20    9   13 ar
@<TRIPOS>SUBSTRUCTURE
1 MOL         1
@<TRIPOS>MOLECULE
query molecule
   20    20     1     0     0
SMALL
NO_CHARGE

@<TRIPOS>ATOM
      1 C         -12.3305  -42.9807    0.5546 C.3       1 MOL     0.1362
      2 C         -11.4554  -41.8239    0.0538 C.2       1 MOL     0.3092
      3 C         -13.4691  -40.5829   -0.3651 C.ar      1 MOL     0.1404
      4 C         -14.1399  -40.0267    0.7345 C.ar      1 MOL     0.0468
      5 C         -15.5203  -39.8408    0.7073 C.ar      1 MOL     0.0037
      6 C         -16.2468  -40.2226   -0.4201 C.ar      1 MOL     0.0009
      7 C         -15.5824  -40.7678   -1.5238 C.ar      1 MOL     0.0131
      8 C         -14.1830  -40.9556   -1.5168 C.ar      1 MOL     0.0397
      9 C         -13.5354  -41.5311   -2.7690 C.2       1 MOL     0.0752
     10 O         -10.2337  -41.9061   -0.0141 O.2       1 MOL    -0.2507
     11 O         -12.1184  -40.7456   -0.3039 O.3       1 MOL    -0.4254
     12 O         -14.3280  -41.6972   -3.7438 O.co2     1 MOL    -0.5445
     13 O         -12.2781  -41.7060   -2.8162 O.co2     1 MOL    -0.5445
     14 H         -11.7042  -43.8713    0.7415 H         1 MOL     0.0342
     15 H         -13.0967  -43.2267   -0.2108 H         1 MOL     0.0342
     16 H         -12.8477  -42.6891    1.4930 H         1 MOL     0.0342
     17 H         -13.5793  -39.7235    1.6114 H         1 MOL     0.0654
     18 H         -16.0311  -39.4115    1.5581 H         1 MOL     0.0619
     19 H         -17.3176  -40.0962   -0.4427 H         1 MOL     0.0618
     20 H         -16.1547  -41.0428   -2.4001 H         1 MOL     0.0625
@<TRIPOS>BOND
     1    1    2 1 
     2    1   14 1 
     3    1   15 1 
     4    1   16 1 
     5    2   10 2 
     6    2   11 1 
     7    3    4 ar
     8    3    8 ar
     9    3   11 1 
    10    4    5 ar
    11    4   17 1 
    12    5    6 ar
    13    5   18 1 
    14    6    7 ar
    15    6   19 1 
    16    7    8 ar
    17    7   20 1 
    18    8    9 1 
    19    9   12 ar
    20    9   13 ar
@<TRIPOS>SUBSTRUCTURE
1 MOL         1
@<TRIPOS>MOLECULE
query molecule
   20    20     1     0     0
SMALL
NO_CHARGE

@<TRIPOS>ATOM
      1 C         -13.6755  -45.9691    5.9424 C.3       1 MOL     0.1362
      2 C         -13.7151  -46.7348    4.6253 C.2       1 MOL     0.3092
      3 C         -14.5855  -46.4828    2.4512 C.ar      1 MOL     0.1404
      4 C         -15.4981  -47.5322    2.2346 C.ar      1 MOL     0.0468
      5 C         -15.7124  -48.0450    0.9602 C.ar      1 MOL     0.0037
      6 C         -15.0224  -47.5066   -0.1227 C.ar      1 MOL     0.0009
      7 C         -14.1261  -46.4576    0.0781 C.ar      1 MOL     0.0131
      8 C         -13.8927  -45.9296    1.3676 C.ar      1 MOL     0.0397
      9 C         -12.9016  -44.7887    1.4872 C.2       1 MOL     0.0752
     10 O         -13.2024  -47.8262    4.4516 O.2       1 MOL    -0.2507
     11 O         -14.4058  -46.0172    3.7404 O.3       1 MOL    -0.4254
     12 O         -12.3464  -44.4521    0.3949 O.co2     1 MOL    -0.5445
     13 O         -12.6918  -44.2620    2.6166 O.co2     1 MOL    -0.5445
     14 H         -13.1135  -46.5464    6.7044 H         1 MOL     0.0342
     15 H         -14.7077  -45.7933    6.3101 H         1 MOL     0.0342
     16 H         -13.1755  -44.9902    5.7943 H         1 MOL     0.0342
     17 H         -16.0378  -47.9485    3.0758 H         1 MOL     0.0654
     18 H         -16.4110  -48.8542    0.8118 H         1 MOL     0.0619
     19 H         -15.1867  -47.8962   -1.1166 H         1 MOL     0.0618
     20 H         -13.6012  -46.0405   -0.7726 H         1 MOL     0.0625
@<TRIPOS>BOND
     1    1    2 1 
     2    1   14 1 
     3    1   15 1 
     4    1   16 1 
     5    2   10 2 
     6    2   11 1 
     7    3    4 ar
     8    3    8 ar
     9    3   11 1 
    10    4    5 ar
    11    4   17 1 
    12    5    6 ar
    13    5   18 1 
    14    6    7 ar
    15    6   19 1 
    16    7    8 ar
    17    7   20 1 
    18    8    9 1 
    19    9   12 ar
    20    9   13 ar
@<TRIPOS>SUBSTRUCTURE
1 MOL         1
@<TRIPOS>MOLECULE
query molecule
   20    20     1     0     0
SMALL
NO_CHARGE

@<TRIPOS>ATOM
      1 C         -43.0331  -74.1414   -0.1475 C.3       1 MOL     0.1362
      2 C         -43.5952  -73.8242   -1.5267 C.2       1 MOL     0.3092
      3 C         -44.7394  -72.0310   -2.5374 C.ar      1 MOL     0.1404
      4 C         -46.1299  -72.2771   -2.5056 C.ar      1 MOL     0.0468
      5 C         -46.9699  -71.7540   -3.4841 C.ar      1 MOL     0.0037
      6 C         -46.4284  -70.9879   -4.5134 C.ar      1 MOL     0.0009
      7 C         -45.0527  -70.7436   -4.5552 C.ar      1 MOL     0.0131
      8 C         -44.1868  -71.2565   -3.5666 C.ar      1 MOL     0.0397
      9 C         -42.7089  -70.9299   -3.6789 C.2       1 MOL     0.0752
     10 O         -43.6982  -74.6256   -2.4380 O.2       1 MOL    -0.2507
     11 O         -43.9684  -72.5615   -1.5265 O.3       1 MOL    -0.4254
     12 O         -42.3218  -70.3916   -4.7631 O.co2     1 MOL    -0.5445
     13 O         -41.9581  -71.2222   -2.6974 O.co2     1 MOL    -0.5445
     14 H         -42.8886  -75.2335   -0.0248 H         1 MOL     0.0342
     15 H         -43.7493  -73.7905    0.6260 H         1 MOL     0.0342
     16 H         -42.0647  -73.6243    0.0046 H         1 MOL     0.0342
     17 H         -46.5453  -72.8805   -1.7093 H         1 MOL     0.0654
     18 H         -48.0319  -71.9428   -3.4434 H         1 MOL     0.0619
     19 H         -47.0744  -70.5787   -5.2779 H         1 MOL     0.0618
     20 H         -44.6452  -70.1445   -5.3588 H         1 MOL     0.0625
@<TRIPOS>BOND
     1    1    2 1 
     2    1   14 1 
     3    1   15 1 
     4    1   16 1 
     5    2   10 2 
     6    2   11 1 
     7    3    4 ar
     8    3    8 ar
     9    3   11 1 
    10    4    5 ar
    11    4   17 1 
    12    5    6 ar
    13    5   18 1 
    14    6    7 ar
    15    6   19 1 
    16    7    8 ar
    17    7   20 1 
    18    8    9 1 
    19    9   12 ar
    20    9   13 ar
@<TRIPOS>SUBSTRUCTURE
1 MOL         1
@<TRIPOS>MOLECULE
query molecule
   20    20     1     0     0
SMALL
NO_CHARGE

@<TRIPOS>ATOM
      1 C         -41.2085  -33.6974   -9.0598 C.3       1 MOL     0.1362
      2 C         -41.5794  -33.5093   -7.5980 C.2       1 MOL     0.3092
      3 C         -42.1072  -31.6919   -6.1915 C.ar      1 MOL     0.1404
      4 C         -41.0305  -31.1455   -5.4864 C.ar      1 MOL     0.0468
      5 C         -41.1992  -30.5804   -4.2256 C.ar      1 MOL     0.0037
      6 C         -42.4748  -30.5492   -3.6533 C.ar      1 MOL     0.0009
      7 C         -43.5558  -31.0968   -4.3456 C.ar      1 MOL     0.0131
      8 C         -43.3949  -31.6535   -5.6336 C.ar      1 MOL     0.0397
      9 C         -44.6565  -32.0997   -6.3577 C.2       1 MOL     0.0752
     10 O         -41.6067  -34.4035   -6.7543 O.2       1 MOL    -0.2507
     11 O         -41.8849  -32.2499   -7.4236 O.3       1 MOL    -0.4254
     12 O         -44.5747  -32.5330   -7.5216 O.co2     1 MOL    -0.5445
     13 O         -45.6868  -32.1638   -5.6390 O.co2     1 MOL    -0.5445
     14 H         -40.7524  -34.7024   -9.2103 H         1 MOL     0.0342
     15 H         -40.4668  -32.9282   -9.3567 H         1 MOL     0.0342
     16 H         -42.1020  -33.6063   -9.7061 H         1 MOL     0.0342
     17 H         -40.0401  -31.1675   -5.9256 H         1 MOL     0.0654
     18 H         -40.3641  -30.1492   -3.7013 H         1 MOL     0.0619
     19 H         -42.6178  -30.1141   -2.6752 H         1 MOL     0.0618
     20 H         -44.5380  -31.0784   -3.8872 H         1 MOL     0.0625
@<TRIPOS>BOND
     1    1    2 1 
     2    1   14 1 
     3    1   15 1 
     4    1   16 1 
     5    2   10 2 
     6    2   11 1 
     7    3    4 ar
     8    3    8 ar
     9    3   11 1 
    10    4    5 ar
    11    4   17 1 
    12    5    6 ar
    13    5   18 1 
    14    6    7 ar
    15    6   19 1 
    16    7    8 ar
    17    7   20 1 
    18    8    9 1 
    19    9   12 ar
    20    9   13 ar
@<TRIPOS>SUBSTRUCTURE
1 MOL         1
@<TRIPOS>MOLECULE
query molecule
   20    20     1     0     0
SMALL
NO_CHARGE

@<TRIPOS>ATOM
      1 C         -22.2387  -68.2134    8.8255 C.3       1 MOL     0.1362
      2 C         -21.3749  -69.2716    8.1166 C.2       1 MOL     0.3092
      3 C         -22.5182  -71.0056    9.3346 C.ar      1 MOL     0.1404
      4 C         -22.5215  -70.6947   10.7098 C.ar      1 MOL     0.0468
      5 C         -23.5506  -71.1321   11.5409 C.ar      1 MOL     0.0037
      6 C         -24.5825  -71.9049   11.0097 C.ar      1 MOL     0.0009
      7 C         -24.5563  -72.2655    9.6636 C.ar      1 MOL     0.0131
      8 C         -23.5192  -71.8413    8.8082 C.ar      1 MOL     0.0397
      9 C         -23.5486  -72.3467    7.3742 C.2       1 MOL     0.0752
     10 O         -20.5732  -68.9615    7.2527 O.2       1 MOL    -0.2507
     11 O         -21.5448  -70.5031    8.5372 O.3       1 MOL    -0.4254
     12 O         -24.5048  -73.1428    7.0922 O.co2     1 MOL    -0.5445
     13 O         -22.6485  -71.9704    6.5713 O.co2     1 MOL    -0.5445
     14 H         -22.0516  -67.2092    8.3852 H         1 MOL     0.0342
     15 H         -21.9853  -68.1826    9.9020 H         1 MOL     0.0342
     16 H         -23.3097  -68.4553    8.7140 H         1 MOL     0.0342
     17 H         -21.7218  -70.0931   11.1257 H         1 MOL     0.0654
     18 H         -23.5529  -70.8745   12.5898 H         1 MOL     0.0619
     19 H         -25.3977  -72.2302   11.6390 H         1 MOL     0.0618
     20 H         -25.3462  -72.8884    9.2630 H         1 MOL     0.0625
@<TRIPOS>BOND
     1    1    2 1 
     2    1   14 1 
     3    1   15 1 
     4    1   16 1 
     5    2   10 2 
     6    2   11 1 
     7    3    4 ar
     8    3    8 ar
     9    3   11 1 
    10    4    5 ar
    11    4   17 1 
    12    5    6 ar
    13    5   18 1 
    14    6    7 ar
    15    6   19 1 
    16    7    8 ar
    17    7   20 1 
    18    8    9 1 
    19    9   12 ar
    20    9   13 ar
@<TRIPOS>SUBSTRUCTURE
1 MOL         1
@<TRIPOS>MOLECULE
query molecule
   20    20     1     0     0
SMALL
NO_CHARGE

@<TRIPOS>ATOM
      1 C         -28.4734  -41.1571  -15.4413 C.3       1 MOL     0.1362
      2 C         -28.0798  -41.3701  -16.8852 C.2       1 MOL     0.3092
      3 C         -26.0694  -41.5791  -18.0691 C.ar      1 MOL     0.1404
      4 C         -25.7710  -40.3633  -18.7171 C.ar      1 MOL     0.0468
      5 C         -25.0297  -40.3471  -19.8954 C.ar      1 MOL     0.0037
      6 C         -24.5776  -41.5449  -20.4542 C.ar      1 MOL     0.0009
      7 C         -24.8648  -42.7532  -19.8061 C.ar      1 MOL     0.0131
      8 C         -25.6090  -42.7890  -18.6093 C.ar      1 MOL     0.0397
      9 C         -25.8308  -44.1456  -17.9577 C.2       1 MOL     0.0752
     10 O         -28.8480  -41.3680  -17.8308 O.2       1 MOL    -0.2507
     11 O         -26.7878  -41.5328  -16.8973 O.3       1 MOL    -0.4254
     12 O         -26.4971  -44.1685  -16.8791 O.co2     1 MOL    -0.5445
     13 O         -25.2958  -45.1478  -18.5284 O.co2     1 MOL    -0.5445
     14 H         -29.5731  -41.0333  -15.3584 H         1 MOL     0.0342
     15 H         -27.9854  -40.2374  -15.0496 H         1 MOL     0.0342
     16 H         -28.1551  -42.0205  -14.8270 H         1 MOL     0.0342
     17 H         -26.1182  -39.4344  -18.2874 H         1 MOL     0.0654
     18 H         -24.8055  -39.4079  -20.3788 H         1 MOL     0.0619
     19 H         -24.0047  -41.5372  -21.3649 H         1 MOL     0.0618
     20 H         -24.5017  -43.6761  -20.2363 H         1 MOL     0.0625
@<TRIPOS>BOND
     1    1    2 1 
     2    1   14 1 
     3    1   15 1 
     4    1   16 1 
     5    2   10 2 
     6    2   11 1 
     7    3    4 ar
     8    3    8 ar
     9    3   11 1 
    10    4    5 ar
    11    4   17 1 
    12    5    6 ar
    13    5   18 1 
    14    6    7 ar
    15    6   19 1 
    16    7    8 ar
    17    7   20 1 
    18    8    9 1 
    19    9   12 ar
    20    9   13 ar
@<TRIPOS>SUBSTRUCTURE
1 MOL         1
@<TRIPOS>MOLECULE
query molecule
   20    20     1     0     0
SMALL
NO_CHARGE

@<TRIPOS>ATOM
      1 C         -16.5985  -49.8335  -10.0258 C.3       1 MOL     0.1362
      2 C         -15.1982  -50.4180  -10.1205 C.2       1 MOL     0.3092
      3 C         -14.1205  -52.4188   -9.5048 C.ar      1 MOL     0.1404
      4 C         -13.6007  -52.4336   -8.1953 C.ar      1 MOL     0.0468
      5 C         -12.4519  -53.1581   -7.8928 C.ar      1 MOL     0.0037
      6 C         -11.8211  -53.9054   -8.8902 C.ar      1 MOL     0.0009
      7 C         -12.3309  -53.8925  -10.1893 C.ar      1 MOL     0.0131
      8 C         -13.4809  -53.1433  -10.5167 C.ar      1 MOL     0.0397
      9 C         -13.9374  -53.1576  -11.9618 C.2       1 MOL     0.0752
     10 O         -14.2131  -49.7888  -10.4820 O.2       1 MOL    -0.2507
     11 O         -15.2505  -51.6717   -9.7426 O.3       1 MOL    -0.4254
     12 O         -13.0674  -53.5018  -12.8166 O.co2     1 MOL    -0.5445
     13 O         -15.1024  -52.7350  -12.2412 O.co2     1 MOL    -0.5445
     14 H         -16.5803  -48.7622  -10.3119 H         1 MOL     0.0342
     15 H         -16.9621  -49.9132   -8.9789 H         1 MOL     0.0342
     16 H         -17.2965  -50.3765  -10.6939 H         1 MOL     0.0342
     17 H         -14.0982  -51.8638   -7.4243 H         1 MOL     0.0654
     18 H         -12.0552  -53.1458   -6.8887 H         1 MOL     0.0619
     19 H         -10.9364  -54.4803   -8.6567 H         1 MOL     0.0618
     20 H         -11.8240  -54.4667  -10.9552 H         1 MOL     0.0625
@<TRIPOS>BOND
     1    1    2 1 
     2    1   14 1 
     3    1   15 1 
     4    1   16 1 
     5    2   10 2 
     6    2   11 1 
     7    3    4 ar
     8    3    8 ar
     9    3   11 1 
    10    4    5 ar
    11    4   17 1 
    12    5    6 ar
    13    5   18 1 
    14    6    7 ar
    15    6   19 1 
    16    7    8 ar
    17    7   20 1 
    18    8    9 1 
    19    9   12 ar
    20    9   13 ar
@<TRIPOS>SUBSTRUCTURE
1 MOL         1
@<TRIPOS>MOLECULE
query molecule
   20    20     1     0     0
SMALL
NO_CHARGE

@<TRIPOS>ATOM
      1 C         -17.5020  -73.1229   21.5673 C.3       1 MOL     0.1362
      2 C         -18.7053  -72.4492   20.9190 C.2       1 MOL     0.3092
      3 C         -20.9258  -71.9990   21.5700 C.ar      1 MOL     0.1404
      4 C         -21.9157  -72.6387   20.8094 C.ar      1 MOL     0.0468
      5 C         -23.1898  -72.0854   20.6833 C.ar      1 MOL     0.0037
      6 C         -23.4877  -70.8805   21.3182 C.ar      1 MOL     0.0009
      7 C         -22.5089  -70.2276   22.0649 C.ar      1 MOL     0.0131
      8 C         -21.2206  -70.7820   22.2036 C.ar      1 MOL     0.0397
      9 C         -20.2331  -70.0285   23.0571 C.2       1 MOL     0.0752
     10 O         -18.6710  -71.8667   19.8518 O.2       1 MOL    -0.2507
     11 O         -19.7068  -72.5979   21.7150 O.3       1 MOL    -0.4254
     12 O         -19.0797  -70.5158   23.2429 O.co2     1 MOL    -0.5445
     13 O         -20.6362  -68.9227   23.5401 O.co2     1 MOL    -0.5445
     14 H         -16.8139  -73.5092   20.7875 H         1 MOL     0.0342
     15 H         -17.8317  -73.9688   22.2048 H         1 MOL     0.0342
     16 H         -16.9538  -72.3917   22.1971 H         1 MOL     0.0342
     17 H         -21.6870  -73.5756   20.3200 H         1 MOL     0.0654
     18 H         -23.9412  -72.5922   20.0965 H         1 MOL     0.0619
     19 H         -24.4756  -70.4540   21.2253 H         1 MOL     0.0618
     20 H         -22.7471  -69.2889   22.5485 H         1 MOL     0.0625
@<TRIPOS>BOND
     1    1    2 1 
     2    1   14 1 
     3    1   15 1 
     4    1   16 1 
     5    2   10 2 
     6    2   11 1 
     7    3    4 ar
     8    3    8 ar
     9    3   11 1 
    10    4    5 ar
    11    4   17 1 
    12    5    6 ar
    13    5   18 1 
    14    6    7 ar
    15    6   19 1 
    16    7    8 ar
    17    7   20 1 
    18    8    9 1 
    19    9   12 ar
    20    9   13 ar
@<TRIPOS>SUBSTRUCTURE
1 MOL         1
@<TRIPOS>MOLECULE
query molecule
   20    20     1     0     0
SMALL
NO_CHARGE

@<TRIPOS>ATOM
      1 C         -62.8625  -50.2614  -24.7597 C.3       1 MOL     0.1362
      2 C         -62.5516  -50.1060  -23.2591 C.2       1 MOL     0.3092
      3 C         -63.4219  -52.3404  -22.9572 C.ar      1 MOL     0.1404
      4 C         -62.4976  -53.3086  -23.4141 C.ar      1 MOL     0.0468
      5 C         -62.9344  -54.5221  -23.9413 C.ar      1 MOL     0.0037
      6 C         -64.2964  -54.7990  -23.9894 C.ar      1 MOL     0.0009
      7 C         -65.2081  -53.8669  -23.5068 C.ar      1 MOL     0.0131
      8 C         -64.7925  -52.6224  -22.9873 C.ar      1 MOL     0.0397
      9 C         -65.9032  -51.7061  -22.5139 C.2       1 MOL     0.0752
     10 O         -62.0355  -49.0936  -22.8065 O.2       1 MOL    -0.2507
     11 O         -62.9310  -51.1485  -22.5145 O.3       1 MOL    -0.4254
     12 O         -67.0877  -52.0483  -22.8392 O.co2     1 MOL    -0.5445
     13 O         -65.6117  -50.7008  -21.8015 O.co2     1 MOL    -0.5445
     14 H         -62.4708  -49.3906  -25.3328 H         1 MOL     0.0342
     15 H         -63.9636  -50.3082  -24.8872 H         1 MOL     0.0342
     16 H         -62.4243  -51.1900  -25.1699 H         1 MOL     0.0342
     17 H         -61.4351  -53.1101  -23.3612 H         1 MOL     0.0654
     18 H         -62.2262  -55.2450  -24.3139 H         1 MOL     0.0619
     19 H         -64.6475  -55.7329  -24.3997 H         1 MOL     0.0618
     20 H         -66.2648  -54.0983  -23.5318 H         1 MOL     0.0625
@<TRIPOS>BOND
     1    1    2 1 
     2    1   14 1 
     3    1   15 1 
     4    1   16 1 
     5    2   10 2 
     6    2   11 1 
     7    3    4 ar
     8    3    8 ar
     9    3   11 1 
    10    4    5 ar
    11    4   17 1 
    12    5    6 ar
    13    5   18 1 
    14    6    7 ar
    15    6   19 1 
    16    7    8 ar
    17    7   20 1 
    18    8    9 1 
    19    9   12 ar
    20    9   13 ar
@<TRIPOS>SUBSTRUCTURE
1 MOL         1
@<TRIPOS>MOLECULE
query molecule
   20    20     1     0     0
SMALL
NO_CHARGE

@<TRIPOS>ATOM
      1 C         -33.2592  -28.4595   16.6803 C.3       1 MOL     0.1362
      2 C         -34.0118  -27.2453   16.1519 C.2       1 MOL     0.3092
      3 C         -34.8805  -25.2268   17.0320 C.ar      1 MOL     0.1404
      4 C         -36.1101  -25.2469   17.7211 C.ar      1 MOL     0.0468
      5 C         -36.9687  -24.1513   17.6771 C.ar      1 MOL     0.0037
      6 C         -36.6094  -23.0179   16.9496 C.ar      1 MOL     0.0009
      7 C         -35.3976  -22.9921   16.2619 C.ar      1 MOL     0.0131
      8 C         -34.5229  -24.0932   16.2909 C.ar      1 MOL     0.0397
      9 C         -33.2514  -23.9781   15.4903 C.2       1 MOL     0.0752
     10 O         -34.4447  -27.1390   15.0148 O.2       1 MOL    -0.2507
     11 O         -34.0822  -26.3455   17.1169 O.3       1 MOL    -0.4254
     12 O         -33.1681  -23.0650   14.6143 O.co2     1 MOL    -0.5445
     13 O         -32.3736  -24.8511   15.7411 O.co2     1 MOL    -0.5445
     14 H         -33.1759  -29.2313   15.8881 H         1 MOL     0.0342
     15 H         -33.7943  -28.8946   17.5490 H         1 MOL     0.0342
     16 H         -32.2387  -28.1622   16.9999 H         1 MOL     0.0342
     17 H         -36.3885  -26.1239   18.2903 H         1 MOL     0.0654
     18 H         -37.9078  -24.1834   18.2089 H         1 MOL     0.0619
     19 H         -37.2691  -22.1639   16.9227 H         1 MOL     0.0618
     20 H         -35.1199  -22.1102   15.7015 H         1 MOL     0.0625
@<TRIPOS>BOND
     1    1    2 1 
     2    1   14 1 
     3    1   15 1 
     4    1   16 1 
     5    2   10 2 
     6    2   11 1 
     7    3    4 ar
     8    3    8 ar
     9    3   11 1 
    10    4    5 ar
    11    4   17 1 
    12    5    6 ar
    13    5   18 1 
    14    6    7 ar
    15    6   19 1 
    16    7    8 ar
    17    7   20 1 
    18    8    9 1 
    19    9   12 ar
    20    9   13 ar
@<TRIPOS>SUBSTRUCTURE
1 MOL         1
@<TRIPOS>MOLECULE
query molecule
   20    20     1     0     0
SMALL
NO_CHARGE

@<TRIPOS>ATOM
      1 C          -4.1091  -53.6635  -10.5710 C.3       1 MOL     0.1362
      2 C          -5.1960  -53.5424   -9.4963 C.2       1 MOL     0.3092
      3 C          -3.6442  -54.3105   -7.8211 C.ar      1 MOL     0.1404
      4 C          -3.3173  -55.6731   -7.9484 C.ar      1 MOL     0.0468
      5 C          -2.1901  -56.2061   -7.3293 C.ar      1 MOL     0.0037
      6 C          -1.3563  -55.3757   -6.5804 C.ar      1 MOL     0.0009
      7 C          -1.6401  -54.0117   -6.4932 C.ar      1 MOL     0.0131
      8 C          -2.7635  -53.4558   -7.1354 C.ar      1 MOL     0.0397
      9 C          -2.9584  -51.9514   -7.0444 C.2       1 MOL     0.0752
     10 O          -6.3250  -53.1557   -9.7637 O.2       1 MOL    -0.2507
     11 O          -4.8259  -53.8702   -8.3050 O.3       1 MOL    -0.4254
     12 O          -2.0107  -51.2893   -6.5265 O.co2     1 MOL    -0.5445
     13 O          -4.0323  -51.4687   -7.5159 O.co2     1 MOL    -0.5445
     14 H          -4.5883  -53.9128  -11.5426 H         1 MOL     0.0342
     15 H          -3.3863  -54.4716  -10.3120 H         1 MOL     0.0342
     16 H          -3.5664  -52.7066  -10.6763 H         1 MOL     0.0342
     17 H          -3.9716  -56.3250   -8.5077 H         1 MOL     0.0654
     18 H          -1.9670  -57.2603   -7.4201 H         1 MOL     0.0619
     19 H          -0.4806  -55.7850   -6.0956 H         1 MOL     0.0618
     20 H          -0.9761  -53.3726   -5.9236 H         1 MOL     0.0625
@<TRIPOS>BOND
     1    1    2 1 
     2    1   14 1 
     3    1   15 1 
     4    1   16 1 
     5    2   10 2 
     6    2   11 1 
     7    3    4 ar
     8    3    8 ar
     9    3   11 1 
    10    4    5 ar
    11    4   17 1 
    12    5    6 ar
    13    5   18 1 
    14    6    7 ar
    15    6   19 1 
    16    7    8 ar
    17    7   20 1 
    18    8    9 1 
    19    9   12 ar
    20    9   13 ar
@<TRIPOS>SUBSTRUCTURE
1 MOL         1
@<TRIPOS>MOLECULE
query molecule
   20    20     1     0     0
SMALL
NO_CHARGE

@<TRIPOS>ATOM
      1 C         -17.0410  -42.5670   12.7837 C.3       1 MOL     0.1362
      2 C         -15.8153  -41.8738   12.1871 C.2       1 MOL     0.3092
      3 C         -15.3261  -41.1143   10.0005 C.ar      1 MOL     0.1404
      4 C         -14.6818  -39.8696   10.0110 C.ar      1 MOL     0.0468
      5 C         -13.8297  -39.4858    8.9750 C.ar      1 MOL     0.0037
      6 C         -13.6352  -40.3277    7.8880 C.ar      1 MOL     0.0009
      7 C         -14.2818  -41.5571    7.8614 C.ar      1 MOL     0.0131
      8 C         -15.1205  -41.9832    8.9091 C.ar      1 MOL     0.0397
      9 C         -15.7250  -43.3718    8.7812 C.2       1 MOL     0.0752
     10 O         -14.7453  -41.7728   12.7469 O.2       1 MOL    -0.2507
     11 O         -16.1581  -41.4607   11.0187 O.3       1 MOL    -0.4254
     12 O         -15.4583  -44.0100    7.7126 O.co2     1 MOL    -0.5445
     13 O         -16.4338  -43.7946    9.7406 O.co2     1 MOL    -0.5445
     14 H         -16.7558  -43.1488   13.6831 H         1 MOL     0.0342
     15 H         -17.4796  -43.2610   12.0343 H         1 MOL     0.0342
     16 H         -17.8068  -41.8176   13.0638 H         1 MOL     0.0342
     17 H         -14.8437  -39.1959   10.8413 H         1 MOL     0.0654
     18 H         -13.3280  -38.5301    9.0127 H         1 MOL     0.0619
     19 H         -12.9898  -40.0334    7.0762 H         1 MOL     0.0618
     20 H         -14.1352  -42.2092    7.0091 H         1 MOL     0.0625
@<TRIPOS>BOND
     1    1    2 1 
     2    1   14 1 
     3    1   15 1 
     4    1   16 1 
     5    2   10 2 
     6    2   11 1 
     7    3    4 ar
     8    3    8 ar
     9    3   11 1 
    10    4    5 ar
    11    4   17 1 
    12    5    6 ar
    13    5   18 1 
    14    6    7 ar
    15    6   19 1 
    16    7    8 ar
    17    7   20 1 
    18    8    9 1 
    19    9   12 ar
    20    9   13 ar
@<TRIPOS>SUBSTRUCTURE
1 MOL         1
@<TRIPOS>MOLECULE
query molecule
   20    20     1     0     0
SMALL
NO_CHARGE

@<TRIPOS>ATOM
      1 C         -24.2856  -50.6248   33.8695 C.3       1 MOL     0.1362
      2 C         -24.7048  -50.1326   32.4876 C.2       1 MOL     0.3092
      3 C         -25.4669  -48.0880   31.5823 C.ar      1 MOL     0.1404
      4 C         -26.7863  -48.2302   31.1096 C.ar      1 MOL     0.0468
      5 C         -27.2521  -47.4536   30.0500 C.ar      1 MOL     0.0037
      6 C         -26.4008  -46.5254   29.4460 C.ar      1 MOL     0.0009
      7 C         -25.0951  -46.3646   29.9213 C.ar      1 MOL     0.0131
      8 C         -24.6140  -47.1293   31.0051 C.ar      1 MOL     0.0397
      9 C         -23.2059  -46.8563   31.5110 C.2       1 MOL     0.0752
     10 O         -24.7049  -50.8173   31.4787 O.2       1 MOL    -0.2507
     11 O         -25.0456  -48.8853   32.6123 O.3       1 MOL    -0.4254
     12 O         -22.8560  -47.3780   32.6161 O.co2     1 MOL    -0.5445
     13 O         -22.4633  -46.1079   30.8013 O.co2     1 MOL    -0.5445
     14 H         -24.3520  -51.7311   33.9115 H         1 MOL     0.0342
     15 H         -24.9490  -50.1943   34.6474 H         1 MOL     0.0342
     16 H         -23.2403  -50.3195   34.0785 H         1 MOL     0.0342
     17 H         -27.4423  -48.9541   31.5765 H         1 MOL     0.0654
     18 H         -28.2649  -47.5749   29.6941 H         1 MOL     0.0619
     19 H         -26.7551  -45.9329   28.6143 H         1 MOL     0.0618
     20 H         -24.4540  -45.6283   29.4540 H         1 MOL     0.0625
@<TRIPOS>BOND
     1    1    2 1 
     2    1   14 1 
     3    1   15 1 
     4    1   16 1 
     5    2   10 2 
     6    2   11 1 
     7    3    4 ar
     8    3    8 ar
     9    3   11 1 
    10    4    5 ar
    11    4   17 1 
    12    5    6 ar
    13    5   18 1 
    14    6    7 ar
    15    6   19 1 
    16    7    8 ar
    17    7   20 1 
    18    8    9 1 
    19    9   12 ar
    20    9   13 ar
@<TRIPOS>SUBSTRUCTURE
1 MOL         1
@<TRIPOS>MOLECULE
query molecule
   20    20     1     0     0
SMALL
NO_CHARGE

@<TRIPOS>ATOM
      1 C         -21.4059  -70.8297   21.1477 C.3       1 MOL     0.1362
      2 C         -20.1644  -70.9764   22.0251 C.2       1 MOL     0.3092
      3 C         -18.4389  -72.5386   22.4377 C.ar      1 MOL     0.1404
      4 C         -18.6228  -73.0891   23.7222 C.ar      1 MOL     0.0468
      5 C         -17.5312  -73.3879   24.5305 C.ar      1 MOL     0.0037
      6 C         -16.2416  -73.1547   24.0643 C.ar      1 MOL     0.0009
      7 C         -16.0520  -72.6741   22.7685 C.ar      1 MOL     0.0131
      8 C         -17.1435  -72.3887   21.9210 C.ar      1 MOL     0.0397
      9 C         -16.8248  -71.9650   20.4955 C.2       1 MOL     0.0752
     10 O         -19.8219  -70.1546   22.8601 O.2       1 MOL    -0.2507
     11 O         -19.5541  -72.1298   21.7301 O.3       1 MOL    -0.4254
     12 O         -15.5990  -71.7247   20.2356 O.co2     1 MOL    -0.5445
     13 O         -17.7732  -71.9033   19.6542 O.co2     1 MOL    -0.5445
     14 H         -21.9246  -69.8773   21.3847 H         1 MOL     0.0342
     15 H         -22.1090  -71.6701   21.3189 H         1 MOL     0.0342
     16 H         -21.1116  -70.8167   20.0787 H         1 MOL     0.0342
     17 H         -19.6231  -73.2597   24.0943 H         1 MOL     0.0654
     18 H         -17.6860  -73.7836   25.5207 H         1 MOL     0.0619
     19 H         -15.3931  -73.3585   24.7002 H         1 MOL     0.0618
     20 H         -15.0434  -72.5305   22.4048 H         1 MOL     0.0625
@<TRIPOS>BOND
     1    1    2 1 
     2    1   14 1 
     3    1   15 1 
     4    1   16 1 
     5    2   10 2 
     6    2   11 1 
     7    3    4 ar
     8    3    8 ar
     9    3   11 1 
    10    4    5 ar
    11    4   17 1 
    12    5    6 ar
    13    5   18 1 
    14    6    7 ar
    15    6   19 1 
    16    7    8 ar
    17    7   20 1 
    18    8    9 1 
    19    9   12 ar
    20    9   13 ar
@<TRIPOS>SUBSTRUCTURE
1 MOL         1
@<TRIPOS>MOLECULE
query molecule
   20    20     1     0     0
SMALL
NO_CHARGE

@<TRIPOS>ATOM
      1 C         -23.5552  -39.7708  -19.9836 C.3       1 MOL     0.1362
      2 C         -24.4635  -39.8638  -18.7657 C.2       1 MOL     0.3092
      3 C         -26.6663  -40.5477  -18.3053 C.ar      1 MOL     0.1404
      4 C         -27.5398  -39.4656  -18.0924 C.ar      1 MOL     0.0468
      5 C         -28.6176  -39.5844  -17.2203 C.ar      1 MOL     0.0037
      6 C         -28.8337  -40.7801  -16.5499 C.ar      1 MOL     0.0009
      7 C         -27.9891  -41.8619  -16.7720 C.ar      1 MOL     0.0131
      8 C         -26.8904  -41.7641  -17.6479 C.ar      1 MOL     0.0397
      9 C         -26.0183  -42.9939  -17.8090 C.2       1 MOL     0.0752
     10 O         -24.1577  -39.5175  -17.6398 O.2       1 MOL    -0.2507
     11 O         -25.6076  -40.3741  -19.1637 O.3       1 MOL    -0.4254
     12 O         -26.2359  -43.9372  -16.9861 O.co2     1 MOL    -0.5445
     13 O         -25.1329  -42.9886  -18.7132 O.co2     1 MOL    -0.5445
     14 H         -22.5715  -39.3445  -19.7039 H         1 MOL     0.0342
     15 H         -24.0224  -39.1202  -20.7528 H         1 MOL     0.0342
     16 H         -23.4024  -40.7793  -20.4203 H         1 MOL     0.0342
     17 H         -27.3668  -38.5317  -18.6094 H         1 MOL     0.0654
     18 H         -29.2779  -38.7449  -17.0618 H         1 MOL     0.0619
     19 H         -29.6646  -40.8735  -15.8644 H         1 MOL     0.0618
     20 H         -28.1781  -42.7959  -16.2588 H         1 MOL     0.0625
@<TRIPOS>BOND
     1    1    2 1 
     2    1   14 1 
     3    1   15 1 
     4    1   16 1 
     5    2   10 2 
     6    2   11 1 
     7    3    4 ar
     8    3    8 ar
     9    3   11 1 
    10    4    5 ar
    11    4   17 1 
    12    5    6 ar
    13    5   18 1 
    14    6    7 ar
    15    6   19 1 
    16    7    8 ar
    17    7   20 1 
    18    8    9 1 
    19    9   12 ar
    20    9   13 ar
@<TRIPOS>SUBSTRUCTURE
1 MOL         1
@<TRIPOS>MOLECULE
query molecule
   20    20     1     0     0
SMALL
NO_CHARGE

@<TRIPOS>ATOM
      1 C         -35.0117  -26.4612   -9.8447 C.3       1 MOL     0.1362
      2 C         -33.7421  -25.7489   -9.3736 C.2       1 MOL     0.3092
      3 C         -31.6120  -25.2836  -10.3007 C.ar      1 MOL     0.1404
      4 C         -31.6172  -23.9605  -10.8015 C.ar      1 MOL     0.0468
      5 C         -30.4364  -23.2297  -10.9126 C.ar      1 MOL     0.0037
      6 C         -29.2293  -23.8035  -10.5227 C.ar      1 MOL     0.0009
      7 C         -29.2173  -25.1078  -10.0296 C.ar      1 MOL     0.0131
      8 C         -30.3984  -25.8674   -9.9059 C.ar      1 MOL     0.0397
      9 C         -30.2337  -27.2801   -9.3933 C.2       1 MOL     0.0752
     10 O         -33.6726  -25.0840   -8.3608 O.2       1 MOL    -0.2507
     11 O         -32.7968  -25.9720  -10.2486 O.3       1 MOL    -0.4254
     12 O         -29.0816  -27.6238   -8.9833 O.co2     1 MOL    -0.5445
     13 O         -31.2285  -28.0547   -9.4431 O.co2     1 MOL    -0.5445
     14 H         -35.8660  -26.2134   -9.1781 H         1 MOL     0.0342
     15 H         -34.8663  -27.5644   -9.8335 H         1 MOL     0.0342
     16 H         -35.2668  -26.1464  -10.8745 H         1 MOL     0.0342
     17 H         -32.5495  -23.5068  -11.1056 H         1 MOL     0.0654
     18 H         -30.4495  -22.2259  -11.3092 H         1 MOL     0.0619
     19 H         -28.3096  -23.2450  -10.6067 H         1 MOL     0.0618
     20 H         -28.2708  -25.5368   -9.7200 H         1 MOL     0.0625
@<TRIPOS>BOND
     1    1    2 1 
     2    1   14 1 
     3    1   15 1 
     4    1   16 1 
     5    2   10 2 
     6    2   11 1 
     7    3    4 ar
     8    3    8 ar
     9    3   11 1 
    10    4    5 ar
    11    4   17 1 
    12    5    6 ar
    13    5   18 1 
    14    6    7 ar
    15    6   19 1 
    16    7    8 ar
    17    7   20 1 
    18    8    9 1 
    19    9   12 ar
    20    9   13 ar
@<TRIPOS>SUBSTRUCTURE
1 MOL         1
@<TRIPOS>MOLECULE
query molecule
   20    20     1     0     0
SMALL
NO_CHARGE

@<TRIPOS>ATOM
      1 C         -22.0768  -36.6665   18.0969 C.3       1 MOL     0.1362
      2 C         -23.3154  -36.3278   17.2783 C.2       1 MOL     0.3092
      3 C         -25.6260  -36.7864   17.2978 C.ar      1 MOL     0.1404
      4 C         -26.4202  -35.8796   18.0319 C.ar      1 MOL     0.0468
      5 C         -27.7039  -35.5521   17.5996 C.ar      1 MOL     0.0037
      6 C         -28.2055  -36.1245   16.4294 C.ar      1 MOL     0.0009
      7 C         -27.4256  -37.0294   15.7103 C.ar      1 MOL     0.0131
      8 C         -26.1375  -37.3998   16.1426 C.ar      1 MOL     0.0397
      9 C         -25.3930  -38.4539   15.3360 C.2       1 MOL     0.0752
     10 O         -23.3277  -35.5420   16.3463 O.2       1 MOL    -0.2507
     11 O         -24.3385  -37.0363   17.7452 O.3       1 MOL    -0.4254
     12 O         -25.9206  -38.8129   14.2371 O.co2     1 MOL    -0.5445
     13 O         -24.3053  -38.9084   15.8033 O.co2     1 MOL    -0.5445
     14 H         -21.2144  -36.0769   17.7236 H         1 MOL     0.0342
     15 H         -21.8412  -37.7460   18.0063 H         1 MOL     0.0342
     16 H         -22.2454  -36.4210   19.1659 H         1 MOL     0.0342
     17 H         -26.0280  -35.4286   18.9359 H         1 MOL     0.0654
     18 H         -28.3051  -34.8578   18.1693 H         1 MOL     0.0619
     19 H         -29.1984  -35.8655   16.0910 H         1 MOL     0.0618
     20 H         -27.8276  -37.4627   14.8010 H         1 MOL     0.0625
@<TRIPOS>BOND
     1    1    2 1 
     2    1   14 1 
     3    1   15 1 
     4    1   16 1 
     5    2   10 2 
     6    2   11 1 
     7    3    4 ar
     8    3    8 ar
     9    3   11 1 
    10    4    5 ar
    11    4   17 1 
    12    5    6 ar
    13    5   18 1 
    14    6    7 ar
    15    6   19 1 
    16    7    8 ar
    17    7   20 1 
    18    8    9 1 
    19    9   12 ar
    20    9   13 ar
@<TRIPOS>SUBSTRUCTURE
1 MOL         1
@<TRIPOS>MOLECULE
query molecule
   20    20     1     0     0
SMALL
NO_CHARGE

@<TRIPOS>ATOM
      1 C         -14.0818  -35.8484   -8.6206 C.3       1 MOL     0.1362
      2 C         -12.6246  -35.6415   -8.2294 C.2       1 MOL     0.3092
      3 C         -11.2262  -33.8466   -7.6189 C.ar      1 MOL     0.1404
      4 C         -10.6342  -33.0672   -8.6325 C.ar      1 MOL     0.0468
      5 C          -9.3774  -32.4951   -8.4487 C.ar      1 MOL     0.0037
      6 C          -8.6890  -32.7038   -7.2545 C.ar      1 MOL     0.0009
      7 C          -9.2685  -33.4793   -6.2498 C.ar      1 MOL     0.0131
      8 C         -10.5512  -34.0443   -6.4080 C.ar      1 MOL     0.0397
      9 C         -11.1077  -34.8262   -5.2416 C.2       1 MOL     0.0752
     10 O         -11.7798  -36.5152   -8.2585 O.2       1 MOL    -0.2507
     11 O         -12.4646  -34.3900   -7.8625 O.3       1 MOL    -0.4254
     12 O         -12.3250  -35.1565   -5.2698 O.co2     1 MOL    -0.5445
     13 O         -10.2806  -35.0935   -4.3195 O.co2     1 MOL    -0.5445
     14 H         -14.2304  -36.8810   -8.9983 H         1 MOL     0.0342
     15 H         -14.3641  -35.1289   -9.4163 H         1 MOL     0.0342
     16 H         -14.7368  -35.6886   -7.7401 H         1 MOL     0.0342
     17 H         -11.1642  -32.9089   -9.5602 H         1 MOL     0.0654
     18 H          -8.9392  -31.8897   -9.2279 H         1 MOL     0.0619
     19 H          -7.7129  -32.2657   -7.1080 H         1 MOL     0.0618
     20 H          -8.7255  -33.6410   -5.3275 H         1 MOL     0.0625
@<TRIPOS>BOND
     1    1    2 1 
     2    1   14 1 
     3    1   15 1 
     4    1   16 1 
     5    2   10 2 
     6    2   11 1 
     7    3    4 ar
     8    3    8 ar
     9    3   11 1 
    10    4    5 ar
    11    4   17 1 
    12    5    6 ar
    13    5   18 1 
    14    6    7 ar
    15    6   19 1 
    16    7    8 ar
    17    7   20 1 
    18    8    9 1 
    19    9   12 ar
    20    9   13 ar
@<TRIPOS>SUBSTRUCTURE
1 MOL         1
@<TRIPOS>MOLECULE
query molecule
   20    20     1     0     0
SMALL
NO_CHARGE

@<TRIPOS>ATOM
      1 C         -16.4294  -65.8238  -15.7114 C.3       1 MOL     0.1362
      2 C         -17.2601  -66.6204  -14.7175 C.2       1 MOL     0.3092
      3 C         -18.6220  -68.5314  -14.7122 C.ar      1 MOL     0.1404
      4 C         -18.0616  -69.5160  -13.8741 C.ar      1 MOL     0.0468
      5 C         -18.8711  -70.4199  -13.1922 C.ar      1 MOL     0.0037
      6 C         -20.2553  -70.3389  -13.3354 C.ar      1 MOL     0.0009
      7 C         -20.8190  -69.3591  -14.1628 C.ar      1 MOL     0.0131
      8 C         -20.0144  -68.4413  -14.8776 C.ar      1 MOL     0.0397
      9 C         -20.6909  -67.4048  -15.7764 C.2       1 MOL     0.0752
     10 O         -17.4113  -66.3331  -13.5435 O.2       1 MOL    -0.2507
     11 O         -17.7684  -67.6599  -15.3603 O.3       1 MOL    -0.4254
     12 O         -19.9920  -66.6089  -16.4772 O.co2     1 MOL    -0.5445
     13 O         -21.9618  -67.4059  -15.7252 O.co2     1 MOL    -0.5445
     14 H         -15.9392  -64.9651  -15.2113 H         1 MOL     0.0342
     15 H         -17.0748  -65.4400  -16.5283 H         1 MOL     0.0342
     16 H         -15.6492  -66.4792  -16.1508 H         1 MOL     0.0342
     17 H         -16.9874  -69.5674  -13.7562 H         1 MOL     0.0654
     18 H         -18.4236  -71.1750  -12.5612 H         1 MOL     0.0619
     19 H         -20.8800  -71.0409  -12.8001 H         1 MOL     0.0618
     20 H         -21.8974  -69.3205  -14.2468 H         1 MOL     0.0625
@<TRIPOS>BOND
     1    1    2 1 
     2    1   14 1 
     3    1   15 1 
     4    1   16 1 
     5    2   10 2 
     6    2   11 1 
     7    3    4 ar
     8    3    8 ar
     9    3   11 1 
    10    4    5 ar
    11    4   17 1 
    12    5    6 ar
    13    5   18 1 
    14    6    7 ar
    15    6   19 1 
    16    7    8 ar
    17    7   20 1 
    18    8    9 1 
    19    9   12 ar
    20    9   13 ar
@<TRIPOS>SUBSTRUCTURE
1 MOL         1
@<TRIPOS>MOLECULE
query molecule
   20    20     1     0     0
SMALL
NO_CHARGE

@<TRIPOS>ATOM
      1 C         -55.1387  -69.5870   10.1134 C.3       1 MOL     0.1362
      2 C         -53.9837  -70.0249    9.2086 C.2       1 MOL     0.3092
      3 C         -53.5071  -69.9612    6.8835 C.ar      1 MOL     0.1404
      4 C         -52.6540  -68.8727    6.5839 C.ar      1 MOL     0.0468
      5 C         -51.8095  -68.9054    5.4758 C.ar      1 MOL     0.0037
      6 C         -51.7937  -70.0285    4.6544 C.ar      1 MOL     0.0009
      7 C         -52.6233  -71.1079    4.9429 C.ar      1 MOL     0.0131
      8 C         -53.4988  -71.0921    6.0532 C.ar      1 MOL     0.0397
      9 C         -54.3889  -72.3151    6.2175 C.2       1 MOL     0.0752
     10 O         -52.9090  -70.4305    9.6177 O.2       1 MOL    -0.2507
     11 O         -54.3465  -69.8463    7.9643 O.3       1 MOL    -0.4254
     12 O         -54.1844  -73.2781    5.4111 O.co2     1 MOL    -0.5445
     13 O         -55.2815  -72.2811    7.1153 O.co2     1 MOL    -0.5445
     14 H         -54.8232  -69.6097   11.1779 H         1 MOL     0.0342
     15 H         -56.0143  -70.2520    9.9822 H         1 MOL     0.0342
     16 H         -55.4395  -68.5458    9.8645 H         1 MOL     0.0342
     17 H         -52.6596  -67.9955    7.2203 H         1 MOL     0.0654
     18 H         -51.1699  -68.0637    5.2496 H         1 MOL     0.0619
     19 H         -51.1393  -70.0615    3.7939 H         1 MOL     0.0618
     20 H         -52.6018  -71.9737    4.2911 H         1 MOL     0.0625
@<TRIPOS>BOND
     1    1    2 1 
     2    1   14 1 
     3    1   15 1 
     4    1   16 1 
     5    2   10 2 
     6    2   11 1 
     7    3    4 ar
     8    3    8 ar
     9    3   11 1 
    10    4    5 ar
    11    4   17 1 
    12    5    6 ar
    13    5   18 1 
    14    6    7 ar
    15    6   19 1 
    16    7    8 ar
    17    7   20 1 
    18    8    9 1 
    19    9   12 ar
    20    9   13 ar
@<TRIPOS>SUBSTRUCTURE
1 MOL         1
@<TRIPOS>MOLECULE
query molecule
   20    20     1     0     0
SMALL
NO_CHARGE

@<TRIPOS>ATOM
      1 C         -16.0046  -34.1959   13.1113 C.3       1 MOL     0.1362
      2 C         -16.1536  -34.0441   11.6059 C.2       1 MOL     0.3092
      3 C         -15.4901  -32.4881    9.9625 C.ar      1 MOL     0.1404
      4 C         -16.4251  -31.4546    9.7290 C.ar      1 MOL     0.0468
      5 C         -16.5299  -30.8509    8.4784 C.ar      1 MOL     0.0037
      6 C         -15.7082  -31.2801    7.4390 C.ar      1 MOL     0.0009
      7 C         -14.7849  -32.2989    7.6664 C.ar      1 MOL     0.0131
      8 C         -14.6498  -32.9134    8.9289 C.ar      1 MOL     0.0397
      9 C         -13.5895  -33.9925    9.0611 C.2       1 MOL     0.0752
     10 O         -16.8313  -34.7674   10.8958 O.2       1 MOL    -0.2507
     11 O         -15.4321  -33.0164   11.2282 O.3       1 MOL    -0.4254
     12 O         -12.8655  -34.1910    8.0389 O.co2     1 MOL    -0.5445
     13 O         -13.5143  -34.6263   10.1520 O.co2     1 MOL    -0.5445
     14 H         -16.7308  -34.9395   13.4974 H         1 MOL     0.0342
     15 H         -16.2000  -33.2197   13.6050 H         1 MOL     0.0342
     16 H         -14.9772  -34.5229   13.3641 H         1 MOL     0.0342
     17 H         -17.0636  -31.1225   10.5372 H         1 MOL     0.0654
     18 H         -17.2426  -30.0550    8.3200 H         1 MOL     0.0619
     19 H         -15.7855  -30.8210    6.4650 H         1 MOL     0.0618
     20 H         -14.1538  -32.6285    6.8500 H         1 MOL     0.0625
@<TRIPOS>BOND
     1    1    2 1 
     2    1   14 1 
     3    1   15 1 
     4    1   16 1 
     5    2   10 2 
     6    2   11 1 
     7    3    4 ar
     8    3    8 ar
     9    3   11 1 
    10    4    5 ar
    11    4   17 1 
    12    5    6 ar
    13    5   18 1 
    14    6    7 ar
    15    6   19 1 
    16    7    8 ar
    17    7   20 1 
    18    8    9 1 
    19    9   12 ar
    20    9   13 ar
@<TRIPOS>SUBSTRUCTURE
1 MOL         1
@<TRIPOS>MOLECULE
query molecule
   20    20     1     0     0
SMALL
NO_CHARGE

@<TRIPOS>ATOM
      1 C          -3.1322  -63.7341    4.4058 C.3       1 MOL     0.1362
      2 C          -3.9081  -62.4354    4.5704 C.2       1 MOL     0.3092
      3 C          -3.7498  -60.4612    5.8405 C.ar      1 MOL     0.1404
      4 C          -4.8401  -60.3900    6.7237 C.ar      1 MOL     0.0468
      5 C          -5.3845  -59.1640    7.0999 C.ar      1 MOL     0.0037
      6 C          -4.8265  -57.9844    6.6120 C.ar      1 MOL     0.0009
      7 C          -3.7228  -58.0456    5.7632 C.ar      1 MOL     0.0131
      8 C          -3.1648  -59.2826    5.3731 C.ar      1 MOL     0.0397
      9 C          -1.9399  -59.2310    4.4872 C.2       1 MOL     0.0752
     10 O          -4.9335  -62.1608    3.9716 O.2       1 MOL    -0.2507
     11 O          -3.2921  -61.7071    5.4837 O.3       1 MOL    -0.4254
     12 O          -1.5311  -58.0723    4.1645 O.co2     1 MOL    -0.5445
     13 O          -1.4190  -60.3306    4.1400 O.co2     1 MOL    -0.5445
     14 H          -3.8248  -64.5657    4.1621 H         1 MOL     0.0342
     15 H          -2.6153  -63.9788    5.3588 H         1 MOL     0.0342
     16 H          -2.3773  -63.6412    3.6012 H         1 MOL     0.0342
     17 H          -5.2743  -61.3043    7.1092 H         1 MOL     0.0654
     18 H          -6.2332  -59.1282    7.7657 H         1 MOL     0.0619
     19 H          -5.2415  -57.0290    6.8953 H         1 MOL     0.0618
     20 H          -3.2807  -57.1259    5.4016 H         1 MOL     0.0625
@<TRIPOS>BOND
     1    1    2 1 
     2    1   14 1 
     3    1   15 1 
     4    1   16 1 
     5    2   10 2 
     6    2   11 1 
     7    3    4 ar
     8    3    8 ar
     9    3   11 1 
    10    4    5 ar
    11    4   17 1 
    12    5    6 ar
    13    5   18 1 
    14    6    7 ar
    15    6   19 1 
    16    7    8 ar
    17    7   20 1 
    18    8    9 1 
    19    9   12 ar
    20    9   13 ar
@<TRIPOS>SUBSTRUCTURE
1 MOL         1
@<TRIPOS>MOLECULE
query molecule
   20    20     1     0     0
SMALL
NO_CHARGE

@<TRIPOS>ATOM
      1 C         -62.6548  -70.8308   -7.1021 C.3       1 MOL     0.1362
      2 C         -61.8754  -70.0751   -6.0379 C.2       1 MOL     0.3092
      3 C         -60.1055  -70.4680   -4.5364 C.ar      1 MOL     0.1404
      4 C         -58.8387  -70.0297   -4.9785 C.ar      1 MOL     0.0468
      5 C         -57.8543  -69.6559   -4.0647 C.ar      1 MOL     0.0037
      6 C         -58.1172  -69.7264   -2.6976 C.ar      1 MOL     0.0009
      7 C         -59.3670  -70.1620   -2.2587 C.ar      1 MOL     0.0131
      8 C         -60.3915  -70.5150   -3.1634 C.ar      1 MOL     0.0397
      9 C         -61.7360  -70.9224   -2.5767 C.2       1 MOL     0.0752
     10 O         -62.0498  -68.9060   -5.7555 O.2       1 MOL    -0.2507
     11 O         -61.0175  -70.8947   -5.4791 O.3       1 MOL    -0.4254
     12 O         -62.7457  -70.9948   -3.3365 O.co2     1 MOL    -0.5445
     13 O         -61.7306  -71.1563   -1.3244 O.co2     1 MOL    -0.5445
     14 H         -63.3376  -70.1398   -7.6378 H         1 MOL     0.0342
     15 H         -63.2588  -71.6356   -6.6342 H         1 MOL     0.0342
     16 H         -61.9606  -71.2895   -7.8353 H         1 MOL     0.0342
     17 H         -58.6274  -69.9899   -6.0382 H         1 MOL     0.0654
     18 H         -56.8911  -69.3149   -4.4141 H         1 MOL     0.0619
     19 H         -57.3569  -69.4440   -1.9849 H         1 MOL     0.0618
     20 H         -59.5577  -70.2173   -1.1940 H         1 MOL     0.0625
@<TRIPOS>BOND
     1    1    2 1 
     2    1   14 1 
     3    1   15 1 
     4    1   16 1 
     5    2   10 2 
     6    2   11 1 
     7    3    4 ar
     8    3    8 ar
     9    3   11 1 
    10    4    5 ar
    11    4   17 1 
    12    5    6 ar
    13    5   18 1 
    14    6    7 ar
    15    6   19 1 
    16    7    8 ar
    17    7   20 1 
    18    8    9 1 
    19    9   12 ar
    20    9   13 ar
@<TRIPOS>SUBSTRUCTURE
1 MOL         1
@<TRIPOS>MOLECULE
query molecule
   20    20     1     0     0
SMALL
NO_CHARGE

@<TRIPOS>ATOM
      1 C         -47.5192  -64.3211   12.4743 C.3       1 MOL     0.1362
      2 C         -47.4717  -64.1547   10.9617 C.2       1 MOL     0.3092
      3 C         -48.6894  -62.9086    9.3672 C.ar      1 MOL     0.1404
      4 C         -49.2667  -63.7097    8.3659 C.ar      1 MOL     0.0468
      5 C         -49.4608  -63.2089    7.0778 C.ar      1 MOL     0.0037
      6 C         -49.0780  -61.8992    6.7778 C.ar      1 MOL     0.0009
      7 C         -48.5227  -61.0902    7.7746 C.ar      1 MOL     0.0131
      8 C         -48.3367  -61.5724    9.0856 C.ar      1 MOL     0.0397
      9 C         -47.7896  -60.6176   10.1382 C.2       1 MOL     0.0752
     10 O         -46.5984  -64.6183   10.2531 O.2       1 MOL    -0.2507
     11 O         -48.4935  -63.4423   10.6140 O.3       1 MOL    -0.4254
     12 O         -47.2171  -59.5567    9.7375 O.co2     1 MOL    -0.5445
     13 O         -47.9447  -60.9349   11.3566 O.co2     1 MOL    -0.5445
     14 H         -46.9126  -65.1974   12.7790 H         1 MOL     0.0342
     15 H         -48.5659  -64.4736   12.8059 H         1 MOL     0.0342
     16 H         -47.1139  -63.4149   12.9708 H         1 MOL     0.0342
     17 H         -49.5582  -64.7242    8.6000 H         1 MOL     0.0654
     18 H         -49.9012  -63.8358    6.3150 H         1 MOL     0.0619
     19 H         -49.2129  -61.5154    5.7761 H         1 MOL     0.0618
     20 H         -48.2481  -60.0725    7.5315 H         1 MOL     0.0625
@<TRIPOS>BOND
     1    1    2 1 
     2    1   14 1 
     3    1   15 1 
     4    1   16 1 
     5    2   10 2 
     6    2   11 1 
     7    3    4 ar
     8    3    8 ar
     9    3   11 1 
    10    4    5 ar
    11    4   17 1 
    12    5    6 ar
    13    5   18 1 
    14    6    7 ar
    15    6   19 1 
    16    7    8 ar
    17    7   20 1 
    18    8    9 1 
    19    9   12 ar
    20    9   13 ar
@<TRIPOS>SUBSTRUCTURE
1 MOL         1
@<TRIPOS>MOLECULE
query molecule
   20    20     1     0     0
SMALL
NO_CHARGE

@<TRIPOS>ATOM
      1 C         -27.5656  -24.4181  -12.4260 C.3       1 MOL     0.1362
      2 C         -28.6070  -24.2696  -11.3254 C.2       1 MOL     0.3092
      3 C         -30.6039  -25.3256  -10.6612 C.ar      1 MOL     0.1404
      4 C         -31.6890  -24.4556  -10.8858 C.ar      1 MOL     0.0468
      5 C         -32.8372  -24.5339  -10.1028 C.ar      1 MOL     0.0037
      6 C         -32.9105  -25.4770   -9.0789 C.ar      1 MOL     0.0009
      7 C         -31.8289  -26.3251   -8.8404 C.ar      1 MOL     0.0131
      8 C         -30.6689  -26.2759   -9.6324 C.ar      1 MOL     0.0397
      9 C         -29.5809  -27.2807   -9.3347 C.2       1 MOL     0.0752
     10 O         -28.5970  -23.3917  -10.4802 O.2       1 MOL    -0.2507
     11 O         -29.5009  -25.2217  -11.4789 O.3       1 MOL    -0.4254
     12 O         -28.6482  -27.3929  -10.1866 O.co2     1 MOL    -0.5445
     13 O         -29.6847  -27.9704   -8.2714 O.co2     1 MOL    -0.5445
     14 H         -26.9010  -23.5308  -12.4517 H         1 MOL     0.0342
     15 H         -28.0697  -24.5121  -13.4106 H         1 MOL     0.0342
     16 H         -26.9545  -25.3249  -12.2483 H         1 MOL     0.0342
     17 H         -31.6274  -23.7204  -11.6763 H         1 MOL     0.0654
     18 H         -33.6649  -23.8659  -10.2878 H         1 MOL     0.0619
     19 H         -33.7998  -25.5467   -8.4707 H         1 MOL     0.0618
     20 H         -31.8904  -27.0466   -8.0360 H         1 MOL     0.0625
@<TRIPOS>BOND
     1    1    2 1 
     2    1   14 1 
     3    1   15 1 
     4    1   16 1 
     5    2   10 2 
     6    2   11 1 
     7    3    4 ar
     8    3    8 ar
     9    3   11 1 
    10    4    5 ar
    11    4   17 1 
    12    5    6 ar
    13    5   18 1 
    14    6    7 ar
    15    6   19 1 
    16    7    8 ar
    17    7   20 1 
    18    8    9 1 
    19    9   12 ar
    20    9   13 ar
@<TRIPOS>SUBSTRUCTURE
1 MOL         1
@<TRIPOS>MOLECULE
query molecule
   20    20     1     0     0
SMALL
NO_CHARGE

@<TRIPOS>ATOM
      1 C         -15.7084  -72.6788    9.6860 C.3       1 MOL     0.1362
      2 C         -16.3918  -73.0639    8.3836 C.2       1 MOL     0.3092
      3 C         -16.7464  -75.2234    7.5166 C.ar      1 MOL     0.1404
      4 C         -15.6154  -76.0738    7.5050 C.ar      1 MOL     0.0468
      5 C         -15.4387  -77.0188    6.4961 C.ar      1 MOL     0.0037
      6 C         -16.3871  -77.1304    5.4811 C.ar      1 MOL     0.0009
      7 C         -17.5129  -76.3053    5.4942 C.ar      1 MOL     0.0131
      8 C         -17.7162  -75.3543    6.5208 C.ar      1 MOL     0.0397
      9 C         -18.9931  -74.5423    6.4541 C.2       1 MOL     0.0752
     10 O         -16.4736  -72.3445    7.4048 O.2       1 MOL    -0.2507
     11 O         -16.8210  -74.2939    8.5206 O.3       1 MOL    -0.4254
     12 O         -19.7049  -74.6867    5.4116 O.co2     1 MOL    -0.5445
     13 O         -19.2436  -73.7812    7.4322 O.co2     1 MOL    -0.5445
     14 H         -14.9327  -71.9044    9.4991 H         1 MOL     0.0342
     15 H         -15.2037  -73.5686   10.1227 H         1 MOL     0.0342
     16 H         -16.4476  -72.2881   10.4081 H         1 MOL     0.0342
     17 H         -14.8741  -75.9874    8.2875 H         1 MOL     0.0654
     18 H         -14.5703  -77.6599    6.4981 H         1 MOL     0.0619
     19 H         -16.2494  -77.8506    4.6890 H         1 MOL     0.0618
     20 H         -18.2455  -76.4024    4.7025 H         1 MOL     0.0625
@<TRIPOS>BOND
     1    1    2 1 
     2    1   14 1 
     3    1   15 1 
     4    1   16 1 
     5    2   10 2 
     6    2   11 1 
     7    3    4 ar
     8    3    8 ar
     9    3   11 1 
    10    4    5 ar
    11    4   17 1 
    12    5    6 ar
    13    5   18 1 
    14    6    7 ar
    15    6   19 1 
    16    7    8 ar
    17    7   20 1 
    18    8    9 1 
    19    9   12 ar
    20    9   13 ar
@<TRIPOS>SUBSTRUCTURE
1 MOL         1
@<TRIPOS>MOLECULE
query molecule
   20    20     1     0     0
SMALL
NO_CHARGE

@<TRIPOS>ATOM
      1 C         -15.4875  -71.8916   21.3970 C.3       1 MOL     0.1362
      2 C         -16.9073  -71.9392   20.8428 C.2       1 MOL     0.3092
      3 C         -19.1107  -72.0948   21.6790 C.ar      1 MOL     0.1404
      4 C         -19.8539  -70.9002   21.6015 C.ar      1 MOL     0.0468
      5 C         -21.2356  -70.9259   21.4388 C.ar      1 MOL     0.0037
      6 C         -21.8924  -72.1517   21.3513 C.ar      1 MOL     0.0009
      7 C         -21.1653  -73.3438   21.4314 C.ar      1 MOL     0.0131
      8 C         -19.7613  -73.3388   21.5974 C.ar      1 MOL     0.0397
      9 C         -19.0280  -74.6792   21.6883 C.2       1 MOL     0.0752
     10 O         -17.1996  -71.9081   19.6593 O.2       1 MOL    -0.2507
     11 O         -17.7441  -72.0156   21.8607 O.3       1 MOL    -0.4254
     12 O         -19.7752  -75.7073   21.6420 O.co2     1 MOL    -0.5445
     13 O         -17.7637  -74.6982   21.8134 O.co2     1 MOL    -0.5445
     14 H         -14.7481  -71.8998   20.5700 H         1 MOL     0.0342
     15 H         -15.2950  -72.7631   22.0565 H         1 MOL     0.0342
     16 H         -15.3488  -70.9631   21.9903 H         1 MOL     0.0342
     17 H         -19.3404  -69.9505   21.6744 H         1 MOL     0.0654
     18 H         -21.7917  -70.0029   21.3850 H         1 MOL     0.0619
     19 H         -22.9639  -72.1784   21.2203 H         1 MOL     0.0618
     20 H         -21.6927  -74.2884   21.3596 H         1 MOL     0.0625
@<TRIPOS>BOND
     1    1    2 1 
     2    1   14 1 
     3    1   15 1 
     4    1   16 1 
     5    2   10 2 
     6    2   11 1 
     7    3    4 ar
     8    3    8 ar
     9    3   11 1 
    10    4    5 ar
    11    4   17 1 
    12    5    6 ar
    13    5   18 1 
    14    6    7 ar
    15    6   19 1 
    16    7    8 ar
    17    7   20 1 
    18    8    9 1 
    19    9   12 ar
    20    9   13 ar
@<TRIPOS>SUBSTRUCTURE
1 MOL         1
@<TRIPOS>MOLECULE
query molecule
   20    20     1     0     0
SMALL
NO_CHARGE

@<TRIPOS>ATOM
      1 C         -61.6456  -39.8813  -10.1729 C.3       1 MOL     0.1362
      2 C         -61.9593  -38.7836   -9.1626 C.2       1 MOL     0.3092
      3 C         -61.1801  -37.9778   -7.0962 C.ar      1 MOL     0.1404
      4 C         -62.1253  -38.1453   -6.0672 C.ar      1 MOL     0.0468
      5 C         -62.2012  -37.2294   -5.0167 C.ar      1 MOL     0.0037
      6 C         -61.3280  -36.1417   -4.9826 C.ar      1 MOL     0.0009
      7 C         -60.3785  -35.9788   -5.9945 C.ar      1 MOL     0.0131
      8 C         -60.2900  -36.8925   -7.0621 C.ar      1 MOL     0.0397
      9 C         -59.2097  -36.6767   -8.1065 C.2       1 MOL     0.0752
     10 O         -62.8256  -37.9442   -9.3090 O.2       1 MOL    -0.2507
     11 O         -61.1246  -38.9064   -8.1239 O.3       1 MOL    -0.4254
     12 O         -59.2241  -37.3834   -9.1589 O.co2     1 MOL    -0.5445
     13 O         -58.3150  -35.8283   -7.8128 O.co2     1 MOL    -0.5445
     14 H         -62.5210  -40.0604  -10.8280 H         1 MOL     0.0342
     15 H         -61.3875  -40.8239   -9.6486 H         1 MOL     0.0342
     16 H         -60.7831  -39.5736  -10.7993 H         1 MOL     0.0342
     17 H         -62.8020  -38.9875   -6.0877 H         1 MOL     0.0654
     18 H         -62.9332  -37.3596   -4.2331 H         1 MOL     0.0619
     19 H         -61.3827  -35.4309   -4.1705 H         1 MOL     0.0618
     20 H         -59.6946  -35.1417   -5.9494 H         1 MOL     0.0625
@<TRIPOS>BOND
     1    1    2 1 
     2    1   14 1 
     3    1   15 1 
     4    1   16 1 
     5    2   10 2 
     6    2   11 1 
     7    3    4 ar
     8    3    8 ar
     9    3   11 1 
    10    4    5 ar
    11    4   17 1 
    12    5    6 ar
    13    5   18 1 
    14    6    7 ar
    15    6   19 1 
    16    7    8 ar
    17    7   20 1 
    18    8    9 1 
    19    9   12 ar
    20    9   13 ar
@<TRIPOS>SUBSTRUCTURE
1 MOL         1
@<TRIPOS>MOLECULE
query molecule
   20    20     1     0     0
SMALL
NO_CHARGE

@<TRIPOS>ATOM
      1 C         -38.0853  -73.5748  -10.1361 C.3       1 MOL     0.1362
      2 C         -38.1480  -72.4055  -11.1104 C.2       1 MOL     0.3092
      3 C         -37.6169  -70.1146  -11.1638 C.ar      1 MOL     0.1404
      4 C         -36.5155  -69.8123  -11.9916 C.ar      1 MOL     0.0468
      5 C         -36.4508  -68.5940  -12.6714 C.ar      1 MOL     0.0037
      6 C         -37.4781  -67.6637  -12.5177 C.ar      1 MOL     0.0009
      7 C         -38.5686  -67.9611  -11.6991 C.ar      1 MOL     0.0131
      8 C         -38.6600  -69.1846  -11.0068 C.ar      1 MOL     0.0397
      9 C         -39.8864  -69.4221  -10.1385 C.2       1 MOL     0.0752
     10 O         -38.6039  -72.4737  -12.2397 O.2       1 MOL    -0.2507
     11 O         -37.6554  -71.3349  -10.5153 O.3       1 MOL    -0.4254
     12 O         -39.9808  -70.4942   -9.4584 O.co2     1 MOL    -0.5445
     13 O         -40.7638  -68.4974  -10.1405 O.co2     1 MOL    -0.5445
     14 H         -38.4482  -74.4978  -10.6339 H         1 MOL     0.0342
     15 H         -38.7328  -73.3617   -9.2603 H         1 MOL     0.0342
     16 H         -37.0465  -73.7333   -9.7846 H         1 MOL     0.0342
     17 H         -35.7118  -70.5260  -12.1133 H         1 MOL     0.0654
     18 H         -35.6103  -68.3692  -13.3125 H         1 MOL     0.0619
     19 H         -37.4294  -66.7150  -13.0319 H         1 MOL     0.0618
     20 H         -39.3622  -67.2346  -11.5951 H         1 MOL     0.0625
@<TRIPOS>BOND
     1    1    2 1 
     2    1   14 1 
     3    1   15 1 
     4    1   16 1 
     5    2   10 2 
     6    2   11 1 
     7    3    4 ar
     8    3    8 ar
     9    3   11 1 
    10    4    5 ar
    11    4   17 1 
    12    5    6 ar
    13    5   18 1 
    14    6    7 ar
    15    6   19 1 
    16    7    8 ar
    17    7   20 1 
    18    8    9 1 
    19    9   12 ar
    20    9   13 ar
@<TRIPOS>SUBSTRUCTURE
1 MOL         1
@<TRIPOS>MOLECULE
query molecule
   20    20     1     0     0
SMALL
NO_CHARGE

@<TRIPOS>ATOM
      1 C         -58.5311  -54.9979  -27.4636 C.3       1 MOL     0.1362
      2 C         -58.2044  -53.5158  -27.5091 C.2       1 MOL     0.3092
      3 C         -56.6326  -52.1236  -28.5972 C.ar      1 MOL     0.1404
      4 C         -56.9016  -51.6239  -29.8891 C.ar      1 MOL     0.0468
      5 C         -56.3995  -50.3890  -30.2968 C.ar      1 MOL     0.0037
      6 C         -55.6250  -49.6353  -29.4158 C.ar      1 MOL     0.0009
      7 C         -55.3666  -50.1168  -28.1309 C.ar      1 MOL     0.0131
      8 C         -55.8655  -51.3666  -27.6988 C.ar      1 MOL     0.0397
      9 C         -55.5742  -51.7808  -26.2636 C.2       1 MOL     0.0752
     10 O         -58.8279  -52.6460  -26.9104 O.2       1 MOL    -0.2507
     11 O         -57.1409  -53.3566  -28.2651 O.3       1 MOL    -0.4254
     12 O         -55.0756  -50.8812  -25.5162 O.co2     1 MOL    -0.5445
     13 O         -55.8877  -52.9477  -25.8813 O.co2     1 MOL    -0.5445
     14 H         -59.3409  -55.1956  -26.7337 H         1 MOL     0.0342
     15 H         -57.6298  -55.5747  -27.1700 H         1 MOL     0.0342
     16 H         -58.8614  -55.3369  -28.4678 H         1 MOL     0.0342
     17 H         -57.5019  -52.2054  -30.5757 H         1 MOL     0.0654
     18 H         -56.6072  -50.0219  -31.2916 H         1 MOL     0.0619
     19 H         -55.2284  -48.6820  -29.7330 H         1 MOL     0.0618
     20 H         -54.7741  -49.5159  -27.4550 H         1 MOL     0.0625
@<TRIPOS>BOND
     1    1    2 1 
     2    1   14 1 
     3    1   15 1 
     4    1   16 1 
     5    2   10 2 
     6    2   11 1 
     7    3    4 ar
     8    3    8 ar
     9    3   11 1 
    10    4    5 ar
    11    4   17 1 
    12    5    6 ar
    13    5   18 1 
    14    6    7 ar
    15    6   19 1 
    16    7    8 ar
    17    7   20 1 
    18    8    9 1 
    19    9   12 ar
    20    9   13 ar
@<TRIPOS>SUBSTRUCTURE
1 MOL         1
@<TRIPOS>MOLECULE
query molecule
   20    20     1     0     0
SMALL
NO_CHARGE

@<TRIPOS>ATOM
      1 C         -56.6061  -65.0461  -19.4706 C.3       1 MOL     0.1362
      2 C         -57.4368  -63.7701  -19.5551 C.2       1 MOL     0.3092
      3 C         -59.6404  -63.0733  -19.0893 C.ar      1 MOL     0.1404
      4 C         -60.1974  -62.4477  -20.2209 C.ar      1 MOL     0.0468
      5 C         -61.1607  -61.4569  -20.0858 C.ar      1 MOL     0.0037
      6 C         -61.5904  -61.0813  -18.8049 C.ar      1 MOL     0.0009
      7 C         -61.0450  -61.6992  -17.6741 C.ar      1 MOL     0.0131
      8 C         -60.0625  -62.7036  -17.7967 C.ar      1 MOL     0.0397
      9 C         -59.5218  -63.3553  -16.5296 C.2       1 MOL     0.0752
     10 O         -56.9814  -62.6744  -19.8360 O.2       1 MOL    -0.2507
     11 O         -58.6917  -64.0611  -19.2777 O.3       1 MOL    -0.4254
     12 O         -59.9569  -62.9174  -15.4217 O.co2     1 MOL    -0.5445
     13 O         -58.6779  -64.2915  -16.6692 O.co2     1 MOL    -0.5445
     14 H         -55.5560  -64.8229  -19.7533 H         1 MOL     0.0342
     15 H         -57.0077  -65.8142  -20.1621 H         1 MOL     0.0342
     16 H         -56.6190  -65.4490  -18.4375 H         1 MOL     0.0342
     17 H         -59.8713  -62.7418  -21.2097 H         1 MOL     0.0654
     18 H         -61.5768  -60.9792  -20.9593 H         1 MOL     0.0619
     19 H         -62.3445  -60.3143  -18.7005 H         1 MOL     0.0618
     20 H         -61.3909  -61.4013  -16.6934 H         1 MOL     0.0625
@<TRIPOS>BOND
     1    1    2 1 
     2    1   14 1 
     3    1   15 1 
     4    1   16 1 
     5    2   10 2 
     6    2   11 1 
     7    3    4 ar
     8    3    8 ar
     9    3   11 1 
    10    4    5 ar
    11    4   17 1 
    12    5    6 ar
    13    5   18 1 
    14    6    7 ar
    15    6   19 1 
    16    7    8 ar
    17    7   20 1 
    18    8    9 1 
    19    9   12 ar
    20    9   13 ar
@<TRIPOS>SUBSTRUCTURE
1 MOL         1
@<TRIPOS>MOLECULE
query molecule
   20    20     1     0     0
SMALL
NO_CHARGE

@<TRIPOS>ATOM
      1 C         -21.9233  -71.8742   20.2692 C.3       1 MOL     0.1362
      2 C         -22.4412  -71.7989   21.6939 C.2       1 MOL     0.3092
      3 C         -23.1640  -70.1341   23.1941 C.ar      1 MOL     0.1404
      4 C         -24.5592  -70.1358   23.3892 C.ar      1 MOL     0.0468
      5 C         -25.1149  -69.7215   24.5981 C.ar      1 MOL     0.0037
      6 C         -24.2816  -69.2919   25.6307 C.ar      1 MOL     0.0009
      7 C         -22.8964  -69.2846   25.4467 C.ar      1 MOL     0.0131
      8 C         -22.3156  -69.7105   24.2283 C.ar      1 MOL     0.0397
      9 C         -20.8015  -69.6756   24.1152 C.2       1 MOL     0.0752
     10 O         -22.6053  -72.7617   22.4183 O.2       1 MOL    -0.2507
     11 O         -22.6663  -70.5355   21.9749 O.3       1 MOL    -0.4254
     12 O         -20.2310  -70.0199   23.0353 O.co2     1 MOL    -0.5445
     13 O         -20.1957  -69.2827   25.1610 O.co2     1 MOL    -0.5445
     14 H         -21.6145  -72.9085   20.0180 H         1 MOL     0.0342
     15 H         -21.0507  -71.2033   20.1352 H         1 MOL     0.0342
     16 H         -22.7146  -71.5635   19.5565 H         1 MOL     0.0342
     17 H         -25.2109  -70.4639   22.5931 H         1 MOL     0.0654
     18 H         -26.1857  -69.7281   24.7370 H         1 MOL     0.0619
     19 H         -24.7078  -68.9639   26.5680 H         1 MOL     0.0618
     20 H         -22.2621  -68.9437   26.2557 H         1 MOL     0.0625
@<TRIPOS>BOND
     1    1    2 1 
     2    1   14 1 
     3    1   15 1 
     4    1   16 1 
     5    2   10 2 
     6    2   11 1 
     7    3    4 ar
     8    3    8 ar
     9    3   11 1 
    10    4    5 ar
    11    4   17 1 
    12    5    6 ar
    13    5   18 1 
    14    6    7 ar
    15    6   19 1 
    16    7    8 ar
    17    7   20 1 
    18    8    9 1 
    19    9   12 ar
    20    9   13 ar
@<TRIPOS>SUBSTRUCTURE
1 MOL         1
@<TRIPOS>MOLECULE
query molecule
   20    20     1     0     0
SMALL
NO_CHARGE

@<TRIPOS>ATOM
      1 C         -47.1534  -52.0566   28.0238 C.3       1 MOL     0.1362
      2 C         -46.1482  -50.9507   27.7173 C.2       1 MOL     0.3092
      3 C         -46.3085  -48.6340   27.3204 C.ar      1 MOL     0.1404
      4 C         -46.6882  -48.2969   26.0042 C.ar      1 MOL     0.0468
      5 C         -46.2763  -47.1037   25.4224 C.ar      1 MOL     0.0037
      6 C         -45.4666  -46.2276   26.1331 C.ar      1 MOL     0.0009
      7 C         -45.0935  -46.5495   27.4393 C.ar      1 MOL     0.0131
      8 C         -45.5088  -47.7538   28.0603 C.ar      1 MOL     0.0397
      9 C         -45.0675  -48.0077   29.5007 C.2       1 MOL     0.0752
     10 O         -44.9876  -51.1312   27.4047 O.2       1 MOL    -0.2507
     11 O         -46.7766  -49.8145   27.8261 O.3       1 MOL    -0.4254
     12 O         -44.2550  -47.1628   30.0013 O.co2     1 MOL    -0.5445
     13 O         -45.5135  -49.0349   30.1009 O.co2     1 MOL    -0.5445
     14 H         -46.7191  -53.0513   27.8001 H         1 MOL     0.0342
     15 H         -48.0571  -51.9153   27.3911 H         1 MOL     0.0342
     16 H         -47.4619  -52.0254   29.0879 H         1 MOL     0.0342
     17 H         -47.3103  -48.9795   25.4426 H         1 MOL     0.0654
     18 H         -46.5817  -46.8634   24.4143 H         1 MOL     0.0619
     19 H         -45.1314  -45.3086   25.6796 H         1 MOL     0.0618
     20 H         -44.4770  -45.8525   27.9907 H         1 MOL     0.0625
@<TRIPOS>BOND
     1    1    2 1 
     2    1   14 1 
     3    1   15 1 
     4    1   16 1 
     5    2   10 2 
     6    2   11 1 
     7    3    4 ar
     8    3    8 ar
     9    3   11 1 
    10    4    5 ar
    11    4   17 1 
    12    5    6 ar
    13    5   18 1 
    14    6    7 ar
    15    6   19 1 
    16    7    8 ar
    17    7   20 1 
    18    8    9 1 
    19    9   12 ar
    20    9   13 ar
@<TRIPOS>SUBSTRUCTURE
1 MOL         1
@<TRIPOS>MOLECULE
query molecule
   20    20     1     0     0
SMALL
NO_CHARGE

@<TRIPOS>ATOM
      1 C         -38.2105  -34.7591  -18.5791 C.3       1 MOL     0.1362
      2 C         -39.0451  -33.4937  -18.4678 C.2       1 MOL     0.3092
      3 C         -41.2897  -32.8789  -18.7677 C.ar      1 MOL     0.1404
      4 C         -41.5770  -32.3973  -20.0632 C.ar      1 MOL     0.0468
      5 C         -42.6098  -31.4874  -20.2742 C.ar      1 MOL     0.0037
      6 C         -43.3666  -31.0446  -19.1923 C.ar      1 MOL     0.0009
      7 C         -43.0757  -31.5045  -17.9080 C.ar      1 MOL     0.0131
      8 C         -42.0277  -32.4206  -17.6704 C.ar      1 MOL     0.0397
      9 C         -41.8014  -32.8551  -16.2252 C.2       1 MOL     0.0752
     10 O         -38.5945  -32.3788  -18.2755 O.2       1 MOL    -0.2507
     11 O         -40.3021  -33.8256  -18.6355 O.3       1 MOL    -0.4254
     12 O         -42.6611  -32.4341  -15.4054 O.co2     1 MOL    -0.5445
     13 O         -40.8357  -33.6310  -15.9650 O.co2     1 MOL    -0.5445
     14 H         -37.1343  -34.5111  -18.5804 H         1 MOL     0.0342
     15 H         -38.4674  -35.2692  -19.5335 H         1 MOL     0.0342
     16 H         -38.4346  -35.4430  -17.7372 H         1 MOL     0.0342
     17 H         -40.9918  -32.7394  -20.9064 H         1 MOL     0.0654
     18 H         -42.8232  -31.1286  -21.2706 H         1 MOL     0.0619
     19 H         -44.1757  -30.3473  -19.3514 H         1 MOL     0.0618
     20 H         -43.6668  -31.1464  -17.0755 H         1 MOL     0.0625
@<TRIPOS>BOND
     1    1    2 1 
     2    1   14 1 
     3    1   15 1 
     4    1   16 1 
     5    2   10 2 
     6    2   11 1 
     7    3    4 ar
     8    3    8 ar
     9    3   11 1 
    10    4    5 ar
    11    4   17 1 
    12    5    6 ar
    13    5   18 1 
    14    6    7 ar
    15    6   19 1 
    16    7    8 ar
    17    7   20 1 
    18    8    9 1 
    19    9   12 ar
    20    9   13 ar
@<TRIPOS>SUBSTRUCTURE
1 MOL         1
@<TRIPOS>MOLECULE
query molecule
   20    20     1     0     0
SMALL
NO_CHARGE

@<TRIPOS>ATOM
      1 C         -43.0068  -63.2823  -16.1691 C.3       1 MOL     0.1362
      2 C         -44.3224  -63.4039  -16.9316 C.2       1 MOL     0.3092
      3 C         -45.2770  -64.9635  -18.4167 C.ar      1 MOL     0.1404
      4 C         -45.0312  -64.8004  -19.7977 C.ar      1 MOL     0.0468
      5 C         -45.9547  -65.2429  -20.7453 C.ar      1 MOL     0.0037
      6 C         -47.1357  -65.8517  -20.3212 C.ar      1 MOL     0.0009
      7 C         -47.3819  -66.0115  -18.9587 C.ar      1 MOL     0.0131
      8 C         -46.4608  -65.5735  -17.9851 C.ar      1 MOL     0.0397
      9 C         -46.8277  -65.8156  -16.5427 C.2       1 MOL     0.0752
     10 O         -45.2146  -62.5746  -16.9386 O.2       1 MOL    -0.2507
     11 O         -44.3086  -64.5487  -17.5453 O.3       1 MOL    -0.4254
     12 O         -47.9648  -66.3083  -16.3192 O.co2     1 MOL    -0.5445
     13 O         -46.0318  -65.4425  -15.6456 O.co2     1 MOL    -0.5445
     14 H         -42.9048  -62.2613  -15.7590 H         1 MOL     0.0342
     15 H         -42.1573  -63.4862  -16.8534 H         1 MOL     0.0342
     16 H         -42.9903  -64.0195  -15.3432 H         1 MOL     0.0342
     17 H         -44.1116  -64.3386  -20.1322 H         1 MOL     0.0654
     18 H         -45.7499  -65.1244  -21.7991 H         1 MOL     0.0619
     19 H         -47.8508  -66.1957  -21.0519 H         1 MOL     0.0618
     20 H         -48.2994  -66.4906  -18.6494 H         1 MOL     0.0625
@<TRIPOS>BOND
     1    1    2 1 
     2    1   14 1 
     3    1   15 1 
     4    1   16 1 
     5    2   10 2 
     6    2   11 1 
     7    3    4 ar
     8    3    8 ar
     9    3   11 1 
    10    4    5 ar
    11    4   17 1 
    12    5    6 ar
    13    5   18 1 
    14    6    7 ar
    15    6   19 1 
    16    7    8 ar
    17    7   20 1 
    18    8    9 1 
    19    9   12 ar
    20    9   13 ar
@<TRIPOS>SUBSTRUCTURE
1 MOL         1
@<TRIPOS>MOLECULE
query molecule
   20    20     1     0     0
SMALL
NO_CHARGE

@<TRIPOS>ATOM
      1 C         -31.0504  -74.5799   -3.6230 C.3       1 MOL     0.1362
      2 C         -30.7860  -73.3951   -2.7050 C.2       1 MOL     0.3092
      3 C         -28.9241  -72.2250   -1.8540 C.ar      1 MOL     0.1404
      4 C         -28.9157  -72.2040   -0.4456 C.ar      1 MOL     0.0468
      5 C         -28.3893  -71.1132    0.2456 C.ar      1 MOL     0.0037
      6 C         -27.8705  -70.0288   -0.4606 C.ar      1 MOL     0.0009
      7 C         -27.8652  -70.0470   -1.8548 C.ar      1 MOL     0.0131
      8 C         -28.3757  -71.1469   -2.5719 C.ar      1 MOL     0.0397
      9 C         -28.3015  -71.0873   -4.0863 C.2       1 MOL     0.0752
     10 O         -31.6513  -72.6560   -2.2635 O.2       1 MOL    -0.2507
     11 O         -29.4810  -73.3081   -2.5061 O.3       1 MOL    -0.4254
     12 O         -28.7279  -72.0811   -4.7304 O.co2     1 MOL    -0.5445
     13 O         -27.8067  -70.0363   -4.6045 O.co2     1 MOL    -0.5445
     14 H         -32.0813  -74.9663   -3.4879 H         1 MOL     0.0342
     15 H         -30.3260  -75.3910   -3.4129 H         1 MOL     0.0342
     16 H         -30.9266  -74.2486   -4.6752 H         1 MOL     0.0342
     17 H         -29.3258  -73.0346    0.1127 H         1 MOL     0.0654
     18 H         -28.3827  -71.1032    1.3261 H         1 MOL     0.0619
     19 H         -27.4725  -69.1777    0.0722 H         1 MOL     0.0618
     20 H         -27.4599  -69.2008   -2.3929 H         1 MOL     0.0625
@<TRIPOS>BOND
     1    1    2 1 
     2    1   14 1 
     3    1   15 1 
     4    1   16 1 
     5    2   10 2 
     6    2   11 1 
     7    3    4 ar
     8    3    8 ar
     9    3   11 1 
    10    4    5 ar
    11    4   17 1 
    12    5    6 ar
    13    5   18 1 
    14    6    7 ar
    15    6   19 1 
    16    7    8 ar
    17    7   20 1 
    18    8    9 1 
    19    9   12 ar
    20    9   13 ar
@<TRIPOS>SUBSTRUCTURE
1 MOL         1
@<TRIPOS>MOLECULE
query molecule
   20    20     1     0     0
SMALL
NO_CHARGE

@<TRIPOS>ATOM
      1 C         -51.4674  -50.5315  -25.5189 C.3       1 MOL     0.1362
      2 C         -50.5196  -50.7310  -24.3420 C.2       1 MOL     0.3092
      3 C         -48.3443  -50.0325  -23.7834 C.ar      1 MOL     0.1404
      4 C         -47.3931  -50.9677  -24.2449 C.ar      1 MOL     0.0468
      5 C         -46.1623  -51.1068  -23.6094 C.ar      1 MOL     0.0037
      6 C         -45.8565  -50.3080  -22.5118 C.ar      1 MOL     0.0009
      7 C         -46.7947  -49.3919  -22.0427 C.ar      1 MOL     0.0131
      8 C         -48.0636  -49.2562  -22.6526 C.ar      1 MOL     0.0397
      9 C         -49.0376  -48.2694  -22.0432 C.2       1 MOL     0.0752
     10 O         -50.6812  -51.5398  -23.4460 O.2       1 MOL    -0.2507
     11 O         -49.5110  -49.9061  -24.4989 O.3       1 MOL    -0.4254
     12 O         -48.6408  -47.6232  -21.0302 O.co2     1 MOL    -0.5445
     13 O         -50.1868  -48.1647  -22.5627 O.co2     1 MOL    -0.5445
     14 H         -52.3353  -51.2189  -25.4308 H         1 MOL     0.0342
     15 H         -50.9371  -50.7517  -26.4702 H         1 MOL     0.0342
     16 H         -51.8333  -49.4884  -25.5480 H         1 MOL     0.0342
     17 H         -47.6222  -51.5767  -25.1077 H         1 MOL     0.0654
     18 H         -45.4459  -51.8286  -23.9740 H         1 MOL     0.0619
     19 H         -44.9004  -50.3991  -22.0228 H         1 MOL     0.0618
     20 H         -46.5539  -48.7708  -21.1915 H         1 MOL     0.0625
@<TRIPOS>BOND
     1    1    2 1 
     2    1   14 1 
     3    1   15 1 
     4    1   16 1 
     5    2   10 2 
     6    2   11 1 
     7    3    4 ar
     8    3    8 ar
     9    3   11 1 
    10    4    5 ar
    11    4   17 1 
    12    5    6 ar
    13    5   18 1 
    14    6    7 ar
    15    6   19 1 
    16    7    8 ar
    17    7   20 1 
    18    8    9 1 
    19    9   12 ar
    20    9   13 ar
@<TRIPOS>SUBSTRUCTURE
1 MOL         1
@<TRIPOS>MOLECULE
query molecule
   20    20     1     0     0
SMALL
NO_CHARGE

@<TRIPOS>ATOM
      1 C         -38.2410  -34.6774  -18.6103 C.3       1 MOL     0.1362
      2 C         -37.2660  -35.6474  -19.2840 C.2       1 MOL     0.3092
      3 C         -35.5617  -35.4743  -20.9270 C.ar      1 MOL     0.1404
      4 C         -34.3011  -35.2613  -20.3185 C.ar      1 MOL     0.0468
      5 C         -33.1228  -35.6582  -20.9478 C.ar      1 MOL     0.0037
      6 C         -33.1831  -36.2857  -22.1901 C.ar      1 MOL     0.0009
      7 C         -34.4195  -36.5092  -22.7925 C.ar      1 MOL     0.0131
      8 C         -35.6258  -36.1010  -22.1798 C.ar      1 MOL     0.0397
      9 C         -36.8963  -36.3547  -22.9749 C.2       1 MOL     0.0752
     10 O         -37.0744  -36.7926  -18.9123 O.2       1 MOL    -0.2507
     11 O         -36.6813  -35.0200  -20.2721 O.3       1 MOL    -0.4254
     12 O         -36.7702  -37.0151  -24.0575 O.co2     1 MOL    -0.5445
     13 O         -37.9826  -35.8753  -22.5319 O.co2     1 MOL    -0.5445
     14 H         -38.6717  -35.1367  -17.6955 H         1 MOL     0.0342
     15 H         -39.0665  -34.4084  -19.2996 H         1 MOL     0.0342
     16 H         -37.7060  -33.7502  -18.3146 H         1 MOL     0.0342
     17 H         -34.2469  -34.7791  -19.3498 H         1 MOL     0.0654
     18 H         -32.1654  -35.4818  -20.4808 H         1 MOL     0.0619
     19 H         -32.2742  -36.5962  -22.6851 H         1 MOL     0.0618
     20 H         -34.4485  -36.9917  -23.7618 H         1 MOL     0.0625
@<TRIPOS>BOND
     1    1    2 1 
     2    1   14 1 
     3    1   15 1 
     4    1   16 1 
     5    2   10 2 
     6    2   11 1 
     7    3    4 ar
     8    3    8 ar
     9    3   11 1 
    10    4    5 ar
    11    4   17 1 
    12    5    6 ar
    13    5   18 1 
    14    6    7 ar
    15    6   19 1 
    16    7    8 ar
    17    7   20 1 
    18    8    9 1 
    19    9   12 ar
    20    9   13 ar
@<TRIPOS>SUBSTRUCTURE
1 MOL         1
@<TRIPOS>MOLECULE
query molecule
   20    20     1     0     0
SMALL
NO_CHARGE

@<TRIPOS>ATOM
      1 C         -41.0897  -65.9120   20.8313 C.3       1 MOL     0.1362
      2 C         -41.7099  -66.6397   22.0100 C.2       1 MOL     0.3092
      3 C         -43.4805  -66.4022   23.5247 C.ar      1 MOL     0.1404
      4 C         -44.6657  -67.0788   23.1651 C.ar      1 MOL     0.0468
      5 C         -45.4889  -67.6370   24.1403 C.ar      1 MOL     0.0037
      6 C         -45.1298  -67.5392   25.4847 C.ar      1 MOL     0.0009
      7 C         -43.9633  -66.8607   25.8462 C.ar      1 MOL     0.0131
      8 C         -43.1336  -66.2593   24.8759 C.ar      1 MOL     0.0397
      9 C         -41.9140  -65.4919   25.3606 C.2       1 MOL     0.0752
     10 O         -41.3589  -67.7391   22.4158 O.2       1 MOL    -0.2507
     11 O         -42.6887  -65.8880   22.5106 O.3       1 MOL    -0.4254
     12 O         -41.1862  -64.8923   24.5098 O.co2     1 MOL    -0.5445
     13 O         -41.6693  -65.5377   26.6086 O.co2     1 MOL    -0.5445
     14 H         -40.3484  -66.5639   20.3267 H         1 MOL     0.0342
     15 H         -40.5858  -64.9862   21.1727 H         1 MOL     0.0342
     16 H         -41.8830  -65.6427   20.1025 H         1 MOL     0.0342
     17 H         -44.9432  -67.1533   22.1222 H         1 MOL     0.0654
     18 H         -46.4012  -68.1408   23.8565 H         1 MOL     0.0619
     19 H         -45.7551  -67.9869   26.2439 H         1 MOL     0.0618
     20 H         -43.6948  -66.7943   26.8926 H         1 MOL     0.0625
@<TRIPOS>BOND
     1    1    2 1 
     2    1   14 1 
     3    1   15 1 
     4    1   16 1 
     5    2   10 2 
     6    2   11 1 
     7    3    4 ar
     8    3    8 ar
     9    3   11 1 
    10    4    5 ar
    11    4   17 1 
    12    5    6 ar
    13    5   18 1 
    14    6    7 ar
    15    6   19 1 
    16    7    8 ar
    17    7   20 1 
    18    8    9 1 
    19    9   12 ar
    20    9   13 ar
@<TRIPOS>SUBSTRUCTURE
1 MOL         1
@<TRIPOS>MOLECULE
query molecule
   20    20     1     0     0
SMALL
NO_CHARGE

@<TRIPOS>ATOM
      1 C         -12.1830  -75.4742    9.4045 C.3       1 MOL     0.1362
      2 C         -11.6584  -75.1904    8.0002 C.2       1 MOL     0.3092
      3 C          -9.5785  -75.2455    6.8841 C.ar      1 MOL     0.1404
      4 C          -9.7141  -75.9672    5.6853 C.ar      1 MOL     0.0468
      5 C          -8.8916  -75.6876    4.5993 C.ar      1 MOL     0.0037
      6 C          -7.9119  -74.7004    4.7051 C.ar      1 MOL     0.0009
      7 C          -7.7640  -73.9835    5.8932 C.ar      1 MOL     0.0131
      8 C          -8.6093  -74.2349    7.0004 C.ar      1 MOL     0.0397
      9 C          -8.4350  -73.3853    8.2575 C.2       1 MOL     0.0752
     10 O         -12.3045  -74.6694    7.1097 O.2       1 MOL    -0.2507
     11 O         -10.3930  -75.5670    7.9523 O.3       1 MOL    -0.4254
     12 O          -9.2021  -73.5426    9.2607 O.co2     1 MOL    -0.5445
     13 O          -7.5158  -72.5153    8.1777 O.co2     1 MOL    -0.5445
     14 H         -13.2455  -75.1658    9.4809 H         1 MOL     0.0342
     15 H         -11.5910  -74.8997   10.1492 H         1 MOL     0.0342
     16 H         -12.0996  -76.5542    9.6371 H         1 MOL     0.0342
     17 H         -10.4615  -76.7482    5.6144 H         1 MOL     0.0654
     18 H          -9.0134  -76.2361    3.6777 H         1 MOL     0.0619
     19 H          -7.2686  -74.4923    3.8644 H         1 MOL     0.0618
     20 H          -6.9918  -73.2266    5.9680 H         1 MOL     0.0625
@<TRIPOS>BOND
     1    1    2 1 
     2    1   14 1 
     3    1   15 1 
     4    1   16 1 
     5    2   10 2 
     6    2   11 1 
     7    3    4 ar
     8    3    8 ar
     9    3   11 1 
    10    4    5 ar
    11    4   17 1 
    12    5    6 ar
    13    5   18 1 
    14    6    7 ar
    15    6   19 1 
    16    7    8 ar
    17    7   20 1 
    18    8    9 1 
    19    9   12 ar
    20    9   13 ar
@<TRIPOS>SUBSTRUCTURE
1 MOL         1
@<TRIPOS>MOLECULE
query molecule
   20    20     1     0     0
SMALL
NO_CHARGE

@<TRIPOS>ATOM
      1 C         -55.1277  -66.2594   14.6070 C.3       1 MOL     0.1362
      2 C         -56.6063  -66.4163   14.2842 C.2       1 MOL     0.3092
      3 C         -58.1226  -65.7237   12.6255 C.ar      1 MOL     0.1404
      4 C         -58.8815  -64.6516   13.1418 C.ar      1 MOL     0.0468
      5 C         -60.1759  -64.4113   12.6864 C.ar      1 MOL     0.0037
      6 C         -60.7259  -65.2292   11.7002 C.ar      1 MOL     0.0009
      7 C         -59.9821  -66.2906   11.1871 C.ar      1 MOL     0.0131
      8 C         -58.6780  -66.5625   11.6487 C.ar      1 MOL     0.0397
      9 C         -57.9589  -67.7561   11.0435 C.2       1 MOL     0.0752
     10 O         -57.4271  -66.9186   15.0374 O.2       1 MOL    -0.2507
     11 O         -56.8336  -65.9062   13.0920 O.3       1 MOL    -0.4254
     12 O         -56.7237  -67.8942   11.2877 O.co2     1 MOL    -0.5445
     13 O         -58.6698  -68.5300   10.3303 O.co2     1 MOL    -0.5445
     14 H         -54.9264  -66.6152   15.6379 H         1 MOL     0.0342
     15 H         -54.8375  -65.1905   14.5316 H         1 MOL     0.0342
     16 H         -54.5158  -66.8501   13.8967 H         1 MOL     0.0342
     17 H         -58.4542  -64.0076   13.8985 H         1 MOL     0.0654
     18 H         -60.7542  -63.5970   13.0961 H         1 MOL     0.0619
     19 H         -61.7276  -65.0475   11.3402 H         1 MOL     0.0618
     20 H         -60.4128  -66.9172   10.4172 H         1 MOL     0.0625
@<TRIPOS>BOND
     1    1    2 1 
     2    1   14 1 
     3    1   15 1 
     4    1   16 1 
     5    2   10 2 
     6    2   11 1 
     7    3    4 ar
     8    3    8 ar
     9    3   11 1 
    10    4    5 ar
    11    4   17 1 
    12    5    6 ar
    13    5   18 1 
    14    6    7 ar
    15    6   19 1 
    16    7    8 ar
    17    7   20 1 
    18    8    9 1 
    19    9   12 ar
    20    9   13 ar
@<TRIPOS>SUBSTRUCTURE
1 MOL         1
@<TRIPOS>MOLECULE
query molecule
   20    20     1     0     0
SMALL
NO_CHARGE

@<TRIPOS>ATOM
      1 C         -41.1412  -66.8239   18.9130 C.3       1 MOL     0.1362
      2 C         -42.5157  -66.3780   18.4218 C.2       1 MOL     0.3092
      3 C         -44.7665  -66.9482   18.8739 C.ar      1 MOL     0.1404
      4 C         -45.4108  -66.2912   19.9445 C.ar      1 MOL     0.0468
      5 C         -46.7852  -66.0508   19.9149 C.ar      1 MOL     0.0037
      6 C         -47.5344  -66.4704   18.8166 C.ar      1 MOL     0.0009
      7 C         -46.9061  -67.1248   17.7563 C.ar      1 MOL     0.0131
      8 C         -45.5149  -67.3709   17.7643 C.ar      1 MOL     0.0397
      9 C         -44.9215  -68.0902   16.5567 C.2       1 MOL     0.0752
     10 O         -42.7029  -65.4851   17.6103 O.2       1 MOL    -0.2507
     11 O         -43.4125  -67.1722   18.9707 O.3       1 MOL    -0.4254
     12 O         -43.6790  -68.3439   16.5637 O.co2     1 MOL    -0.5445
     13 O         -45.7336  -68.4005   15.6286 O.co2     1 MOL    -0.5445
     14 H         -40.3517  -66.2652   18.3654 H         1 MOL     0.0342
     15 H         -40.9882  -67.9100   18.7256 H         1 MOL     0.0342
     16 H         -41.0361  -66.6237   19.9958 H         1 MOL     0.0342
     17 H         -44.8421  -65.9707   20.8069 H         1 MOL     0.0654
     18 H         -47.2715  -65.5419   20.7356 H         1 MOL     0.0619
     19 H         -48.5984  -66.2870   18.7850 H         1 MOL     0.0618
     20 H         -47.4997  -67.4524   16.9124 H         1 MOL     0.0625
@<TRIPOS>BOND
     1    1    2 1 
     2    1   14 1 
     3    1   15 1 
     4    1   16 1 
     5    2   10 2 
     6    2   11 1 
     7    3    4 ar
     8    3    8 ar
     9    3   11 1 
    10    4    5 ar
    11    4   17 1 
    12    5    6 ar
    13    5   18 1 
    14    6    7 ar
    15    6   19 1 
    16    7    8 ar
    17    7   20 1 
    18    8    9 1 
    19    9   12 ar
    20    9   13 ar
@<TRIPOS>SUBSTRUCTURE
1 MOL         1
@<TRIPOS>MOLECULE
query molecule
   20    20     1     0     0
SMALL
NO_CHARGE

@<TRIPOS>ATOM
      1 C         -73.8498  -57.1527    0.9299 C.3       1 MOL     0.1362
      2 C         -73.2715  -56.5301   -0.3269 C.2       1 MOL     0.3092
      3 C         -73.0470  -57.1596   -2.5732 C.ar      1 MOL     0.1404
      4 C         -73.6943  -56.2112   -3.3858 C.ar      1 MOL     0.0468
      5 C         -73.2795  -56.0019   -4.6990 C.ar      1 MOL     0.0037
      6 C         -72.2078  -56.7326   -5.2094 C.ar      1 MOL     0.0009
      7 C         -71.5519  -57.6537   -4.3958 C.ar      1 MOL     0.0131
      8 C         -71.9577  -57.8883   -3.0719 C.ar      1 MOL     0.0397
      9 C         -71.1924  -58.9284   -2.2740 C.2       1 MOL     0.0752
     10 O         -72.7047  -55.4549   -0.3927 O.2       1 MOL    -0.2507
     11 O         -73.5099  -57.3674   -1.2991 O.3       1 MOL    -0.4254
     12 O         -71.6105  -59.2198   -1.1142 O.co2     1 MOL    -0.5445
     13 O         -70.1573  -59.4123   -2.8358 O.co2     1 MOL    -0.5445
     14 H         -73.6563  -56.5076    1.8098 H         1 MOL     0.0342
     15 H         -73.3925  -58.1500    1.0938 H         1 MOL     0.0342
     16 H         -74.9437  -57.2917    0.8043 H         1 MOL     0.0342
     17 H         -74.5222  -55.6430   -2.9852 H         1 MOL     0.0654
     18 H         -73.7903  -55.2808   -5.3187 H         1 MOL     0.0619
     19 H         -71.8899  -56.5892   -6.2306 H         1 MOL     0.0618
     20 H         -70.7146  -58.2108   -4.7955 H         1 MOL     0.0625
@<TRIPOS>BOND
     1    1    2 1 
     2    1   14 1 
     3    1   15 1 
     4    1   16 1 
     5    2   10 2 
     6    2   11 1 
     7    3    4 ar
     8    3    8 ar
     9    3   11 1 
    10    4    5 ar
    11    4   17 1 
    12    5    6 ar
    13    5   18 1 
    14    6    7 ar
    15    6   19 1 
    16    7    8 ar
    17    7   20 1 
    18    8    9 1 
    19    9   12 ar
    20    9   13 ar
@<TRIPOS>SUBSTRUCTURE
1 MOL         1
@<TRIPOS>MOLECULE
query molecule
   20    20     1     0     0
SMALL
NO_CHARGE

@<TRIPOS>ATOM
      1 C         -12.6197  -69.6477   20.5953 C.3       1 MOL     0.1362
      2 C         -12.8560  -70.7219   19.5395 C.2       1 MOL     0.3092
      3 C         -11.7467  -71.4588   17.5895 C.ar      1 MOL     0.1404
      4 C         -12.1043  -70.8256   16.3841 C.ar      1 MOL     0.0468
      5 C         -12.0670  -71.5276   15.1767 C.ar      1 MOL     0.0037
      6 C         -11.6813  -72.8686   15.1574 C.ar      1 MOL     0.0009
      7 C         -11.3321  -73.4985   16.3510 C.ar      1 MOL     0.0131
      8 C         -11.3310  -72.7998   17.5762 C.ar      1 MOL     0.0397
      9 C         -10.8582  -73.5567   18.8090 C.2       1 MOL     0.0752
     10 O         -13.8454  -71.4243   19.4846 O.2       1 MOL    -0.2507
     11 O         -11.8077  -70.7408   18.7580 O.3       1 MOL    -0.4254
     12 O         -10.6977  -72.9100   19.8857 O.co2     1 MOL    -0.5445
     13 O         -10.6664  -74.8031   18.6537 O.co2     1 MOL    -0.5445
     14 H         -13.5546  -69.4640   21.1623 H         1 MOL     0.0342
     15 H         -12.2952  -68.7037   20.1132 H         1 MOL     0.0342
     16 H         -11.8306  -69.9788   21.3018 H         1 MOL     0.0342
     17 H         -12.4093  -69.7883   16.3916 H         1 MOL     0.0654
     18 H         -12.3429  -71.0309   14.2565 H         1 MOL     0.0619
     19 H         -11.6604  -73.4156   14.2261 H         1 MOL     0.0618
     20 H         -11.0505  -74.5429   16.3354 H         1 MOL     0.0625
@<TRIPOS>BOND
     1    1    2 1 
     2    1   14 1 
     3    1   15 1 
     4    1   16 1 
     5    2   10 2 
     6    2   11 1 
     7    3    4 ar
     8    3    8 ar
     9    3   11 1 
    10    4    5 ar
    11    4   17 1 
    12    5    6 ar
    13    5   18 1 
    14    6    7 ar
    15    6   19 1 
    16    7    8 ar
    17    7   20 1 
    18    8    9 1 
    19    9   12 ar
    20    9   13 ar
@<TRIPOS>SUBSTRUCTURE
1 MOL         1
@<TRIPOS>MOLECULE
query molecule
   20    20     1     0     0
SMALL
NO_CHARGE

@<TRIPOS>ATOM
      1 C         -58.0829  -69.3128   -2.5376 C.3       1 MOL     0.1362
      2 C         -57.4529  -69.7126   -1.2050 C.2       1 MOL     0.3092
      3 C         -56.3644  -71.6252   -0.3424 C.ar      1 MOL     0.1404
      4 C         -56.9461  -72.0160    0.8782 C.ar      1 MOL     0.0468
      5 C         -56.1800  -72.6556    1.8572 C.ar      1 MOL     0.0037
      6 C         -54.8201  -72.8764    1.6391 C.ar      1 MOL     0.0009
      7 C         -54.2419  -72.5022    0.4268 C.ar      1 MOL     0.0131
      8 C         -55.0072  -71.9039   -0.5936 C.ar      1 MOL     0.0397
      9 C         -54.3137  -71.6103   -1.9196 C.2       1 MOL     0.0752
     10 O         -57.2741  -68.9597   -0.2645 O.2       1 MOL    -0.2507
     11 O         -57.1329  -70.9821   -1.2855 O.3       1 MOL    -0.4254
     12 O         -54.9851  -71.0910   -2.8614 O.co2     1 MOL    -0.5445
     13 O         -53.0864  -71.9371   -1.9751 O.co2     1 MOL    -0.5445
     14 H         -58.6795  -68.3843   -2.4224 H         1 MOL     0.0342
     15 H         -58.7473  -70.1200   -2.9070 H         1 MOL     0.0342
     16 H         -57.2840  -69.1340   -3.2860 H         1 MOL     0.0342
     17 H         -57.9913  -71.8132    1.0670 H         1 MOL     0.0654
     18 H         -56.6317  -72.9684    2.7872 H         1 MOL     0.0619
     19 H         -54.2142  -73.3382    2.4050 H         1 MOL     0.0618
     20 H         -53.1869  -72.6814    0.2651 H         1 MOL     0.0625
@<TRIPOS>BOND
     1    1    2 1 
     2    1   14 1 
     3    1   15 1 
     4    1   16 1 
     5    2   10 2 
     6    2   11 1 
     7    3    4 ar
     8    3    8 ar
     9    3   11 1 
    10    4    5 ar
    11    4   17 1 
    12    5    6 ar
    13    5   18 1 
    14    6    7 ar
    15    6   19 1 
    16    7    8 ar
    17    7   20 1 
    18    8    9 1 
    19    9   12 ar
    20    9   13 ar
@<TRIPOS>SUBSTRUCTURE
1 MOL         1
@<TRIPOS>MOLECULE
query molecule
   20    20     1     0     0
SMALL
NO_CHARGE

@<TRIPOS>ATOM
      1 C         -24.6847  -36.9398   16.2734 C.3       1 MOL     0.1362
      2 C         -23.5211  -36.1620   16.8836 C.2       1 MOL     0.3092
      3 C         -21.7068  -34.8980   16.0618 C.ar      1 MOL     0.1404
      4 C         -21.9062  -33.5485   16.4082 C.ar      1 MOL     0.0468
      5 C         -20.8477  -32.6500   16.4268 C.ar      1 MOL     0.0037
      6 C         -19.5606  -33.0898   16.1029 C.ar      1 MOL     0.0009
      7 C         -19.3489  -34.4296   15.7926 C.ar      1 MOL     0.0131
      8 C         -20.4085  -35.3621   15.7988 C.ar      1 MOL     0.0397
      9 C         -20.0551  -36.8081   15.5141 C.2       1 MOL     0.0752
     10 O         -23.3310  -36.0018   18.0757 O.2       1 MOL    -0.2507
     11 O         -22.8021  -35.7037   15.9064 O.3       1 MOL    -0.4254
     12 O         -20.9467  -37.6792   15.7328 O.co2     1 MOL    -0.5445
     13 O         -18.8817  -37.0306   15.0843 O.co2     1 MOL    -0.5445
     14 H         -25.1989  -37.5438   17.0441 H         1 MOL     0.0342
     15 H         -24.3188  -37.6143   15.4706 H         1 MOL     0.0342
     16 H         -25.4197  -36.2366   15.8281 H         1 MOL     0.0342
     17 H         -22.9041  -33.2029   16.6496 H         1 MOL     0.0654
     18 H         -21.0139  -31.6159   16.6733 H         1 MOL     0.0619
     19 H         -18.7416  -32.3880   16.0931 H         1 MOL     0.0618
     20 H         -18.3484  -34.7581   15.5388 H         1 MOL     0.0625
@<TRIPOS>BOND
     1    1    2 1 
     2    1   14 1 
     3    1   15 1 
     4    1   16 1 
     5    2   10 2 
     6    2   11 1 
     7    3    4 ar
     8    3    8 ar
     9    3   11 1 
    10    4    5 ar
    11    4   17 1 
    12    5    6 ar
    13    5   18 1 
    14    6    7 ar
    15    6   19 1 
    16    7    8 ar
    17    7   20 1 
    18    8    9 1 
    19    9   12 ar
    20    9   13 ar
@<TRIPOS>SUBSTRUCTURE
1 MOL         1
@<TRIPOS>MOLECULE
query molecule
   20    20     1     0     0
SMALL
NO_CHARGE

@<TRIPOS>ATOM
      1 C         -33.6933  -73.4100   22.8661 C.3       1 MOL     0.1362
      2 C         -33.1014  -72.1181   23.3947 C.2       1 MOL     0.3092
      3 C         -33.4361  -70.5575   25.0960 C.ar      1 MOL     0.1404
      4 C         -32.4801  -70.5462   26.1265 C.ar      1 MOL     0.0468
      5 C         -32.0812  -69.3433   26.6994 C.ar      1 MOL     0.0037
      6 C         -32.6143  -68.1417   26.2367 C.ar      1 MOL     0.0009
      7 C         -33.5726  -68.1566   25.2219 C.ar      1 MOL     0.0131
      8 C         -34.0261  -69.3593   24.6528 C.ar      1 MOL     0.0397
      9 C         -35.1337  -69.3156   23.6045 C.2       1 MOL     0.0752
     10 O         -32.2023  -71.4982   22.8547 O.2       1 MOL    -0.2507
     11 O         -33.7576  -71.7729   24.5090 O.3       1 MOL    -0.4254
     12 O         -35.5779  -70.4297   23.1816 O.co2     1 MOL    -0.5445
     13 O         -35.5603  -68.1793   23.2363 O.co2     1 MOL    -0.5445
     14 H         -32.9855  -73.8872   22.1599 H         1 MOL     0.0342
     15 H         -34.6439  -73.1935   22.3358 H         1 MOL     0.0342
     16 H         -33.8979  -74.1021   23.7065 H         1 MOL     0.0342
     17 H         -32.0504  -71.4768   26.4695 H         1 MOL     0.0654
     18 H         -31.3462  -69.3441   27.4921 H         1 MOL     0.0619
     19 H         -32.2838  -67.2084   26.6669 H         1 MOL     0.0618
     20 H         -33.9804  -67.2154   24.8763 H         1 MOL     0.0625
@<TRIPOS>BOND
     1    1    2 1 
     2    1   14 1 
     3    1   15 1 
     4    1   16 1 
     5    2   10 2 
     6    2   11 1 
     7    3    4 ar
     8    3    8 ar
     9    3   11 1 
    10    4    5 ar
    11    4   17 1 
    12    5    6 ar
    13    5   18 1 
    14    6    7 ar
    15    6   19 1 
    16    7    8 ar
    17    7   20 1 
    18    8    9 1 
    19    9   12 ar
    20    9   13 ar
@<TRIPOS>SUBSTRUCTURE
1 MOL         1
@<TRIPOS>MOLECULE
query molecule
   20    20     1     0     0
SMALL
NO_CHARGE

@<TRIPOS>ATOM
      1 C         -54.3639  -71.5074    9.0418 C.3       1 MOL     0.1362
      2 C         -55.4534  -72.4945    8.6242 C.2       1 MOL     0.3092
      3 C         -56.8770  -74.0511    9.7159 C.ar      1 MOL     0.1404
      4 C         -58.1338  -73.6426   10.2140 C.ar      1 MOL     0.0468
      5 C         -59.1989  -74.5430   10.2936 C.ar      1 MOL     0.0037
      6 C         -59.0314  -75.8544    9.8562 C.ar      1 MOL     0.0009
      7 C         -57.7971  -76.2602    9.3516 C.ar      1 MOL     0.0131
      8 C         -56.6999  -75.3749    9.2891 C.ar      1 MOL     0.0397
      9 C         -55.3950  -75.9581    8.7619 C.2       1 MOL     0.0752
     10 O         -55.8430  -72.6445    7.4827 O.2       1 MOL    -0.2507
     11 O         -55.8550  -73.1348    9.6916 O.3       1 MOL    -0.4254
     12 O         -55.4556  -77.1382    8.2900 O.co2     1 MOL    -0.5445
     13 O         -54.3584  -75.2337    8.8179 O.co2     1 MOL    -0.5445
     14 H         -54.0551  -70.8872    8.1760 H         1 MOL     0.0342
     15 H         -53.4752  -72.0479    9.4269 H         1 MOL     0.0342
     16 H         -54.7456  -70.8385    9.8420 H         1 MOL     0.0342
     17 H         -58.2825  -72.6254   10.5489 H         1 MOL     0.0654
     18 H         -60.1524  -74.2311   10.6937 H         1 MOL     0.0619
     19 H         -59.8486  -76.5573    9.9106 H         1 MOL     0.0618
     20 H         -57.6755  -77.2789    9.0098 H         1 MOL     0.0625
@<TRIPOS>BOND
     1    1    2 1 
     2    1   14 1 
     3    1   15 1 
     4    1   16 1 
     5    2   10 2 
     6    2   11 1 
     7    3    4 ar
     8    3    8 ar
     9    3   11 1 
    10    4    5 ar
    11    4   17 1 
    12    5    6 ar
    13    5   18 1 
    14    6    7 ar
    15    6   19 1 
    16    7    8 ar
    17    7   20 1 
    18    8    9 1 
    19    9   12 ar
    20    9   13 ar
@<TRIPOS>SUBSTRUCTURE
1 MOL         1
@<TRIPOS>MOLECULE
query molecule
   20    20     1     0     0
SMALL
NO_CHARGE

@<TRIPOS>ATOM
      1 C         -36.0216  -75.9195   -6.6624 C.3       1 MOL     0.1362
      2 C         -37.4926  -75.5937   -6.8465 C.2       1 MOL     0.3092
      3 C         -39.1989  -76.2544   -8.3154 C.ar      1 MOL     0.1404
      4 C         -39.6827  -77.5544   -8.0496 C.ar      1 MOL     0.0468
      5 C         -41.0034  -77.8959   -8.3192 C.ar      1 MOL     0.0037
      6 C         -41.8592  -76.9430   -8.8671 C.ar      1 MOL     0.0009
      7 C         -41.3856  -75.6573   -9.1399 C.ar      1 MOL     0.0131
      8 C         -40.0477  -75.2888   -8.8608 C.ar      1 MOL     0.0397
      9 C         -39.6620  -73.8458   -9.1275 C.2       1 MOL     0.0752
     10 O         -38.2051  -75.0532   -6.0139 O.2       1 MOL    -0.2507
     11 O         -37.8733  -76.0060   -8.0373 O.3       1 MOL    -0.4254
     12 O         -38.5651  -73.4176   -8.6629 O.co2     1 MOL    -0.5445
     13 O         -40.5287  -73.1360   -9.7363 O.co2     1 MOL    -0.5445
     14 H         -35.6814  -75.6108   -5.6531 H         1 MOL     0.0342
     15 H         -35.4033  -75.4092   -7.4267 H         1 MOL     0.0342
     16 H         -35.8773  -77.0175   -6.7627 H         1 MOL     0.0342
     17 H         -39.0086  -78.2949   -7.6405 H         1 MOL     0.0654
     18 H         -41.3526  -78.8961   -8.1131 H         1 MOL     0.0619
     19 H         -42.8837  -77.2071   -9.0834 H         1 MOL     0.0618
     20 H         -42.0677  -74.9270   -9.5585 H         1 MOL     0.0625
@<TRIPOS>BOND
     1    1    2 1 
     2    1   14 1 
     3    1   15 1 
     4    1   16 1 
     5    2   10 2 
     6    2   11 1 
     7    3    4 ar
     8    3    8 ar
     9    3   11 1 
    10    4    5 ar
    11    4   17 1 
    12    5    6 ar
    13    5   18 1 
    14    6    7 ar
    15    6   19 1 
    16    7    8 ar
    17    7   20 1 
    18    8    9 1 
    19    9   12 ar
    20    9   13 ar
@<TRIPOS>SUBSTRUCTURE
1 MOL         1
@<TRIPOS>MOLECULE
query molecule
   20    20     1     0     0
SMALL
NO_CHARGE

@<TRIPOS>ATOM
      1 C          -4.8066  -75.8128   -1.0779 C.3       1 MOL     0.1362
      2 C          -3.3935  -76.3766   -0.9938 C.2       1 MOL     0.3092
      3 C          -2.3268  -78.4780   -0.9814 C.ar      1 MOL     0.1404
      4 C          -1.5455  -78.6776   -2.1368 C.ar      1 MOL     0.0468
      5 C          -0.3795  -79.4401   -2.0867 C.ar      1 MOL     0.0037
      6 C           0.0170  -80.0185   -0.8822 C.ar      1 MOL     0.0009
      7 C          -0.7624  -79.8381    0.2616 C.ar      1 MOL     0.0131
      8 C          -1.9464  -79.0749    0.2316 C.ar      1 MOL     0.0397
      9 C          -2.7408  -78.9615    1.5160 C.2       1 MOL     0.0752
     10 O          -2.3882  -75.6977   -0.8715 O.2       1 MOL    -0.2507
     11 O          -3.4614  -77.6961   -1.0763 O.3       1 MOL    -0.4254
     12 O          -2.2082  -79.4400    2.5655 O.co2     1 MOL    -0.5445
     13 O          -3.8746  -78.4019    1.4584 O.co2     1 MOL    -0.5445
     14 H          -4.7752  -74.7045   -1.0881 H         1 MOL     0.0342
     15 H          -5.4052  -76.1488   -0.2071 H         1 MOL     0.0342
     16 H          -5.2984  -76.1647   -2.0081 H         1 MOL     0.0342
     17 H          -1.8527  -78.2324   -3.0735 H         1 MOL     0.0654
     18 H           0.2134  -79.5799   -2.9781 H         1 MOL     0.0619
     19 H           0.9243  -80.6028   -0.8376 H         1 MOL     0.0618
     20 H          -0.4489  -80.2990    1.1885 H         1 MOL     0.0625
@<TRIPOS>BOND
     1    1    2 1 
     2    1   14 1 
     3    1   15 1 
     4    1   16 1 
     5    2   10 2 
     6    2   11 1 
     7    3    4 ar
     8    3    8 ar
     9    3   11 1 
    10    4    5 ar
    11    4   17 1 
    12    5    6 ar
    13    5   18 1 
    14    6    7 ar
    15    6   19 1 
    16    7    8 ar
    17    7   20 1 
    18    8    9 1 
    19    9   12 ar
    20    9   13 ar
@<TRIPOS>SUBSTRUCTURE
1 MOL         1
@<TRIPOS>MOLECULE
query molecule
   20    20     1     0     0
SMALL
NO_CHARGE

@<TRIPOS>ATOM
      1 C         -10.4467  -67.2555   16.6873 C.3       1 MOL     0.1362
      2 C         -10.2277  -68.7613   16.6870 C.2       1 MOL     0.3092
      3 C         -11.4852  -70.7110   16.3317 C.ar      1 MOL     0.1404
      4 C         -11.1579  -71.2661   15.0770 C.ar      1 MOL     0.0468
      5 C         -11.2315  -72.6389   14.8599 C.ar      1 MOL     0.0037
      6 C         -11.6199  -73.4772   15.9015 C.ar      1 MOL     0.0009
      7 C         -11.9607  -72.9306   17.1392 C.ar      1 MOL     0.0131
      8 C         -11.9260  -71.5406   17.3683 C.ar      1 MOL     0.0397
      9 C         -12.4193  -71.0405   18.7142 C.2       1 MOL     0.0752
     10 O          -9.1454  -69.3033   16.8294 O.2       1 MOL    -0.2507
     11 O         -11.3927  -69.3461   16.4867 O.3       1 MOL    -0.4254
     12 O         -13.1316  -71.8618   19.3763 O.co2     1 MOL    -0.5445
     13 O         -12.1302  -69.8589   19.0609 O.co2     1 MOL    -0.5445
     14 H          -9.4747  -66.7297   16.7754 H         1 MOL     0.0342
     15 H         -11.0965  -66.9577   17.5348 H         1 MOL     0.0342
     16 H         -10.9358  -66.9532   15.7378 H         1 MOL     0.0342
     17 H         -10.8469  -70.6144   14.2720 H         1 MOL     0.0654
     18 H         -10.9875  -73.0506   13.8926 H         1 MOL     0.0619
     19 H         -11.6686  -74.5450   15.7492 H         1 MOL     0.0618
     20 H         -12.2668  -73.5917   17.9391 H         1 MOL     0.0625
@<TRIPOS>BOND
     1    1    2 1 
     2    1   14 1 
     3    1   15 1 
     4    1   16 1 
     5    2   10 2 
     6    2   11 1 
     7    3    4 ar
     8    3    8 ar
     9    3   11 1 
    10    4    5 ar
    11    4   17 1 
    12    5    6 ar
    13    5   18 1 
    14    6    7 ar
    15    6   19 1 
    16    7    8 ar
    17    7   20 1 
    18    8    9 1 
    19    9   12 ar
    20    9   13 ar
@<TRIPOS>SUBSTRUCTURE
1 MOL         1
@<TRIPOS>MOLECULE
query molecule
   20    20     1     0     0
SMALL
NO_CHARGE

@<TRIPOS>ATOM
      1 C         -22.9307  -35.5265   16.5713 C.3       1 MOL     0.1362
      2 C         -21.8560  -34.8096   15.7628 C.2       1 MOL     0.3092
      3 C         -19.5357  -34.4471   15.9155 C.ar      1 MOL     0.1404
      4 C         -19.3268  -33.0801   16.1838 C.ar      1 MOL     0.0468
      5 C         -18.1420  -32.4509   15.8073 C.ar      1 MOL     0.0037
      6 C         -17.1437  -33.1836   15.1671 C.ar      1 MOL     0.0009
      7 C         -17.3337  -34.5427   14.9153 C.ar      1 MOL     0.0131
      8 C         -18.5363  -35.1901   15.2726 C.ar      1 MOL     0.0397
      9 C         -18.6664  -36.6614   14.9368 C.2       1 MOL     0.0752
     10 O         -22.0702  -34.1341   14.7692 O.2       1 MOL    -0.2507
     11 O         -20.7057  -35.0283   16.3395 O.3       1 MOL    -0.4254
     12 O         -17.5878  -37.2381   14.5995 O.co2     1 MOL    -0.5445
     13 O         -19.8098  -37.1988   15.0009 O.co2     1 MOL    -0.5445
     14 H         -23.9343  -35.3054   16.1519 H         1 MOL     0.0342
     15 H         -22.9024  -35.1654   17.6221 H         1 MOL     0.0342
     16 H         -22.7667  -36.6208   16.5635 H         1 MOL     0.0342
     17 H         -20.0963  -32.5162   16.6931 H         1 MOL     0.0654
     18 H         -17.9980  -31.4011   16.0159 H         1 MOL     0.0619
     19 H         -16.2270  -32.6973   14.8683 H         1 MOL     0.0618
     20 H         -16.5446  -35.1024   14.4297 H         1 MOL     0.0625
@<TRIPOS>BOND
     1    1    2 1 
     2    1   14 1 
     3    1   15 1 
     4    1   16 1 
     5    2   10 2 
     6    2   11 1 
     7    3    4 ar
     8    3    8 ar
     9    3   11 1 
    10    4    5 ar
    11    4   17 1 
    12    5    6 ar
    13    5   18 1 
    14    6    7 ar
    15    6   19 1 
    16    7    8 ar
    17    7   20 1 
    18    8    9 1 
    19    9   12 ar
    20    9   13 ar
@<TRIPOS>SUBSTRUCTURE
1 MOL         1
@<TRIPOS>MOLECULE
query molecule
   20    20     1     0     0
SMALL
NO_CHARGE

@<TRIPOS>ATOM
      1 C         -49.7606  -37.5117  -25.5003 C.3       1 MOL     0.1362
      2 C         -49.0166  -36.4840  -24.6637 C.2       1 MOL     0.3092
      3 C         -48.6903  -34.1555  -24.6889 C.ar      1 MOL     0.1404
      4 C         -47.4269  -33.6962  -25.1066 C.ar      1 MOL     0.0468
      5 C         -46.8908  -32.5223  -24.5794 C.ar      1 MOL     0.0037
      6 C         -47.6034  -31.8064  -23.6191 C.ar      1 MOL     0.0009
      7 C         -48.8542  -32.2605  -23.2015 C.ar      1 MOL     0.0131
      8 C         -49.4257  -33.4301  -23.7370 C.ar      1 MOL     0.0397
      9 C         -50.8171  -33.8195  -23.2647 C.2       1 MOL     0.0752
     10 O         -48.4034  -36.7147  -23.6378 O.2       1 MOL    -0.2507
     11 O         -49.1848  -35.3149  -25.2400 O.3       1 MOL    -0.4254
     12 O         -51.2474  -33.2306  -22.2218 O.co2     1 MOL    -0.5445
     13 O         -51.4406  -34.7070  -23.9187 O.co2     1 MOL    -0.5445
     14 H         -49.3808  -38.5338  -25.3115 H         1 MOL     0.0342
     15 H         -49.6319  -37.2703  -26.5762 H         1 MOL     0.0342
     16 H         -50.8435  -37.4753  -25.2609 H         1 MOL     0.0342
     17 H         -46.8677  -34.2555  -25.8434 H         1 MOL     0.0654
     18 H         -45.9276  -32.1679  -24.9152 H         1 MOL     0.0619
     19 H         -47.1886  -30.8999  -23.2044 H         1 MOL     0.0618
     20 H         -49.4004  -31.6938  -22.4585 H         1 MOL     0.0625
@<TRIPOS>BOND
     1    1    2 1 
     2    1   14 1 
     3    1   15 1 
     4    1   16 1 
     5    2   10 2 
     6    2   11 1 
     7    3    4 ar
     8    3    8 ar
     9    3   11 1 
    10    4    5 ar
    11    4   17 1 
    12    5    6 ar
    13    5   18 1 
    14    6    7 ar
    15    6   19 1 
    16    7    8 ar
    17    7   20 1 
    18    8    9 1 
    19    9   12 ar
    20    9   13 ar
@<TRIPOS>SUBSTRUCTURE
1 MOL         1
@<TRIPOS>MOLECULE
query molecule
   20    20     1     0     0
SMALL
NO_CHARGE

@<TRIPOS>ATOM
      1 C         -65.5743  -35.1472    1.8810 C.3       1 MOL     0.1362
      2 C         -64.4385  -35.6950    2.7528 C.2       1 MOL     0.3092
      3 C         -63.2311  -36.3796    0.7825 C.ar      1 MOL     0.1404
      4 C         -63.9504  -37.3079    0.0082 C.ar      1 MOL     0.0468
      5 C         -63.7069  -37.4403   -1.3575 C.ar      1 MOL     0.0037
      6 C         -62.7337  -36.6554   -1.9715 C.ar      1 MOL     0.0009
      7 C         -62.0072  -35.7373   -1.2143 C.ar      1 MOL     0.0131
      8 C         -62.2453  -35.5843    0.1682 C.ar      1 MOL     0.0397
      9 C         -61.4042  -34.5572    0.9045 C.2       1 MOL     0.0752
     10 O         -64.4561  -35.5863    3.9816 O.2       1 MOL    -0.2507
     11 O         -63.4776  -36.2885    2.1078 O.3       1 MOL    -0.4254
     12 O         -60.5212  -33.9701    0.2044 O.co2     1 MOL    -0.5445
     13 O         -61.6386  -34.3448    2.1308 O.co2     1 MOL    -0.5445
     14 H         -66.3452  -34.6738    2.5253 H         1 MOL     0.0342
     15 H         -66.0495  -35.9755    1.3162 H         1 MOL     0.0342
     16 H         -65.1947  -34.3922    1.1652 H         1 MOL     0.0342
     17 H         -64.7037  -37.9217    0.4817 H         1 MOL     0.0654
     18 H         -64.2726  -38.1545   -1.9354 H         1 MOL     0.0619
     19 H         -62.5417  -36.7655   -3.0277 H         1 MOL     0.0618
     20 H         -61.2480  -35.1367   -1.7006 H         1 MOL     0.0625
@<TRIPOS>BOND
     1    1    2 1 
     2    1   14 1 
     3    1   15 1 
     4    1   16 1 
     5    2   10 2 
     6    2   11 1 
     7    3    4 ar
     8    3    8 ar
     9    3   11 1 
    10    4    5 ar
    11    4   17 1 
    12    5    6 ar
    13    5   18 1 
    14    6    7 ar
    15    6   19 1 
    16    7    8 ar
    17    7   20 1 
    18    8    9 1 
    19    9   12 ar
    20    9   13 ar
@<TRIPOS>SUBSTRUCTURE
1 MOL         1
@<TRIPOS>MOLECULE
query molecule
   20    20     1     0     0
SMALL
NO_CHARGE

@<TRIPOS>ATOM
      1 C         -62.1707  -35.5959   -1.1238 C.3       1 MOL     0.1362
      2 C         -61.4443  -35.4273    0.2052 C.2       1 MOL     0.3092
      3 C         -60.1205  -33.7639    1.2240 C.ar      1 MOL     0.1404
      4 C         -60.8211  -33.1292    2.2677 C.ar      1 MOL     0.0468
      5 C         -60.1352  -32.5232    3.3191 C.ar      1 MOL     0.0037
      6 C         -58.7408  -32.5377    3.3386 C.ar      1 MOL     0.0009
      7 C         -58.0430  -33.1782    2.3155 C.ar      1 MOL     0.0131
      8 C         -58.7203  -33.8135    1.2576 C.ar      1 MOL     0.0397
      9 C         -57.8719  -34.5130    0.2222 C.2       1 MOL     0.0752
     10 O         -61.4553  -36.2379    1.1078 O.2       1 MOL    -0.2507
     11 O         -60.8360  -34.2781    0.1763 O.3       1 MOL    -0.4254
     12 O         -56.6127  -34.4239    0.3523 O.co2     1 MOL    -0.5445
     13 O         -58.4850  -35.1393   -0.6883 O.co2     1 MOL    -0.5445
     14 H         -62.5590  -36.6282   -1.2301 H         1 MOL     0.0342
     15 H         -61.4759  -35.3822   -1.9620 H         1 MOL     0.0342
     16 H         -63.0192  -34.8826   -1.1743 H         1 MOL     0.0342
     17 H         -61.9021  -33.1139    2.2489 H         1 MOL     0.0654
     18 H         -60.6841  -32.0430    4.1149 H         1 MOL     0.0619
     19 H         -58.2029  -32.0593    4.1433 H         1 MOL     0.0618
     20 H         -56.9605  -33.1918    2.3342 H         1 MOL     0.0625
@<TRIPOS>BOND
     1    1    2 1 
     2    1   14 1 
     3    1   15 1 
     4    1   16 1 
     5    2   10 2 
     6    2   11 1 
     7    3    4 ar
     8    3    8 ar
     9    3   11 1 
    10    4    5 ar
    11    4   17 1 
    12    5    6 ar
    13    5   18 1 
    14    6    7 ar
    15    6   19 1 
    16    7    8 ar
    17    7   20 1 
    18    8    9 1 
    19    9   12 ar
    20    9   13 ar
@<TRIPOS>SUBSTRUCTURE
1 MOL         1
@<TRIPOS>MOLECULE
query molecule
   20    20     1     0     0
SMALL
NO_CHARGE

@<TRIPOS>ATOM
      1 C         -56.7189  -33.7355   -0.5935 C.3       1 MOL     0.1362
      2 C         -55.7113  -32.7413   -0.0365 C.2       1 MOL     0.3092
      3 C         -53.5222  -32.0292   -0.5272 C.ar      1 MOL     0.1404
      4 C         -53.3976  -30.7048   -0.9839 C.ar      1 MOL     0.0468
      5 C         -52.2471  -29.9648   -0.7110 C.ar      1 MOL     0.0037
      6 C         -51.2147  -30.5391    0.0313 C.ar      1 MOL     0.0009
      7 C         -51.3413  -31.8462    0.5065 C.ar      1 MOL     0.0131
      8 C         -52.4890  -32.6120    0.2284 C.ar      1 MOL     0.0397
      9 C         -52.5393  -34.0299    0.7535 C.2       1 MOL     0.0752
     10 O         -55.8637  -32.0982    0.9869 O.2       1 MOL    -0.2507
     11 O         -54.6649  -32.7361   -0.8347 O.3       1 MOL    -0.4254
     12 O         -51.6578  -34.3728    1.6009 O.co2     1 MOL    -0.5445
     13 O         -53.4531  -34.7850    0.3001 O.co2     1 MOL    -0.5445
     14 H         -57.6067  -33.7950    0.0665 H         1 MOL     0.0342
     15 H         -56.2523  -34.7402   -0.6623 H         1 MOL     0.0342
     16 H         -57.0377  -33.4188   -1.6070 H         1 MOL     0.0342
     17 H         -54.1994  -30.2535   -1.5516 H         1 MOL     0.0654
     18 H         -52.1565  -28.9512   -1.0739 H         1 MOL     0.0619
     19 H         -50.3189  -29.9702    0.2336 H         1 MOL     0.0618
     20 H         -50.5355  -32.2771    1.0851 H         1 MOL     0.0625
@<TRIPOS>BOND
     1    1    2 1 
     2    1   14 1 
     3    1   15 1 
     4    1   16 1 
     5    2   10 2 
     6    2   11 1 
     7    3    4 ar
     8    3    8 ar
     9    3   11 1 
    10    4    5 ar
    11    4   17 1 
    12    5    6 ar
    13    5   18 1 
    14    6    7 ar
    15    6   19 1 
    16    7    8 ar
    17    7   20 1 
    18    8    9 1 
    19    9   12 ar
    20    9   13 ar
@<TRIPOS>SUBSTRUCTURE
1 MOL         1
@<TRIPOS>MOLECULE
query molecule
   20    20     1     0     0
SMALL
NO_CHARGE

@<TRIPOS>ATOM
      1 C         -15.2079  -64.5301   30.7432 C.3       1 MOL     0.1362
      2 C         -15.6410  -64.2506   29.3109 C.2       1 MOL     0.3092
      3 C         -14.9216  -64.6977   27.1187 C.ar      1 MOL     0.1404
      4 C         -14.4568  -63.5290   26.4844 C.ar      1 MOL     0.0468
      5 C         -14.6046  -63.3566   25.1124 C.ar      1 MOL     0.0037
      6 C         -15.2207  -64.3543   24.3604 C.ar      1 MOL     0.0009
      7 C         -15.6898  -65.5135   24.9806 C.ar      1 MOL     0.0131
      8 C         -15.5392  -65.7126   26.3678 C.ar      1 MOL     0.0397
      9 C         -16.0468  -67.0180   26.9722 C.2       1 MOL     0.0752
     10 O         -16.6337  -63.6125   29.0035 O.2       1 MOL    -0.2507
     11 O         -14.7588  -64.8052   28.4890 O.3       1 MOL    -0.4254
     12 O         -15.7039  -67.2782   28.1668 O.co2     1 MOL    -0.5445
     13 O         -16.7773  -67.7527   26.2357 O.co2     1 MOL    -0.5445
     14 H         -15.8106  -63.9174   31.4447 H         1 MOL     0.0342
     15 H         -14.1370  -64.2688   30.8687 H         1 MOL     0.0342
     16 H         -15.3488  -65.6018   30.9883 H         1 MOL     0.0342
     17 H         -13.9818  -62.7594   27.0770 H         1 MOL     0.0654
     18 H         -14.2413  -62.4558   24.6413 H         1 MOL     0.0619
     19 H         -15.3307  -64.2227   23.2936 H         1 MOL     0.0618
     20 H         -16.1664  -66.2726   24.3756 H         1 MOL     0.0625
@<TRIPOS>BOND
     1    1    2 1 
     2    1   14 1 
     3    1   15 1 
     4    1   16 1 
     5    2   10 2 
     6    2   11 1 
     7    3    4 ar
     8    3    8 ar
     9    3   11 1 
    10    4    5 ar
    11    4   17 1 
    12    5    6 ar
    13    5   18 1 
    14    6    7 ar
    15    6   19 1 
    16    7    8 ar
    17    7   20 1 
    18    8    9 1 
    19    9   12 ar
    20    9   13 ar
@<TRIPOS>SUBSTRUCTURE
1 MOL         1
@<TRIPOS>MOLECULE
query molecule
   20    20     1     0     0
SMALL
NO_CHARGE

@<TRIPOS>ATOM
      1 C         -57.9948  -34.7803   14.3218 C.3       1 MOL     0.1362
      2 C         -59.3677  -34.9689   13.6828 C.2       1 MOL     0.3092
      3 C         -61.1833  -36.4648   13.7753 C.ar      1 MOL     0.1404
      4 C         -62.3341  -35.8909   14.3414 C.ar      1 MOL     0.0468
      5 C         -63.6021  -36.2659   13.9016 C.ar      1 MOL     0.0037
      6 C         -63.7310  -37.2074   12.8789 C.ar      1 MOL     0.0009
      7 C         -62.5906  -37.7815   12.3115 C.ar      1 MOL     0.0131
      8 C         -61.3050  -37.4399   12.7732 C.ar      1 MOL     0.0397
      9 C         -60.1125  -38.1560   12.1850 C.2       1 MOL     0.0752
     10 O         -59.8302  -34.2392   12.8241 O.2       1 MOL    -0.2507
     11 O         -59.9458  -36.0450   14.2204 O.3       1 MOL    -0.4254
     12 O         -60.3443  -38.9685   11.2402 O.co2     1 MOL    -0.5445
     13 O         -58.9738  -37.9223   12.6829 O.co2     1 MOL    -0.5445
     14 H         -57.4603  -33.9366   13.8438 H         1 MOL     0.0342
     15 H         -57.3922  -35.7052   14.1978 H         1 MOL     0.0342
     16 H         -58.1073  -34.5700   15.4049 H         1 MOL     0.0342
     17 H         -62.2304  -35.1499   15.1215 H         1 MOL     0.0654
     18 H         -64.4792  -35.8255   14.3519 H         1 MOL     0.0619
     19 H         -64.7135  -37.4922   12.5326 H         1 MOL     0.0618
     20 H         -62.7010  -38.5050   11.5152 H         1 MOL     0.0625
@<TRIPOS>BOND
     1    1    2 1 
     2    1   14 1 
     3    1   15 1 
     4    1   16 1 
     5    2   10 2 
     6    2   11 1 
     7    3    4 ar
     8    3    8 ar
     9    3   11 1 
    10    4    5 ar
    11    4   17 1 
    12    5    6 ar
    13    5   18 1 
    14    6    7 ar
    15    6   19 1 
    16    7    8 ar
    17    7   20 1 
    18    8    9 1 
    19    9   12 ar
    20    9   13 ar
@<TRIPOS>SUBSTRUCTURE
1 MOL         1
@<TRIPOS>MOLECULE
query molecule
   20    20     1     0     0
SMALL
NO_CHARGE

@<TRIPOS>ATOM
      1 C         -30.7315  -59.5103  -16.9981 C.3       1 MOL     0.1362
      2 C         -30.7278  -60.4903  -18.1707 C.2       1 MOL     0.3092
      3 C         -29.2944  -60.7785  -20.0305 C.ar      1 MOL     0.1404
      4 C         -29.1559  -62.1547  -20.2614 C.ar      1 MOL     0.0468
      5 C         -28.8191  -62.6476  -21.5218 C.ar      1 MOL     0.0037
      6 C         -28.5800  -61.7675  -22.5700 C.ar      1 MOL     0.0009
      7 C         -28.6995  -60.4009  -22.3471 C.ar      1 MOL     0.0131
      8 C         -29.0704  -59.8799  -21.0924 C.ar      1 MOL     0.0397
      9 C         -29.2171  -58.3701  -20.9955 C.2       1 MOL     0.0752
     10 O         -31.6372  -61.2511  -18.4322 O.2       1 MOL    -0.2507
     11 O         -29.6142  -60.3245  -18.7889 O.3       1 MOL    -0.4254
     12 O         -28.9455  -57.7055  -22.0457 O.co2     1 MOL    -0.5445
     13 O         -29.6059  -57.8872  -19.8919 O.co2     1 MOL    -0.5445
     14 H         -31.7481  -59.4308  -16.5635 H         1 MOL     0.0342
     15 H         -30.4149  -58.5052  -17.3513 H         1 MOL     0.0342
     16 H         -30.0267  -59.8488  -16.2137 H         1 MOL     0.0342
     17 H         -29.3171  -62.8479  -19.4471 H         1 MOL     0.0654
     18 H         -28.7368  -63.7119  -21.6835 H         1 MOL     0.0619
     19 H         -28.3059  -62.1387  -23.5447 H         1 MOL     0.0618
     20 H         -28.5049  -59.7169  -23.1628 H         1 MOL     0.0625
@<TRIPOS>BOND
     1    1    2 1 
     2    1   14 1 
     3    1   15 1 
     4    1   16 1 
     5    2   10 2 
     6    2   11 1 
     7    3    4 ar
     8    3    8 ar
     9    3   11 1 
    10    4    5 ar
    11    4   17 1 
    12    5    6 ar
    13    5   18 1 
    14    6    7 ar
    15    6   19 1 
    16    7    8 ar
    17    7   20 1 
    18    8    9 1 
    19    9   12 ar
    20    9   13 ar
@<TRIPOS>SUBSTRUCTURE
1 MOL         1
@<TRIPOS>MOLECULE
query molecule
   20    20     1     0     0
SMALL
NO_CHARGE

@<TRIPOS>ATOM
      1 C         -46.4787  -58.4035   23.9831 C.3       1 MOL     0.1362
      2 C         -48.0006  -58.3605   23.9468 C.2       1 MOL     0.3092
      3 C         -49.7975  -59.7294   23.2788 C.ar      1 MOL     0.1404
      4 C         -50.5403  -59.1549   22.2376 C.ar      1 MOL     0.0468
      5 C         -51.9036  -59.3929   22.1099 C.ar      1 MOL     0.0037
      6 C         -52.5435  -60.2329   23.0202 C.ar      1 MOL     0.0009
      7 C         -51.8128  -60.8217   24.0519 C.ar      1 MOL     0.0131
      8 C         -50.4304  -60.5832   24.1963 C.ar      1 MOL     0.0397
      9 C         -49.7093  -61.2816   25.3375 C.2       1 MOL     0.0752
     10 O         -48.6731  -57.4460   24.4000 O.2       1 MOL    -0.2507
     11 O         -48.4437  -59.4623   23.3638 O.3       1 MOL    -0.4254
     12 O         -50.4161  -62.0714   26.0382 O.co2     1 MOL    -0.5445
     13 O         -48.4773  -61.0409   25.5060 O.co2     1 MOL    -0.5445
     14 H         -46.0823  -57.5060   24.4974 H         1 MOL     0.0342
     15 H         -46.0823  -58.4293   22.9466 H         1 MOL     0.0342
     16 H         -46.1325  -59.3113   24.5196 H         1 MOL     0.0342
     17 H         -50.0378  -58.5100   21.5282 H         1 MOL     0.0654
     18 H         -52.4612  -58.9314   21.3085 H         1 MOL     0.0619
     19 H         -53.6028  -60.4250   22.9299 H         1 MOL     0.0618
     20 H         -52.3152  -61.4719   24.7561 H         1 MOL     0.0625
@<TRIPOS>BOND
     1    1    2 1 
     2    1   14 1 
     3    1   15 1 
     4    1   16 1 
     5    2   10 2 
     6    2   11 1 
     7    3    4 ar
     8    3    8 ar
     9    3   11 1 
    10    4    5 ar
    11    4   17 1 
    12    5    6 ar
    13    5   18 1 
    14    6    7 ar
    15    6   19 1 
    16    7    8 ar
    17    7   20 1 
    18    8    9 1 
    19    9   12 ar
    20    9   13 ar
@<TRIPOS>SUBSTRUCTURE
1 MOL         1
@<TRIPOS>MOLECULE
query molecule
   20    20     1     0     0
SMALL
NO_CHARGE

@<TRIPOS>ATOM
      1 C         -63.7017  -39.5482    9.0756 C.3       1 MOL     0.1362
      2 C         -63.4404  -38.3052    9.9158 C.2       1 MOL     0.3092
      3 C         -61.6973  -36.7630   10.2271 C.ar      1 MOL     0.1404
      4 C         -62.0546  -35.4862    9.7482 C.ar      1 MOL     0.0468
      5 C         -61.5122  -34.3376   10.3203 C.ar      1 MOL     0.0037
      6 C         -60.5991  -34.4532   11.3658 C.ar      1 MOL     0.0009
      7 C         -60.2459  -35.7116   11.8513 C.ar      1 MOL     0.0131
      8 C         -60.7850  -36.8874   11.2892 C.ar      1 MOL     0.0397
      9 C         -60.3209  -38.2131   11.8609 C.2       1 MOL     0.0752
     10 O         -64.2201  -37.8297   10.7223 O.2       1 MOL    -0.2507
     11 O         -62.2387  -37.8717    9.6183 O.3       1 MOL    -0.4254
     12 O         -59.3312  -38.1542   12.6515 O.co2     1 MOL    -0.5445
     13 O         -60.9304  -39.2645   11.5187 O.co2     1 MOL    -0.5445
     14 H         -64.5869  -40.0877    9.4696 H         1 MOL     0.0342
     15 H         -62.8201  -40.2218    9.1159 H         1 MOL     0.0342
     16 H         -63.8945  -39.2751    8.0182 H         1 MOL     0.0342
     17 H         -62.7548  -35.3877    8.9310 H         1 MOL     0.0654
     18 H         -61.7942  -33.3615    9.9540 H         1 MOL     0.0619
     19 H         -60.1622  -33.5638   11.7935 H         1 MOL     0.0618
     20 H         -59.5407  -35.7820   12.6687 H         1 MOL     0.0625
@<TRIPOS>BOND
     1    1    2 1 
     2    1   14 1 
     3    1   15 1 
     4    1   16 1 
     5    2   10 2 
     6    2   11 1 
     7    3    4 ar
     8    3    8 ar
     9    3   11 1 
    10    4    5 ar
    11    4   17 1 
    12    5    6 ar
    13    5   18 1 
    14    6    7 ar
    15    6   19 1 
    16    7    8 ar
    17    7   20 1 
    18    8    9 1 
    19    9   12 ar
    20    9   13 ar
@<TRIPOS>SUBSTRUCTURE
1 MOL         1
@<TRIPOS>MOLECULE
query molecule
   20    20     1     0     0
SMALL
NO_CHARGE

@<TRIPOS>ATOM
      1 C         -22.1748  -76.5305   14.5138 C.3       1 MOL     0.1362
      2 C         -20.7826  -75.9081   14.6430 C.2       1 MOL     0.3092
      3 C         -18.5492  -76.7209   14.6768 C.ar      1 MOL     0.1404
      4 C         -17.9637  -76.7674   13.3901 C.ar      1 MOL     0.0468
      5 C         -16.5805  -76.6629   13.2286 C.ar      1 MOL     0.0037
      6 C         -15.7643  -76.4947   14.3446 C.ar      1 MOL     0.0009
      7 C         -16.3333  -76.4376   15.6154 C.ar      1 MOL     0.0131
      8 C         -17.7296  -76.5565   15.8072 C.ar      1 MOL     0.0397
      9 C         -18.2059  -76.5356   17.2523 C.2       1 MOL     0.0752
     10 O         -20.5603  -74.7106   14.5810 O.2       1 MOL    -0.2507
     11 O         -19.9116  -76.8799   14.7753 O.3       1 MOL    -0.4254
     12 O         -17.3229  -76.3003   18.1421 O.co2     1 MOL    -0.5445
     13 O         -19.4300  -76.7795   17.4756 O.co2     1 MOL    -0.5445
     14 H         -22.9251  -75.7467   14.2778 H         1 MOL     0.0342
     15 H         -22.4657  -77.0353   15.4572 H         1 MOL     0.0342
     16 H         -22.1834  -77.2772   13.6914 H         1 MOL     0.0342
     17 H         -18.5896  -76.8986   12.5211 H         1 MOL     0.0654
     18 H         -16.1412  -76.7114   12.2435 H         1 MOL     0.0619
     19 H         -14.6944  -76.4069   14.2247 H         1 MOL     0.0618
     20 H         -15.6834  -76.3102   16.4733 H         1 MOL     0.0625
@<TRIPOS>BOND
     1    1    2 1 
     2    1   14 1 
     3    1   15 1 
     4    1   16 1 
     5    2   10 2 
     6    2   11 1 
     7    3    4 ar
     8    3    8 ar
     9    3   11 1 
    10    4    5 ar
    11    4   17 1 
    12    5    6 ar
    13    5   18 1 
    14    6    7 ar
    15    6   19 1 
    16    7    8 ar
    17    7   20 1 
    18    8    9 1 
    19    9   12 ar
    20    9   13 ar
@<TRIPOS>SUBSTRUCTURE
1 MOL         1
@<TRIPOS>MOLECULE
query molecule
   20    20     1     0     0
SMALL
NO_CHARGE

@<TRIPOS>ATOM
      1 C         -32.5715  -40.8908  -25.1865 C.3       1 MOL     0.1362
      2 C         -33.4624  -40.0416  -24.2939 C.2       1 MOL     0.3092
      3 C         -34.1219  -37.7805  -24.1740 C.ar      1 MOL     0.1404
      4 C         -33.4016  -37.1845  -23.1142 C.ar      1 MOL     0.0468
      5 C         -33.9151  -36.0888  -22.4248 C.ar      1 MOL     0.0037
      6 C         -35.1623  -35.5796  -22.7780 C.ar      1 MOL     0.0009
      7 C         -35.8747  -36.1651  -23.8230 C.ar      1 MOL     0.0131
      8 C         -35.3674  -37.2649  -24.5459 C.ar      1 MOL     0.0397
      9 C         -36.2233  -37.7984  -25.6812 C.2       1 MOL     0.0752
     10 O         -34.0025  -40.4329  -23.2732 O.2       1 MOL    -0.2507
     11 O         -33.5380  -38.8425  -24.8188 O.3       1 MOL    -0.4254
     12 O         -37.0862  -36.9975  -26.1528 O.co2     1 MOL    -0.5445
     13 O         -36.0396  -38.9904  -26.0593 O.co2     1 MOL    -0.5445
     14 H         -32.3382  -41.8555  -24.6923 H         1 MOL     0.0342
     15 H         -31.6190  -40.3527  -25.3817 H         1 MOL     0.0342
     16 H         -33.0734  -41.0876  -26.1538 H         1 MOL     0.0342
     17 H         -32.4330  -37.5816  -22.8401 H         1 MOL     0.0654
     18 H         -33.3466  -35.6388  -21.6243 H         1 MOL     0.0619
     19 H         -35.5701  -34.7332  -22.2463 H         1 MOL     0.0618
     20 H         -36.8460  -35.7643  -24.0867 H         1 MOL     0.0625
@<TRIPOS>BOND
     1    1    2 1 
     2    1   14 1 
     3    1   15 1 
     4    1   16 1 
     5    2   10 2 
     6    2   11 1 
     7    3    4 ar
     8    3    8 ar
     9    3   11 1 
    10    4    5 ar
    11    4   17 1 
    12    5    6 ar
    13    5   18 1 
    14    6    7 ar
    15    6   19 1 
    16    7    8 ar
    17    7   20 1 
    18    8    9 1 
    19    9   12 ar
    20    9   13 ar
@<TRIPOS>SUBSTRUCTURE
1 MOL         1
@<TRIPOS>MOLECULE
query molecule
   20    20     1     0     0
SMALL
NO_CHARGE

@<TRIPOS>ATOM
      1 C         -14.0850  -56.3234   22.3258 C.3       1 MOL     0.1362
      2 C         -13.3898  -57.0683   21.1902 C.2       1 MOL     0.3092
      3 C         -11.4204  -56.8336   19.9138 C.ar      1 MOL     0.1404
      4 C         -11.5741  -56.1414   18.6973 C.ar      1 MOL     0.0468
      5 C         -10.8014  -56.4670   17.5840 C.ar      1 MOL     0.0037
      6 C          -9.8405  -57.4704   17.6797 C.ar      1 MOL     0.0009
      7 C          -9.6649  -58.1430   18.8870 C.ar      1 MOL     0.0131
      8 C         -10.4534  -57.8427   20.0186 C.ar      1 MOL     0.0397
      9 C         -10.1750  -58.6450   21.2770 C.2       1 MOL     0.0752
     10 O         -13.8394  -58.0311   20.6107 O.2       1 MOL    -0.2507
     11 O         -12.2223  -56.4827   20.9782 O.3       1 MOL    -0.4254
     12 O          -9.3062  -59.5672   21.1635 O.co2     1 MOL    -0.5445
     13 O         -10.8021  -58.3454   22.3355 O.co2     1 MOL    -0.5445
     14 H         -15.1768  -56.5130   22.3035 H         1 MOL     0.0342
     15 H         -13.9073  -55.2320   22.2334 H         1 MOL     0.0342
     16 H         -13.6801  -56.6697   23.2994 H         1 MOL     0.0342
     17 H         -12.3074  -55.3527   18.6157 H         1 MOL     0.0654
     18 H         -10.9458  -55.9451   16.6502 H         1 MOL     0.0619
     19 H          -9.2320  -57.7235   16.8248 H         1 MOL     0.0618
     20 H          -8.9059  -58.9115   18.9593 H         1 MOL     0.0625
@<TRIPOS>BOND
     1    1    2 1 
     2    1   14 1 
     3    1   15 1 
     4    1   16 1 
     5    2   10 2 
     6    2   11 1 
     7    3    4 ar
     8    3    8 ar
     9    3   11 1 
    10    4    5 ar
    11    4   17 1 
    12    5    6 ar
    13    5   18 1 
    14    6    7 ar
    15    6   19 1 
    16    7    8 ar
    17    7   20 1 
    18    8    9 1 
    19    9   12 ar
    20    9   13 ar
@<TRIPOS>SUBSTRUCTURE
1 MOL         1
@<TRIPOS>MOLECULE
query molecule
   20    20     1     0     0
SMALL
NO_CHARGE

@<TRIPOS>ATOM
      1 C         -15.2096  -46.4011   14.8721 C.3       1 MOL     0.1362
      2 C         -14.1730  -45.5522   15.6055 C.2       1 MOL     0.3092
      3 C         -12.7138  -45.7258   17.4588 C.ar      1 MOL     0.1404
      4 C         -13.1341  -45.2525   18.7161 C.ar      1 MOL     0.0468
      5 C         -12.2225  -44.6574   19.5912 C.ar      1 MOL     0.0037
      6 C         -10.8846  -44.5237   19.2194 C.ar      1 MOL     0.0009
      7 C         -10.4626  -44.9916   17.9774 C.ar      1 MOL     0.0131
      8 C         -11.3640  -45.6120   17.0930 C.ar      1 MOL     0.0397
      9 C         -10.8062  -46.1106   15.7776 C.2       1 MOL     0.0752
     10 O         -13.8667  -44.4139   15.2926 O.2       1 MOL    -0.2507
     11 O         -13.6534  -46.2747   16.6029 O.3       1 MOL    -0.4254
     12 O          -9.6624  -45.6649   15.4495 O.co2     1 MOL    -0.5445
     13 O         -11.5271  -46.8895   15.0894 O.co2     1 MOL    -0.5445
     14 H         -15.8295  -45.7492   14.2203 H         1 MOL     0.0342
     15 H         -15.8712  -46.9133   15.5974 H         1 MOL     0.0342
     16 H         -14.7042  -47.1651   14.2449 H         1 MOL     0.0342
     17 H         -14.1721  -45.3393   19.0055 H         1 MOL     0.0654
     18 H         -12.5493  -44.2914   20.5532 H         1 MOL     0.0619
     19 H         -10.1755  -44.0578   19.8875 H         1 MOL     0.0618
     20 H          -9.4253  -44.8852   17.6885 H         1 MOL     0.0625
@<TRIPOS>BOND
     1    1    2 1 
     2    1   14 1 
     3    1   15 1 
     4    1   16 1 
     5    2   10 2 
     6    2   11 1 
     7    3    4 ar
     8    3    8 ar
     9    3   11 1 
    10    4    5 ar
    11    4   17 1 
    12    5    6 ar
    13    5   18 1 
    14    6    7 ar
    15    6   19 1 
    16    7    8 ar
    17    7   20 1 
    18    8    9 1 
    19    9   12 ar
    20    9   13 ar
@<TRIPOS>SUBSTRUCTURE
1 MOL         1
@<TRIPOS>MOLECULE
query molecule
   20    20     1     0     0
SMALL
NO_CHARGE

@<TRIPOS>ATOM
      1 C         -22.7061  -49.8005  -17.7952 C.3       1 MOL     0.1362
      2 C         -22.1456  -50.0713  -16.4005 C.2       1 MOL     0.3092
      3 C         -20.0695  -50.4244  -15.3416 C.ar      1 MOL     0.1404
      4 C         -19.7153  -51.7572  -15.0473 C.ar      1 MOL     0.0468
      5 C         -19.0765  -52.0755  -13.8474 C.ar      1 MOL     0.0037
      6 C         -18.7698  -51.0622  -12.9399 C.ar      1 MOL     0.0009
      7 C         -19.0673  -49.7358  -13.2530 C.ar      1 MOL     0.0131
      8 C         -19.6937  -49.3914  -14.4668 C.ar      1 MOL     0.0397
      9 C         -19.8802  -47.9100  -14.7577 C.2       1 MOL     0.0752
     10 O         -22.8351  -50.1574  -15.3969 O.2       1 MOL    -0.2507
     11 O         -20.8168  -50.1695  -16.4815 O.3       1 MOL    -0.4254
     12 O         -19.6491  -47.1164  -13.7990 O.co2     1 MOL    -0.5445
     13 O         -20.2041  -47.5670  -15.9280 O.co2     1 MOL    -0.5445
     14 H         -23.8125  -49.7056  -17.7475 H         1 MOL     0.0342
     15 H         -22.4515  -50.6314  -18.4835 H         1 MOL     0.0342
     16 H         -22.2868  -48.8559  -18.1972 H         1 MOL     0.0342
     17 H         -19.9441  -52.5459  -15.7506 H         1 MOL     0.0654
     18 H         -18.8217  -53.1005  -13.6273 H         1 MOL     0.0619
     19 H         -18.3088  -51.3124  -11.9967 H         1 MOL     0.0618
     20 H         -18.8051  -48.9600  -12.5488 H         1 MOL     0.0625
@<TRIPOS>BOND
     1    1    2 1 
     2    1   14 1 
     3    1   15 1 
     4    1   16 1 
     5    2   10 2 
     6    2   11 1 
     7    3    4 ar
     8    3    8 ar
     9    3   11 1 
    10    4    5 ar
    11    4   17 1 
    12    5    6 ar
    13    5   18 1 
    14    6    7 ar
    15    6   19 1 
    16    7    8 ar
    17    7   20 1 
    18    8    9 1 
    19    9   12 ar
    20    9   13 ar
@<TRIPOS>SUBSTRUCTURE
1 MOL         1
@<TRIPOS>MOLECULE
query molecule
   20    20     1     0     0
SMALL
NO_CHARGE

@<TRIPOS>ATOM
      1 C         -67.8774  -73.3934    5.5317 C.3       1 MOL     0.1362
      2 C         -67.9002  -72.2670    4.4958 C.2       1 MOL     0.3092
      3 C         -68.9702  -71.8955    2.4060 C.ar      1 MOL     0.1404
      4 C         -70.0369  -71.0007    2.6553 C.ar      1 MOL     0.0468
      5 C         -70.5487  -70.1950    1.6359 C.ar      1 MOL     0.0037
      6 C         -69.9946  -70.2583    0.3597 C.ar      1 MOL     0.0009
      7 C         -68.9369  -71.1296    0.1073 C.ar      1 MOL     0.0131
      8 C         -68.4104  -71.9673    1.1182 C.ar      1 MOL     0.0397
      9 C         -67.2961  -72.9099    0.6871 C.2       1 MOL     0.0752
     10 O         -67.4305  -71.1571    4.6818 O.2       1 MOL    -0.2507
     11 O         -68.5433  -72.6989    3.4372 O.3       1 MOL    -0.4254
     12 O         -66.8829  -72.7944   -0.5142 O.co2     1 MOL    -0.5445
     13 O         -66.8782  -73.7578    1.5317 O.co2     1 MOL    -0.5445
     14 H         -67.4491  -73.0264    6.4881 H         1 MOL     0.0342
     15 H         -67.2688  -74.2458    5.1680 H         1 MOL     0.0342
     16 H         -68.9106  -73.7503    5.7292 H         1 MOL     0.0342
     17 H         -70.4718  -70.9472    3.6411 H         1 MOL     0.0654
     18 H         -71.3710  -69.5235    1.8325 H         1 MOL     0.0619
     19 H         -70.3825  -69.6325   -0.4307 H         1 MOL     0.0618
     20 H         -68.5198  -71.1691   -0.8923 H         1 MOL     0.0625
@<TRIPOS>BOND
     1    1    2 1 
     2    1   14 1 
     3    1   15 1 
     4    1   16 1 
     5    2   10 2 
     6    2   11 1 
     7    3    4 ar
     8    3    8 ar
     9    3   11 1 
    10    4    5 ar
    11    4   17 1 
    12    5    6 ar
    13    5   18 1 
    14    6    7 ar
    15    6   19 1 
    16    7    8 ar
    17    7   20 1 
    18    8    9 1 
    19    9   12 ar
    20    9   13 ar
@<TRIPOS>SUBSTRUCTURE
1 MOL         1
@<TRIPOS>MOLECULE
query molecule
   20    20     1     0     0
SMALL
NO_CHARGE

@<TRIPOS>ATOM
      1 C         -26.9710  -71.6131  -11.7276 C.3       1 MOL     0.1362
      2 C         -26.0706  -71.5508  -10.5068 C.2       1 MOL     0.3092
      3 C         -24.7691  -73.0255   -9.2027 C.ar      1 MOL     0.1404
      4 C         -25.2717  -73.0518   -7.8878 C.ar      1 MOL     0.0468
      5 C         -24.4292  -73.3107   -6.8066 C.ar      1 MOL     0.0037
      6 C         -23.0737  -73.5491   -7.0267 C.ar      1 MOL     0.0009
      7 C         -22.5714  -73.5380   -8.3270 C.ar      1 MOL     0.0131
      8 C         -23.4079  -73.2783   -9.4325 C.ar      1 MOL     0.0397
      9 C         -22.7627  -73.3021  -10.8073 C.2       1 MOL     0.0752
     10 O         -25.8207  -70.5303   -9.8723 O.2       1 MOL    -0.2507
     11 O         -25.6479  -72.7734  -10.2479 O.3       1 MOL    -0.4254
     12 O         -21.5247  -73.5857  -10.8347 O.co2     1 MOL    -0.5445
     13 O         -23.4865  -73.0354  -11.8108 O.co2     1 MOL    -0.5445
     14 H         -27.2497  -70.5909  -12.0550 H         1 MOL     0.0342
     15 H         -27.8977  -72.1720  -11.4805 H         1 MOL     0.0342
     16 H         -26.4587  -72.1321  -12.5666 H         1 MOL     0.0342
     17 H         -26.3221  -72.8683   -7.7160 H         1 MOL     0.0654
     18 H         -24.8260  -73.3274   -5.8024 H         1 MOL     0.0619
     19 H         -22.4151  -73.7459   -6.1942 H         1 MOL     0.0618
     20 H         -21.5202  -73.7368   -8.4910 H         1 MOL     0.0625
@<TRIPOS>BOND
     1    1    2 1 
     2    1   14 1 
     3    1   15 1 
     4    1   16 1 
     5    2   10 2 
     6    2   11 1 
     7    3    4 ar
     8    3    8 ar
     9    3   11 1 
    10    4    5 ar
    11    4   17 1 
    12    5    6 ar
    13    5   18 1 
    14    6    7 ar
    15    6   19 1 
    16    7    8 ar
    17    7   20 1 
    18    8    9 1 
    19    9   12 ar
    20    9   13 ar
@<TRIPOS>SUBSTRUCTURE
1 MOL         1
@<TRIPOS>MOLECULE
query molecule
   20    20     1     0     0
SMALL
NO_CHARGE

@<TRIPOS>ATOM
      1 C         -74.2718  -41.0064    0.3877 C.3       1 MOL     0.1362
      2 C         -73.5161  -39.8782    1.0781 C.2       1 MOL     0.3092
      3 C         -71.5034  -39.6282    2.2842 C.ar      1 MOL     0.1404
      4 C         -71.7023  -39.2236    3.6169 C.ar      1 MOL     0.0468
      5 C         -70.7397  -38.4672    4.2841 C.ar      1 MOL     0.0037
      6 C         -69.5661  -38.1025    3.6256 C.ar      1 MOL     0.0009
      7 C         -69.3606  -38.5001    2.3045 C.ar      1 MOL     0.0131
      8 C         -70.3242  -39.2628    1.6112 C.ar      1 MOL     0.0397
      9 C         -70.0095  -39.6555    0.1766 C.2       1 MOL     0.0752
     10 O         -73.8438  -38.7088    1.0537 O.2       1 MOL    -0.2507
     11 O         -72.4653  -40.4059    1.6714 O.3       1 MOL    -0.4254
     12 O         -68.8852  -39.2710   -0.2690 O.co2     1 MOL    -0.5445
     13 O         -70.8486  -40.3691   -0.4532 O.co2     1 MOL    -0.5445
     14 H         -75.1821  -40.6165   -0.1097 H         1 MOL     0.0342
     15 H         -74.5617  -41.7707    1.1366 H         1 MOL     0.0342
     16 H         -73.6166  -41.4815   -0.3720 H         1 MOL     0.0342
     17 H         -72.6124  -39.5046    4.1287 H         1 MOL     0.0654
     18 H         -70.9031  -38.1659    5.3085 H         1 MOL     0.0619
     19 H         -68.8198  -37.5141    4.1396 H         1 MOL     0.0618
     20 H         -68.4407  -38.2198    1.8071 H         1 MOL     0.0625
@<TRIPOS>BOND
     1    1    2 1 
     2    1   14 1 
     3    1   15 1 
     4    1   16 1 
     5    2   10 2 
     6    2   11 1 
     7    3    4 ar
     8    3    8 ar
     9    3   11 1 
    10    4    5 ar
    11    4   17 1 
    12    5    6 ar
    13    5   18 1 
    14    6    7 ar
    15    6   19 1 
    16    7    8 ar
    17    7   20 1 
    18    8    9 1 
    19    9   12 ar
    20    9   13 ar
@<TRIPOS>SUBSTRUCTURE
1 MOL         1
@<TRIPOS>MOLECULE
query molecule
   20    20     1     0     0
SMALL
NO_CHARGE

@<TRIPOS>ATOM
      1 C         -58.7067  -34.9464  -16.8940 C.3       1 MOL     0.1362
      2 C         -59.8948  -35.8394  -17.2112 C.2       1 MOL     0.3092
      3 C         -62.0419  -36.2456  -16.3223 C.ar      1 MOL     0.1404
      4 C         -62.2069  -37.5289  -15.7708 C.ar      1 MOL     0.0468
      5 C         -63.4387  -38.1769  -15.8088 C.ar      1 MOL     0.0037
      6 C         -64.5269  -37.5471  -16.4096 C.ar      1 MOL     0.0009
      7 C         -64.3771  -36.2710  -16.9525 C.ar      1 MOL     0.0131
      8 C         -63.1416  -35.5924  -16.9005 C.ar      1 MOL     0.0397
      9 C         -63.0917  -34.1865  -17.4743 C.2       1 MOL     0.0752
     10 O         -59.9580  -36.5756  -18.1786 O.2       1 MOL    -0.2507
     11 O         -60.8014  -35.6535  -16.2796 O.3       1 MOL    -0.4254
     12 O         -64.1609  -33.7758  -18.0250 O.co2     1 MOL    -0.5445
     13 O         -62.0163  -33.5278  -17.3584 O.co2     1 MOL    -0.5445
     14 H         -57.7996  -35.3323  -17.4034 H         1 MOL     0.0342
     15 H         -58.5251  -34.9261  -15.8007 H         1 MOL     0.0342
     16 H         -58.9020  -33.9128  -17.2457 H         1 MOL     0.0342
     17 H         -61.3604  -38.0224  -15.3129 H         1 MOL     0.0654
     18 H         -63.5487  -39.1611  -15.3793 H         1 MOL     0.0619
     19 H         -65.4847  -38.0437  -16.4522 H         1 MOL     0.0618
     20 H         -65.2266  -35.7889  -17.4183 H         1 MOL     0.0625
@<TRIPOS>BOND
     1    1    2 1 
     2    1   14 1 
     3    1   15 1 
     4    1   16 1 
     5    2   10 2 
     6    2   11 1 
     7    3    4 ar
     8    3    8 ar
     9    3   11 1 
    10    4    5 ar
    11    4   17 1 
    12    5    6 ar
    13    5   18 1 
    14    6    7 ar
    15    6   19 1 
    16    7    8 ar
    17    7   20 1 
    18    8    9 1 
    19    9   12 ar
    20    9   13 ar
@<TRIPOS>SUBSTRUCTURE
1 MOL         1
@<TRIPOS>MOLECULE
query molecule
   20    20     1     0     0
SMALL
NO_CHARGE

@<TRIPOS>ATOM
      1 C         -62.0423  -64.1721   17.0705 C.3       1 MOL     0.1362
      2 C         -60.6627  -64.3992   17.6910 C.2       1 MOL     0.3092
      3 C         -59.7423  -65.7487   19.4126 C.ar      1 MOL     0.1404
      4 C         -59.1423  -66.9700   19.0296 C.ar      1 MOL     0.0468
      5 C         -58.1071  -67.5285   19.7794 C.ar      1 MOL     0.0037
      6 C         -57.6451  -66.8709   20.9167 C.ar      1 MOL     0.0009
      7 C         -58.2231  -65.6617   21.2959 C.ar      1 MOL     0.0131
      8 C         -59.2843  -65.0852   20.5623 C.ar      1 MOL     0.0397
      9 C         -59.8596  -63.7946   21.1225 C.2       1 MOL     0.0752
     10 O         -59.6399  -63.8566   17.3078 O.2       1 MOL    -0.2507
     11 O         -60.7855  -65.2688   18.6603 O.3       1 MOL    -0.4254
     12 O         -59.2397  -63.2806   22.1069 O.co2     1 MOL    -0.5445
     13 O         -60.9170  -63.3408   20.5950 O.co2     1 MOL    -0.5445
     14 H         -61.9606  -63.5230   16.1732 H         1 MOL     0.0342
     15 H         -62.7284  -63.6921   17.7986 H         1 MOL     0.0342
     16 H         -62.4796  -65.1439   16.7568 H         1 MOL     0.0342
     17 H         -59.4923  -67.4863   18.1455 H         1 MOL     0.0654
     18 H         -57.6633  -68.4684   19.4841 H         1 MOL     0.0619
     19 H         -56.8436  -67.2974   21.5010 H         1 MOL     0.0618
     20 H         -57.8575  -65.1659   22.1867 H         1 MOL     0.0625
@<TRIPOS>BOND
     1    1    2 1 
     2    1   14 1 
     3    1   15 1 
     4    1   16 1 
     5    2   10 2 
     6    2   11 1 
     7    3    4 ar
     8    3    8 ar
     9    3   11 1 
    10    4    5 ar
    11    4   17 1 
    12    5    6 ar
    13    5   18 1 
    14    6    7 ar
    15    6   19 1 
    16    7    8 ar
    17    7   20 1 
    18    8    9 1 
    19    9   12 ar
    20    9   13 ar
@<TRIPOS>SUBSTRUCTURE
1 MOL         1
@<TRIPOS>MOLECULE
query molecule
   20    20     1     0     0
SMALL
NO_CHARGE

@<TRIPOS>ATOM
      1 C         -13.8340  -45.2717   20.1839 C.3       1 MOL     0.1362
      2 C         -13.8812  -45.6394   21.6685 C.2       1 MOL     0.3092
      3 C         -14.5833  -47.5244   22.9357 C.ar      1 MOL     0.1404
      4 C         -13.4661  -48.3371   23.2370 C.ar      1 MOL     0.0468
      5 C         -13.4664  -49.1685   24.3590 C.ar      1 MOL     0.0037
      6 C         -14.5727  -49.1889   25.2043 C.ar      1 MOL     0.0009
      7 C         -15.6748  -48.3838   24.9218 C.ar      1 MOL     0.0131
      8 C         -15.7055  -47.5441   23.7835 C.ar      1 MOL     0.0397
      9 C         -16.9949  -46.7657   23.5668 C.2       1 MOL     0.0752
     10 O         -13.3400  -44.9935   22.5506 O.2       1 MOL    -0.2507
     11 O         -14.5440  -46.7650   21.7900 O.3       1 MOL    -0.4254
     12 O         -17.8764  -46.8533   24.4849 O.co2     1 MOL    -0.5445
     13 O         -17.1177  -46.1131   22.4868 O.co2     1 MOL    -0.5445
     14 H         -13.1775  -44.3902   20.0276 H         1 MOL     0.0342
     15 H         -14.8504  -45.0350   19.8083 H         1 MOL     0.0342
     16 H         -13.4234  -46.1186   19.5941 H         1 MOL     0.0342
     17 H         -12.6062  -48.3273   22.5854 H         1 MOL     0.0654
     18 H         -12.6134  -49.7943   24.5739 H         1 MOL     0.0619
     19 H         -14.5754  -49.8249   26.0774 H         1 MOL     0.0618
     20 H         -16.5287  -48.4146   25.5882 H         1 MOL     0.0625
@<TRIPOS>BOND
     1    1    2 1 
     2    1   14 1 
     3    1   15 1 
     4    1   16 1 
     5    2   10 2 
     6    2   11 1 
     7    3    4 ar
     8    3    8 ar
     9    3   11 1 
    10    4    5 ar
    11    4   17 1 
    12    5    6 ar
    13    5   18 1 
    14    6    7 ar
    15    6   19 1 
    16    7    8 ar
    17    7   20 1 
    18    8    9 1 
    19    9   12 ar
    20    9   13 ar
@<TRIPOS>SUBSTRUCTURE
1 MOL         1
@<TRIPOS>MOLECULE
query molecule
   20    20     1     0     0
SMALL
NO_CHARGE

@<TRIPOS>ATOM
      1 C         -66.3946  -53.7741   24.0709 C.3       1 MOL     0.1362
      2 C         -65.1243  -52.9411   24.2176 C.2       1 MOL     0.3092
      3 C         -63.0927  -52.9831   25.4094 C.ar      1 MOL     0.1404
      4 C         -62.9317  -51.9832   26.3850 C.ar      1 MOL     0.0468
      5 C         -61.7013  -51.3653   26.5787 C.ar      1 MOL     0.0037
      6 C         -60.6063  -51.7508   25.7871 C.ar      1 MOL     0.0009
      7 C         -60.7449  -52.7818   24.8559 C.ar      1 MOL     0.0131
      8 C         -61.9803  -53.4377   24.6819 C.ar      1 MOL     0.0397
      9 C         -62.0169  -54.6175   23.7240 C.2       1 MOL     0.0752
     10 O         -64.8649  -51.9631   23.5350 O.2       1 MOL    -0.2507
     11 O         -64.3606  -53.4865   25.1656 O.3       1 MOL    -0.4254
     12 O         -61.0955  -54.6589   22.8544 O.co2     1 MOL    -0.5445
     13 O         -62.9549  -55.4576   23.8374 O.co2     1 MOL    -0.5445
     14 H         -67.0381  -53.3502   23.2716 H         1 MOL     0.0342
     15 H         -66.9637  -53.7794   25.0219 H         1 MOL     0.0342
     16 H         -66.1364  -54.8189   23.7999 H         1 MOL     0.0342
     17 H         -63.7647  -51.6767   26.9970 H         1 MOL     0.0654
     18 H         -61.5705  -50.5904   27.3185 H         1 MOL     0.0619
     19 H         -59.6498  -51.2580   25.8989 H         1 MOL     0.0618
     20 H         -59.8954  -53.0873   24.2656 H         1 MOL     0.0625
@<TRIPOS>BOND
     1    1    2 1 
     2    1   14 1 
     3    1   15 1 
     4    1   16 1 
     5    2   10 2 
     6    2   11 1 
     7    3    4 ar
     8    3    8 ar
     9    3   11 1 
    10    4    5 ar
    11    4   17 1 
    12    5    6 ar
    13    5   18 1 
    14    6    7 ar
    15    6   19 1 
    16    7    8 ar
    17    7   20 1 
    18    8    9 1 
    19    9   12 ar
    20    9   13 ar
@<TRIPOS>SUBSTRUCTURE
1 MOL         1
@<TRIPOS>MOLECULE
query molecule
   20    20     1     0     0
SMALL
NO_CHARGE

@<TRIPOS>ATOM
      1 C         -55.7926  -81.8139    1.1496 C.3       1 MOL     0.1362
      2 C         -54.4113  -81.3054    1.5364 C.2       1 MOL     0.3092
      3 C         -52.4157  -82.1182    2.4906 C.ar      1 MOL     0.1404
      4 C         -51.3631  -82.6265    1.7004 C.ar      1 MOL     0.0468
      5 C         -50.0366  -82.4117    2.0688 C.ar      1 MOL     0.0037
      6 C         -49.7472  -81.6836    3.2228 C.ar      1 MOL     0.0009
      7 C         -50.7867  -81.1866    4.0132 C.ar      1 MOL     0.0131
      8 C         -52.1373  -81.4188    3.6822 C.ar      1 MOL     0.0397
      9 C         -53.2019  -80.9079    4.6470 C.2       1 MOL     0.0752
     10 O         -54.0431  -80.1489    1.4098 O.2       1 MOL    -0.2507
     11 O         -53.7200  -82.3112    2.0632 O.3       1 MOL    -0.4254
     12 O         -52.8033  -80.1700    5.6011 O.co2     1 MOL    -0.5445
     13 O         -54.4058  -81.2455    4.4407 O.co2     1 MOL    -0.5445
     14 H         -56.3817  -80.9819    0.7118 H         1 MOL     0.0342
     15 H         -56.3257  -82.2011    2.0426 H         1 MOL     0.0342
     16 H         -55.7016  -82.6255    0.4010 H         1 MOL     0.0342
     17 H         -51.5908  -83.1836    0.8033 H         1 MOL     0.0654
     18 H         -49.2395  -82.8069    1.4573 H         1 MOL     0.0619
     19 H         -48.7174  -81.5119    3.5028 H         1 MOL     0.0618
     20 H         -50.5450  -80.6219    4.9043 H         1 MOL     0.0625
@<TRIPOS>BOND
     1    1    2 1 
     2    1   14 1 
     3    1   15 1 
     4    1   16 1 
     5    2   10 2 
     6    2   11 1 
     7    3    4 ar
     8    3    8 ar
     9    3   11 1 
    10    4    5 ar
    11    4   17 1 
    12    5    6 ar
    13    5   18 1 
    14    6    7 ar
    15    6   19 1 
    16    7    8 ar
    17    7   20 1 
    18    8    9 1 
    19    9   12 ar
    20    9   13 ar
@<TRIPOS>SUBSTRUCTURE
1 MOL         1
@<TRIPOS>MOLECULE
query molecule
   20    20     1     0     0
SMALL
NO_CHARGE

@<TRIPOS>ATOM
      1 C         -39.7289  -77.9132   15.0151 C.3       1 MOL     0.1362
      2 C         -38.9342  -77.4484   16.2371 C.2       1 MOL     0.3092
      3 C         -36.6987  -77.3002   16.9632 C.ar      1 MOL     0.1404
      4 C         -36.3742  -78.3069   17.8916 C.ar      1 MOL     0.0468
      5 C         -35.5469  -78.0286   18.9808 C.ar      1 MOL     0.0037
      6 C         -35.0361  -76.7395   19.1495 C.ar      1 MOL     0.0009
      7 C         -35.3276  -75.7398   18.2144 C.ar      1 MOL     0.0131
      8 C         -36.1324  -76.0243   17.0891 C.ar      1 MOL     0.0397
      9 C         -36.3089  -74.9248   16.0574 C.2       1 MOL     0.0752
     10 O         -39.4351  -77.0544   17.2646 O.2       1 MOL    -0.2507
     11 O         -37.6216  -77.5758   15.9632 O.3       1 MOL    -0.4254
     12 O         -36.3345  -75.2818   14.8196 O.co2     1 MOL    -0.5445
     13 O         -36.3449  -73.7568   16.4873 O.co2     1 MOL    -0.5445
     14 H         -40.8173  -77.8195   15.2127 H         1 MOL     0.0342
     15 H         -39.5019  -78.9757   14.7926 H         1 MOL     0.0342
     16 H         -39.4683  -77.2945   14.1344 H         1 MOL     0.0342
     17 H         -36.7806  -79.3015   17.7723 H         1 MOL     0.0654
     18 H         -35.3084  -78.8080   19.6918 H         1 MOL     0.0619
     19 H         -34.4073  -76.5243   20.0021 H         1 MOL     0.0618
     20 H         -34.8981  -74.7556   18.3437 H         1 MOL     0.0625
@<TRIPOS>BOND
     1    1    2 1 
     2    1   14 1 
     3    1   15 1 
     4    1   16 1 
     5    2   10 2 
     6    2   11 1 
     7    3    4 ar
     8    3    8 ar
     9    3   11 1 
    10    4    5 ar
    11    4   17 1 
    12    5    6 ar
    13    5   18 1 
    14    6    7 ar
    15    6   19 1 
    16    7    8 ar
    17    7   20 1 
    18    8    9 1 
    19    9   12 ar
    20    9   13 ar
@<TRIPOS>SUBSTRUCTURE
1 MOL         1
