@<TRIPOS>MOLECULE
query molecule
   20    20     1     0     0
SMALL
NO_CHARGE

@<TRIPOS>ATOM
      1 C         -21.9229  -73.6039   13.2260 C.3       1 MOL     0.1362
      2 C         -21.8307  -72.1687   12.7059 C.2       1 MOL     0.3092
      3 C         -21.9240  -71.2312   10.5357 C.ar      1 MOL     0.1404
      4 C         -22.6481  -70.0331   10.6056 C.ar      1 MOL     0.0468
      5 C         -22.4596  -69.0165    9.6688 C.ar      1 MOL     0.0037
      6 C         -21.5671  -69.1956    8.6200 C.ar      1 MOL     0.0009
      7 C         -20.8561  -70.3861    8.5337 C.ar      1 MOL     0.0131
      8 C         -21.0025  -71.4145    9.4841 C.ar      1 MOL     0.0397
      9 C         -20.1272  -72.6438    9.3037 C.2       1 MOL     0.0752
     10 O         -21.5154  -71.2139   13.3823 O.2       1 MOL    -0.2507
     11 O         -22.1327  -72.2094   11.4567 O.3       1 MOL    -0.4254
     12 O         -19.3718  -72.6565    8.2793 O.co2     1 MOL    -0.5445
     13 O         -20.2027  -73.5527   10.1811 O.co2     1 MOL    -0.5445
     14 H         -21.4530  -73.6826   14.2268 H         1 MOL     0.0342
     15 H         -21.3937  -74.2888   12.5286 H         1 MOL     0.0342
     16 H         -22.9823  -73.9187   13.2964 H         1 MOL     0.0342
     17 H         -23.3628  -69.8915   11.4048 H         1 MOL     0.0654
     18 H         -23.0140  -68.0934    9.7526 H         1 MOL     0.0619
     19 H         -21.4255  -68.4213    7.8835 H         1 MOL     0.0618
     20 H         -20.1663  -70.5272    7.7107 H         1 MOL     0.0625
@<TRIPOS>BOND
     1    1    2 1 
     2    1   14 1 
     3    1   15 1 
     4    1   16 1 
     5    2   10 2 
     6    2   11 1 
     7    3    4 ar
     8    3    8 ar
     9    3   11 1 
    10    4    5 ar
    11    4   17 1 
    12    5    6 ar
    13    5   18 1 
    14    6    7 ar
    15    6   19 1 
    16    7    8 ar
    17    7   20 1 
    18    8    9 1 
    19    9   12 ar
    20    9   13 ar
@<TRIPOS>SUBSTRUCTURE
1 MOL         1
@<TRIPOS>MOLECULE
query molecule
   20    20     1     0     0
SMALL
NO_CHARGE

@<TRIPOS>ATOM
      1 C         -35.1102  -63.2811    5.9680 C.3       1 MOL     0.1362
      2 C         -33.6753  -62.7967    5.8619 C.2       1 MOL     0.3092
      3 C         -31.7438  -63.3648    4.6745 C.ar      1 MOL     0.1404
      4 C         -30.6704  -63.5505    5.5626 C.ar      1 MOL     0.0468
      5 C         -29.3656  -63.2898    5.1569 C.ar      1 MOL     0.0037
      6 C         -29.1186  -62.8521    3.8620 C.ar      1 MOL     0.0009
      7 C         -30.1800  -62.6700    2.9856 C.ar      1 MOL     0.0131
      8 C         -31.5096  -62.9055    3.3698 C.ar      1 MOL     0.0397
      9 C         -32.5966  -62.6390    2.3396 C.2       1 MOL     0.0752
     10 O         -33.2355  -61.7911    6.3886 O.2       1 MOL    -0.2507
     11 O         -33.0212  -63.6515    5.1038 O.3       1 MOL    -0.4254
     12 O         -33.7966  -62.8955    2.6571 O.co2     1 MOL    -0.5445
     13 O         -32.2136  -62.1594    1.2248 O.co2     1 MOL    -0.5445
     14 H         -35.5240  -63.0453    6.9698 H         1 MOL     0.0342
     15 H         -35.1449  -64.3789    5.8158 H         1 MOL     0.0342
     16 H         -35.7359  -62.7905    5.1947 H         1 MOL     0.0342
     17 H         -30.8477  -63.8969    6.5712 H         1 MOL     0.0654
     18 H         -28.5432  -63.4314    5.8436 H         1 MOL     0.0619
     19 H         -28.1069  -62.6536    3.5424 H         1 MOL     0.0618
     20 H         -29.9746  -62.3297    1.9781 H         1 MOL     0.0625
@<TRIPOS>BOND
     1    1    2 1 
     2    1   14 1 
     3    1   15 1 
     4    1   16 1 
     5    2   10 2 
     6    2   11 1 
     7    3    4 ar
     8    3    8 ar
     9    3   11 1 
    10    4    5 ar
    11    4   17 1 
    12    5    6 ar
    13    5   18 1 
    14    6    7 ar
    15    6   19 1 
    16    7    8 ar
    17    7   20 1 
    18    8    9 1 
    19    9   12 ar
    20    9   13 ar
@<TRIPOS>SUBSTRUCTURE
1 MOL         1
@<TRIPOS>MOLECULE
query molecule
   20    20     1     0     0
SMALL
NO_CHARGE

@<TRIPOS>ATOM
      1 C         -14.3836  -54.2250    3.6559 C.3       1 MOL     0.1362
      2 C         -13.3134  -53.5094    2.8233 C.2       1 MOL     0.3092
      3 C         -13.4753  -55.1911    1.1060 C.ar      1 MOL     0.1404
      4 C         -12.7123  -56.3460    1.3587 C.ar      1 MOL     0.0468
      5 C         -12.9665  -57.5401    0.6897 C.ar      1 MOL     0.0037
      6 C         -14.0059  -57.6035   -0.2383 C.ar      1 MOL     0.0009
      7 C         -14.8047  -56.4798   -0.4565 C.ar      1 MOL     0.0131
      8 C         -14.5736  -55.2732    0.2324 C.ar      1 MOL     0.0397
      9 C         -15.5335  -54.1215   -0.0157 C.2       1 MOL     0.0752
     10 O         -12.7225  -52.5244    3.2443 O.2       1 MOL    -0.2507
     11 O         -13.0953  -54.0186    1.6586 O.3       1 MOL    -0.4254
     12 O         -15.3492  -53.0742    0.6726 O.co2     1 MOL    -0.5445
     13 O         -16.4227  -54.2796   -0.9063 O.co2     1 MOL    -0.5445
     14 H         -14.1317  -54.1215    4.7336 H         1 MOL     0.0342
     15 H         -14.4220  -55.3094    3.4010 H         1 MOL     0.0342
     16 H         -15.3752  -53.7712    3.4764 H         1 MOL     0.0342
     17 H         -11.8920  -56.2965    2.0591 H         1 MOL     0.0654
     18 H         -12.3553  -58.4114    0.8809 H         1 MOL     0.0619
     19 H         -14.2062  -58.5279   -0.7626 H         1 MOL     0.0618
     20 H         -15.6204  -56.5451   -1.1663 H         1 MOL     0.0625
@<TRIPOS>BOND
     1    1    2 1 
     2    1   14 1 
     3    1   15 1 
     4    1   16 1 
     5    2   10 2 
     6    2   11 1 
     7    3    4 ar
     8    3    8 ar
     9    3   11 1 
    10    4    5 ar
    11    4   17 1 
    12    5    6 ar
    13    5   18 1 
    14    6    7 ar
    15    6   19 1 
    16    7    8 ar
    17    7   20 1 
    18    8    9 1 
    19    9   12 ar
    20    9   13 ar
@<TRIPOS>SUBSTRUCTURE
1 MOL         1
@<TRIPOS>MOLECULE
query molecule
   20    20     1     0     0
SMALL
NO_CHARGE

@<TRIPOS>ATOM
      1 C         -25.7127  -41.9857   -8.2964 C.3       1 MOL     0.1362
      2 C         -24.9174  -42.5389   -9.4690 C.2       1 MOL     0.3092
      3 C         -23.6197  -44.4187  -10.0626 C.ar      1 MOL     0.1404
      4 C         -22.3045  -43.9500  -10.2804 C.ar      1 MOL     0.0468
      5 C         -21.4612  -44.5782  -11.1947 C.ar      1 MOL     0.0037
      6 C         -21.9151  -45.6878  -11.9017 C.ar      1 MOL     0.0009
      7 C         -23.2101  -46.1503  -11.6985 C.ar      1 MOL     0.0131
      8 C         -24.0761  -45.5323  -10.7742 C.ar      1 MOL     0.0397
      9 C         -25.4363  -46.1705  -10.6389 C.2       1 MOL     0.0752
     10 O         -24.7769  -41.9336  -10.5195 O.2       1 MOL    -0.2507
     11 O         -24.4301  -43.7439   -9.1618 O.3       1 MOL    -0.4254
     12 O         -25.8291  -46.8395  -11.6395 O.co2     1 MOL    -0.5445
     13 O         -26.0811  -46.0229   -9.5586 O.co2     1 MOL    -0.5445
     14 H         -25.8756  -40.8958   -8.4230 H         1 MOL     0.0342
     15 H         -25.1649  -42.1613   -7.3485 H         1 MOL     0.0342
     16 H         -26.6970  -42.4936   -8.2438 H         1 MOL     0.0342
     17 H         -21.9450  -43.0842   -9.7410 H         1 MOL     0.0654
     18 H         -20.4604  -44.2078  -11.3585 H         1 MOL     0.0619
     19 H         -21.2677  -46.1885  -12.6054 H         1 MOL     0.0618
     20 H         -23.5579  -47.0137  -12.2499 H         1 MOL     0.0625
@<TRIPOS>BOND
     1    1    2 1 
     2    1   14 1 
     3    1   15 1 
     4    1   16 1 
     5    2   10 2 
     6    2   11 1 
     7    3    4 ar
     8    3    8 ar
     9    3   11 1 
    10    4    5 ar
    11    4   17 1 
    12    5    6 ar
    13    5   18 1 
    14    6    7 ar
    15    6   19 1 
    16    7    8 ar
    17    7   20 1 
    18    8    9 1 
    19    9   12 ar
    20    9   13 ar
@<TRIPOS>SUBSTRUCTURE
1 MOL         1
@<TRIPOS>MOLECULE
query molecule
   20    20     1     0     0
SMALL
NO_CHARGE

@<TRIPOS>ATOM
      1 C         -61.2439  -45.5762   14.2348 C.3       1 MOL     0.1362
      2 C         -62.3008  -46.6484   13.9953 C.2       1 MOL     0.3092
      3 C         -64.6420  -46.8706   14.1859 C.ar      1 MOL     0.1404
      4 C         -65.3008  -46.5340   12.9833 C.ar      1 MOL     0.0468
      5 C         -66.4696  -47.1816   12.5994 C.ar      1 MOL     0.0037
      6 C         -67.0005  -48.1767   13.4175 C.ar      1 MOL     0.0009
      7 C         -66.3634  -48.5122   14.6154 C.ar      1 MOL     0.0131
      8 C         -65.1815  -47.8577   15.0251 C.ar      1 MOL     0.0397
      9 C         -64.5804  -48.2907   16.3478 C.2       1 MOL     0.0752
     10 O         -62.0870  -47.7098   13.4292 O.2       1 MOL    -0.2507
     11 O         -63.4614  -46.2148   14.4706 O.3       1 MOL    -0.4254
     12 O         -64.9691  -49.3856   16.8605 O.co2     1 MOL    -0.5445
     13 O         -63.7100  -47.5230   16.8552 O.co2     1 MOL    -0.5445
     14 H         -60.2557  -45.9249   13.8702 H         1 MOL     0.0342
     15 H         -61.1759  -45.3299   15.3120 H         1 MOL     0.0342
     16 H         -61.5177  -44.6577   13.6710 H         1 MOL     0.0342
     17 H         -64.8847  -45.7653   12.3465 H         1 MOL     0.0654
     18 H         -66.9588  -46.9112   11.6757 H         1 MOL     0.0619
     19 H         -67.9084  -48.6793   13.1198 H         1 MOL     0.0618
     20 H         -66.7958  -49.2860   15.2367 H         1 MOL     0.0625
@<TRIPOS>BOND
     1    1    2 1 
     2    1   14 1 
     3    1   15 1 
     4    1   16 1 
     5    2   10 2 
     6    2   11 1 
     7    3    4 ar
     8    3    8 ar
     9    3   11 1 
    10    4    5 ar
    11    4   17 1 
    12    5    6 ar
    13    5   18 1 
    14    6    7 ar
    15    6   19 1 
    16    7    8 ar
    17    7   20 1 
    18    8    9 1 
    19    9   12 ar
    20    9   13 ar
@<TRIPOS>SUBSTRUCTURE
1 MOL         1
@<TRIPOS>MOLECULE
query molecule
   20    20     1     0     0
SMALL
NO_CHARGE

@<TRIPOS>ATOM
      1 C         -42.5517  -31.4175   -2.9396 C.3       1 MOL     0.1362
      2 C         -41.6208  -31.7155   -4.1157 C.2       1 MOL     0.3092
      3 C         -41.9993  -32.5760   -6.2946 C.ar      1 MOL     0.1404
      4 C         -40.7234  -32.8993   -6.7619 C.ar      1 MOL     0.0468
      5 C         -40.4452  -32.9412   -8.1256 C.ar      1 MOL     0.0037
      6 C         -41.4441  -32.6710   -9.0498 C.ar      1 MOL     0.0009
      7 C         -42.7242  -32.3695   -8.6013 C.ar      1 MOL     0.0131
      8 C         -43.0319  -32.3482   -7.2298 C.ar      1 MOL     0.0397
      9 C         -44.4904  -32.1506   -6.8626 C.2       1 MOL     0.0752
     10 O         -40.5024  -31.2418   -4.2276 O.2       1 MOL    -0.2507
     11 O         -42.2550  -32.4980   -4.9480 O.3       1 MOL    -0.4254
     12 O         -44.8000  -32.1532   -5.6341 O.co2     1 MOL    -0.5445
     13 O         -45.3180  -32.1044   -7.8226 O.co2     1 MOL    -0.5445
     14 H         -41.9682  -31.0437   -2.0752 H         1 MOL     0.0342
     15 H         -43.0894  -32.3393   -2.6429 H         1 MOL     0.0342
     16 H         -43.2985  -30.6452   -3.2278 H         1 MOL     0.0342
     17 H         -39.9362  -33.1020   -6.0497 H         1 MOL     0.0654
     18 H         -39.4466  -33.1850   -8.4609 H         1 MOL     0.0619
     19 H         -41.2310  -32.7016  -10.1064 H         1 MOL     0.0618
     20 H         -43.5036  -32.1543   -9.3191 H         1 MOL     0.0625
@<TRIPOS>BOND
     1    1    2 1 
     2    1   14 1 
     3    1   15 1 
     4    1   16 1 
     5    2   10 2 
     6    2   11 1 
     7    3    4 ar
     8    3    8 ar
     9    3   11 1 
    10    4    5 ar
    11    4   17 1 
    12    5    6 ar
    13    5   18 1 
    14    6    7 ar
    15    6   19 1 
    16    7    8 ar
    17    7   20 1 
    18    8    9 1 
    19    9   12 ar
    20    9   13 ar
@<TRIPOS>SUBSTRUCTURE
1 MOL         1
@<TRIPOS>MOLECULE
query molecule
   20    20     1     0     0
SMALL
NO_CHARGE

@<TRIPOS>ATOM
      1 C         -17.0410  -42.5670   12.7837 C.3       1 MOL     0.1362
      2 C         -15.8153  -41.8738   12.1871 C.2       1 MOL     0.3092
      3 C         -15.3261  -41.1143   10.0005 C.ar      1 MOL     0.1404
      4 C         -14.6818  -39.8696   10.0110 C.ar      1 MOL     0.0468
      5 C         -13.8297  -39.4858    8.9750 C.ar      1 MOL     0.0037
      6 C         -13.6352  -40.3277    7.8880 C.ar      1 MOL     0.0009
      7 C         -14.2818  -41.5571    7.8614 C.ar      1 MOL     0.0131
      8 C         -15.1205  -41.9832    8.9091 C.ar      1 MOL     0.0397
      9 C         -15.7250  -43.3718    8.7812 C.2       1 MOL     0.0752
     10 O         -14.7453  -41.7728   12.7469 O.2       1 MOL    -0.2507
     11 O         -16.1581  -41.4607   11.0187 O.3       1 MOL    -0.4254
     12 O         -15.4583  -44.0100    7.7126 O.co2     1 MOL    -0.5445
     13 O         -16.4338  -43.7946    9.7406 O.co2     1 MOL    -0.5445
     14 H         -16.7558  -43.1488   13.6831 H         1 MOL     0.0342
     15 H         -17.4796  -43.2610   12.0343 H         1 MOL     0.0342
     16 H         -17.8068  -41.8176   13.0638 H         1 MOL     0.0342
     17 H         -14.8437  -39.1959   10.8413 H         1 MOL     0.0654
     18 H         -13.3280  -38.5301    9.0127 H         1 MOL     0.0619
     19 H         -12.9898  -40.0334    7.0762 H         1 MOL     0.0618
     20 H         -14.1352  -42.2092    7.0091 H         1 MOL     0.0625
@<TRIPOS>BOND
     1    1    2 1 
     2    1   14 1 
     3    1   15 1 
     4    1   16 1 
     5    2   10 2 
     6    2   11 1 
     7    3    4 ar
     8    3    8 ar
     9    3   11 1 
    10    4    5 ar
    11    4   17 1 
    12    5    6 ar
    13    5   18 1 
    14    6    7 ar
    15    6   19 1 
    16    7    8 ar
    17    7   20 1 
    18    8    9 1 
    19    9   12 ar
    20    9   13 ar
@<TRIPOS>SUBSTRUCTURE
1 MOL         1
@<TRIPOS>MOLECULE
query molecule
   20    20     1     0     0
SMALL
NO_CHARGE

@<TRIPOS>ATOM
      1 C         -55.1387  -69.5870   10.1134 C.3       1 MOL     0.1362
      2 C         -53.9837  -70.0249    9.2086 C.2       1 MOL     0.3092
      3 C         -53.5071  -69.9612    6.8835 C.ar      1 MOL     0.1404
      4 C         -52.6540  -68.8727    6.5839 C.ar      1 MOL     0.0468
      5 C         -51.8095  -68.9054    5.4758 C.ar      1 MOL     0.0037
      6 C         -51.7937  -70.0285    4.6544 C.ar      1 MOL     0.0009
      7 C         -52.6233  -71.1079    4.9429 C.ar      1 MOL     0.0131
      8 C         -53.4988  -71.0921    6.0532 C.ar      1 MOL     0.0397
      9 C         -54.3889  -72.3151    6.2175 C.2       1 MOL     0.0752
     10 O         -52.9090  -70.4305    9.6177 O.2       1 MOL    -0.2507
     11 O         -54.3465  -69.8463    7.9643 O.3       1 MOL    -0.4254
     12 O         -54.1844  -73.2781    5.4111 O.co2     1 MOL    -0.5445
     13 O         -55.2815  -72.2811    7.1153 O.co2     1 MOL    -0.5445
     14 H         -54.8232  -69.6097   11.1779 H         1 MOL     0.0342
     15 H         -56.0143  -70.2520    9.9822 H         1 MOL     0.0342
     16 H         -55.4395  -68.5458    9.8645 H         1 MOL     0.0342
     17 H         -52.6596  -67.9955    7.2203 H         1 MOL     0.0654
     18 H         -51.1699  -68.0637    5.2496 H         1 MOL     0.0619
     19 H         -51.1393  -70.0615    3.7939 H         1 MOL     0.0618
     20 H         -52.6018  -71.9737    4.2911 H         1 MOL     0.0625
@<TRIPOS>BOND
     1    1    2 1 
     2    1   14 1 
     3    1   15 1 
     4    1   16 1 
     5    2   10 2 
     6    2   11 1 
     7    3    4 ar
     8    3    8 ar
     9    3   11 1 
    10    4    5 ar
    11    4   17 1 
    12    5    6 ar
    13    5   18 1 
    14    6    7 ar
    15    6   19 1 
    16    7    8 ar
    17    7   20 1 
    18    8    9 1 
    19    9   12 ar
    20    9   13 ar
@<TRIPOS>SUBSTRUCTURE
1 MOL         1
@<TRIPOS>MOLECULE
query molecule
   20    20     1     0     0
SMALL
NO_CHARGE

@<TRIPOS>ATOM
      1 C         -39.9702  -56.7991    5.5697 C.3       1 MOL     0.1362
      2 C         -40.2858  -56.3755    7.0069 C.2       1 MOL     0.3092
      3 C         -42.0004  -55.1573    8.1078 C.ar      1 MOL     0.1404
      4 C         -42.8878  -56.0239    8.7855 C.ar      1 MOL     0.0468
      5 C         -43.6024  -55.5919    9.9027 C.ar      1 MOL     0.0037
      6 C         -43.4333  -54.2912   10.3690 C.ar      1 MOL     0.0009
      7 C         -42.5558  -53.4324    9.7138 C.ar      1 MOL     0.0131
      8 C         -41.8316  -53.8423    8.5705 C.ar      1 MOL     0.0397
      9 C         -40.9527  -52.7843    7.9214 C.2       1 MOL     0.0752
     10 O         -39.6370  -56.7172    7.9819 O.2       1 MOL    -0.2507
     11 O         -41.3582  -55.6265    6.9880 O.3       1 MOL    -0.4254
     12 O         -40.8341  -51.6846    8.5504 O.co2     1 MOL    -0.5445
     13 O         -40.4286  -53.0568    6.8025 O.co2     1 MOL    -0.5445
     14 H         -39.1327  -57.5283    5.5590 H         1 MOL     0.0342
     15 H         -39.6912  -55.9216    4.9529 H         1 MOL     0.0342
     16 H         -40.8597  -57.2864    5.1172 H         1 MOL     0.0342
     17 H         -43.0232  -57.0383    8.4307 H         1 MOL     0.0654
     18 H         -44.2867  -56.2598   10.4059 H         1 MOL     0.0619
     19 H         -43.9823  -53.9508   11.2347 H         1 MOL     0.0618
     20 H         -42.4384  -52.4214   10.0861 H         1 MOL     0.0625
@<TRIPOS>BOND
     1    1    2 1 
     2    1   14 1 
     3    1   15 1 
     4    1   16 1 
     5    2   10 2 
     6    2   11 1 
     7    3    4 ar
     8    3    8 ar
     9    3   11 1 
    10    4    5 ar
    11    4   17 1 
    12    5    6 ar
    13    5   18 1 
    14    6    7 ar
    15    6   19 1 
    16    7    8 ar
    17    7   20 1 
    18    8    9 1 
    19    9   12 ar
    20    9   13 ar
@<TRIPOS>SUBSTRUCTURE
1 MOL         1
@<TRIPOS>MOLECULE
query molecule
   20    20     1     0     0
SMALL
NO_CHARGE

@<TRIPOS>ATOM
      1 C         -33.4652  -43.3729    7.8483 C.3       1 MOL     0.1362
      2 C         -33.7874  -42.9979    6.4074 C.2       1 MOL     0.3092
      3 C         -32.6808  -42.9863    4.3366 C.ar      1 MOL     0.1404
      4 C         -33.2535  -43.9273    3.4565 C.ar      1 MOL     0.0468
      5 C         -33.2195  -43.7216    2.0790 C.ar      1 MOL     0.0037
      6 C         -32.6033  -42.5825    1.5674 C.ar      1 MOL     0.0009
      7 C         -32.0443  -41.6406    2.4296 C.ar      1 MOL     0.0131
      8 C         -32.0694  -41.8261    3.8279 C.ar      1 MOL     0.0397
      9 C         -31.4042  -40.7664    4.6880 C.2       1 MOL     0.0752
     10 O         -34.8515  -42.5425    6.0241 O.2       1 MOL    -0.2507
     11 O         -32.7175  -43.2378    5.6887 O.3       1 MOL    -0.4254
     12 O         -30.7071  -39.9164    4.0651 O.co2     1 MOL    -0.5445
     13 O         -31.5918  -40.8018    5.9357 O.co2     1 MOL    -0.5445
     14 H         -34.2393  -42.9560    8.5259 H         1 MOL     0.0342
     15 H         -32.4754  -42.9599    8.1331 H         1 MOL     0.0342
     16 H         -33.4429  -44.4745    7.9728 H         1 MOL     0.0342
     17 H         -33.7245  -44.8187    3.8448 H         1 MOL     0.0654
     18 H         -33.6641  -44.4433    1.4098 H         1 MOL     0.0619
     19 H         -32.5567  -42.4354    0.4991 H         1 MOL     0.0618
     20 H         -31.5745  -40.7588    2.0144 H         1 MOL     0.0625
@<TRIPOS>BOND
     1    1    2 1 
     2    1   14 1 
     3    1   15 1 
     4    1   16 1 
     5    2   10 2 
     6    2   11 1 
     7    3    4 ar
     8    3    8 ar
     9    3   11 1 
    10    4    5 ar
    11    4   17 1 
    12    5    6 ar
    13    5   18 1 
    14    6    7 ar
    15    6   19 1 
    16    7    8 ar
    17    7   20 1 
    18    8    9 1 
    19    9   12 ar
    20    9   13 ar
@<TRIPOS>SUBSTRUCTURE
1 MOL         1
@<TRIPOS>MOLECULE
query molecule
   20    20     1     0     0
SMALL
NO_CHARGE

@<TRIPOS>ATOM
      1 C         -62.8625  -50.2614  -24.7597 C.3       1 MOL     0.1362
      2 C         -62.5516  -50.1060  -23.2591 C.2       1 MOL     0.3092
      3 C         -63.4219  -52.3404  -22.9572 C.ar      1 MOL     0.1404
      4 C         -62.4976  -53.3086  -23.4141 C.ar      1 MOL     0.0468
      5 C         -62.9344  -54.5221  -23.9413 C.ar      1 MOL     0.0037
      6 C         -64.2964  -54.7990  -23.9894 C.ar      1 MOL     0.0009
      7 C         -65.2081  -53.8669  -23.5068 C.ar      1 MOL     0.0131
      8 C         -64.7925  -52.6224  -22.9873 C.ar      1 MOL     0.0397
      9 C         -65.9032  -51.7061  -22.5139 C.2       1 MOL     0.0752
     10 O         -62.0355  -49.0936  -22.8065 O.2       1 MOL    -0.2507
     11 O         -62.9310  -51.1485  -22.5145 O.3       1 MOL    -0.4254
     12 O         -67.0877  -52.0483  -22.8392 O.co2     1 MOL    -0.5445
     13 O         -65.6117  -50.7008  -21.8015 O.co2     1 MOL    -0.5445
     14 H         -62.4708  -49.3906  -25.3328 H         1 MOL     0.0342
     15 H         -63.9636  -50.3082  -24.8872 H         1 MOL     0.0342
     16 H         -62.4243  -51.1900  -25.1699 H         1 MOL     0.0342
     17 H         -61.4351  -53.1101  -23.3612 H         1 MOL     0.0654
     18 H         -62.2262  -55.2450  -24.3139 H         1 MOL     0.0619
     19 H         -64.6475  -55.7329  -24.3997 H         1 MOL     0.0618
     20 H         -66.2648  -54.0983  -23.5318 H         1 MOL     0.0625
@<TRIPOS>BOND
     1    1    2 1 
     2    1   14 1 
     3    1   15 1 
     4    1   16 1 
     5    2   10 2 
     6    2   11 1 
     7    3    4 ar
     8    3    8 ar
     9    3   11 1 
    10    4    5 ar
    11    4   17 1 
    12    5    6 ar
    13    5   18 1 
    14    6    7 ar
    15    6   19 1 
    16    7    8 ar
    17    7   20 1 
    18    8    9 1 
    19    9   12 ar
    20    9   13 ar
@<TRIPOS>SUBSTRUCTURE
1 MOL         1
@<TRIPOS>MOLECULE
query molecule
   20    20     1     0     0
SMALL
NO_CHARGE

@<TRIPOS>ATOM
      1 C         -32.9253  -22.1615   16.5566 C.3       1 MOL     0.1362
      2 C         -33.3643  -23.4262   15.8240 C.2       1 MOL     0.3092
      3 C         -34.0593  -25.5739   16.5190 C.ar      1 MOL     0.1404
      4 C         -35.3821  -25.8508   16.1299 C.ar      1 MOL     0.0468
      5 C         -35.8138  -27.1622   15.9269 C.ar      1 MOL     0.0037
      6 C         -34.9248  -28.2180   16.1062 C.ar      1 MOL     0.0009
      7 C         -33.6179  -27.9579   16.4980 C.ar      1 MOL     0.0131
      8 C         -33.1766  -26.6399   16.7360 C.ar      1 MOL     0.0397
      9 C         -31.7534  -26.4952   17.2329 C.2       1 MOL     0.0752
     10 O         -33.3920  -23.5310   14.6102 O.2       1 MOL    -0.2507
     11 O         -33.6812  -24.2849   16.7114 O.3       1 MOL    -0.4254
     12 O         -31.3339  -25.3409   17.5235 O.co2     1 MOL    -0.5445
     13 O         -31.0768  -27.5700   17.2425 O.co2     1 MOL    -0.5445
     14 H         -32.6105  -21.3888   15.8264 H         1 MOL     0.0342
     15 H         -32.0756  -22.3893   17.2321 H         1 MOL     0.0342
     16 H         -33.7680  -21.7639   17.1597 H         1 MOL     0.0342
     17 H         -36.0765  -25.0341   15.9846 H         1 MOL     0.0654
     18 H         -36.8334  -27.3593   15.6323 H         1 MOL     0.0619
     19 H         -35.2458  -29.2355   15.9441 H         1 MOL     0.0618
     20 H         -32.9259  -28.7789   16.6337 H         1 MOL     0.0625
@<TRIPOS>BOND
     1    1    2 1 
     2    1   14 1 
     3    1   15 1 
     4    1   16 1 
     5    2   10 2 
     6    2   11 1 
     7    3    4 ar
     8    3    8 ar
     9    3   11 1 
    10    4    5 ar
    11    4   17 1 
    12    5    6 ar
    13    5   18 1 
    14    6    7 ar
    15    6   19 1 
    16    7    8 ar
    17    7   20 1 
    18    8    9 1 
    19    9   12 ar
    20    9   13 ar
@<TRIPOS>SUBSTRUCTURE
1 MOL         1
@<TRIPOS>MOLECULE
query molecule
   20    20     1     0     0
SMALL
NO_CHARGE

@<TRIPOS>ATOM
      1 C         -47.1534  -52.0566   28.0238 C.3       1 MOL     0.1362
      2 C         -46.1482  -50.9507   27.7173 C.2       1 MOL     0.3092
      3 C         -46.3085  -48.6340   27.3204 C.ar      1 MOL     0.1404
      4 C         -46.6882  -48.2969   26.0042 C.ar      1 MOL     0.0468
      5 C         -46.2763  -47.1037   25.4224 C.ar      1 MOL     0.0037
      6 C         -45.4666  -46.2276   26.1331 C.ar      1 MOL     0.0009
      7 C         -45.0935  -46.5495   27.4393 C.ar      1 MOL     0.0131
      8 C         -45.5088  -47.7538   28.0603 C.ar      1 MOL     0.0397
      9 C         -45.0675  -48.0077   29.5007 C.2       1 MOL     0.0752
     10 O         -44.9876  -51.1312   27.4047 O.2       1 MOL    -0.2507
     11 O         -46.7766  -49.8145   27.8261 O.3       1 MOL    -0.4254
     12 O         -44.2550  -47.1628   30.0013 O.co2     1 MOL    -0.5445
     13 O         -45.5135  -49.0349   30.1009 O.co2     1 MOL    -0.5445
     14 H         -46.7191  -53.0513   27.8001 H         1 MOL     0.0342
     15 H         -48.0571  -51.9153   27.3911 H         1 MOL     0.0342
     16 H         -47.4619  -52.0254   29.0879 H         1 MOL     0.0342
     17 H         -47.3103  -48.9795   25.4426 H         1 MOL     0.0654
     18 H         -46.5817  -46.8634   24.4143 H         1 MOL     0.0619
     19 H         -45.1314  -45.3086   25.6796 H         1 MOL     0.0618
     20 H         -44.4770  -45.8525   27.9907 H         1 MOL     0.0625
@<TRIPOS>BOND
     1    1    2 1 
     2    1   14 1 
     3    1   15 1 
     4    1   16 1 
     5    2   10 2 
     6    2   11 1 
     7    3    4 ar
     8    3    8 ar
     9    3   11 1 
    10    4    5 ar
    11    4   17 1 
    12    5    6 ar
    13    5   18 1 
    14    6    7 ar
    15    6   19 1 
    16    7    8 ar
    17    7   20 1 
    18    8    9 1 
    19    9   12 ar
    20    9   13 ar
@<TRIPOS>SUBSTRUCTURE
1 MOL         1
@<TRIPOS>MOLECULE
query molecule
   20    20     1     0     0
SMALL
NO_CHARGE

@<TRIPOS>ATOM
      1 C         -73.8498  -57.1527    0.9299 C.3       1 MOL     0.1362
      2 C         -73.2715  -56.5301   -0.3269 C.2       1 MOL     0.3092
      3 C         -73.0470  -57.1596   -2.5732 C.ar      1 MOL     0.1404
      4 C         -73.6943  -56.2112   -3.3858 C.ar      1 MOL     0.0468
      5 C         -73.2795  -56.0019   -4.6990 C.ar      1 MOL     0.0037
      6 C         -72.2078  -56.7326   -5.2094 C.ar      1 MOL     0.0009
      7 C         -71.5519  -57.6537   -4.3958 C.ar      1 MOL     0.0131
      8 C         -71.9577  -57.8883   -3.0719 C.ar      1 MOL     0.0397
      9 C         -71.1924  -58.9284   -2.2740 C.2       1 MOL     0.0752
     10 O         -72.7047  -55.4549   -0.3927 O.2       1 MOL    -0.2507
     11 O         -73.5099  -57.3674   -1.2991 O.3       1 MOL    -0.4254
     12 O         -71.6105  -59.2198   -1.1142 O.co2     1 MOL    -0.5445
     13 O         -70.1573  -59.4123   -2.8358 O.co2     1 MOL    -0.5445
     14 H         -73.6563  -56.5076    1.8098 H         1 MOL     0.0342
     15 H         -73.3925  -58.1500    1.0938 H         1 MOL     0.0342
     16 H         -74.9437  -57.2917    0.8043 H         1 MOL     0.0342
     17 H         -74.5222  -55.6430   -2.9852 H         1 MOL     0.0654
     18 H         -73.7903  -55.2808   -5.3187 H         1 MOL     0.0619
     19 H         -71.8899  -56.5892   -6.2306 H         1 MOL     0.0618
     20 H         -70.7146  -58.2108   -4.7955 H         1 MOL     0.0625
@<TRIPOS>BOND
     1    1    2 1 
     2    1   14 1 
     3    1   15 1 
     4    1   16 1 
     5    2   10 2 
     6    2   11 1 
     7    3    4 ar
     8    3    8 ar
     9    3   11 1 
    10    4    5 ar
    11    4   17 1 
    12    5    6 ar
    13    5   18 1 
    14    6    7 ar
    15    6   19 1 
    16    7    8 ar
    17    7   20 1 
    18    8    9 1 
    19    9   12 ar
    20    9   13 ar
@<TRIPOS>SUBSTRUCTURE
1 MOL         1
