@<TRIPOS>MOLECULE
olaparib_entry_00001_conf_75
55 59 1
SMALL
NO_CHARGES


@<TRIPOS>ATOM
      1 N          23.5808  -16.3761   11.7711 N.am      1 UNL1        0.0000
      2 N          22.3698  -14.2532   12.6516 N.am      1 UNL1        0.0000
      3 N          22.8676  -21.6046    7.0988 N.2       1 UNL1        0.0000
      4 N          23.0917  -22.3523    6.0456 N.am      1 UNL1        0.0000
      5 C          22.1746  -22.5750    5.0936 C.2       1 UNL1        0.0000
      6 C          20.9305  -21.9922    5.2214 C.ar      1 UNL1        0.0000
      7 C          19.9328  -22.2072    4.2698 C.ar      1 UNL1        0.0000
      8 C          18.6905  -21.6320    4.4291 C.ar      1 UNL1        0.0000
      9 C          18.5001  -20.8564    5.5530 C.ar      1 UNL1        0.0000
     10 C          19.4807  -20.6349    6.5055 C.ar      1 UNL1        0.0000
     11 C          20.7074  -21.2065    6.3370 C.ar      1 UNL1        0.0000
     12 C          21.6599  -20.9918    7.2968 C.2       1 UNL1        0.0000
     13 C          21.5631  -20.1359    8.4720 C.3       1 UNL1        0.0000
     14 C          22.4602  -18.9553    8.3355 C.ar      1 UNL1        0.0000
     15 C          23.0183  -18.4770    9.5344 C.ar      1 UNL1        0.0000
     16 C          23.8516  -17.3843    9.5122 C.ar      1 UNL1        0.0000
     17 C          24.4517  -16.8550   10.7576 C.2       1 UNL1        0.0000
     18 C          24.1220  -15.8627   12.9879 C.3       1 UNL1        0.0000
     19 C          23.2088  -14.8563   13.6544 C.3       1 UNL1        0.0000
     20 C          21.4520  -15.1415   11.9301 C.3       1 UNL1        0.0000
     21 C          22.1483  -16.4210   11.5436 C.3       1 UNL1        0.0000
     22 C          22.4113  -12.8865   12.3608 C.2       1 UNL1        0.0000
     23 C          23.2775  -11.8797   12.9800 C.3       1 UNL1        0.0000
     24 C          24.1672  -11.0971   12.0409 C.3       1 UNL1        0.0000
     25 C          24.7549  -12.0431   12.9921 C.3       1 UNL1        0.0000
     26 C          24.1831  -16.7119    8.3599 C.ar      1 UNL1        0.0000
     27 C          23.6362  -17.1810    7.1869 C.ar      1 UNL1        0.0000
     28 C          22.7848  -18.2950    7.2061 C.ar      1 UNL1        0.0000
     29 O          22.3711  -23.2876    4.0760 O.2       1 UNL1        0.0000
     30 O          21.6142  -12.4465   11.4574 O.2       1 UNL1        0.0000
     31 O          25.6904  -16.8189   10.9394 O.2       1 UNL1        0.0000
     32 F          25.0152  -15.6305    8.3902 F         1 UNL1        0.0000
     33 H          20.1254  -22.7971    3.4451 H         1 UNL1        0.0000
     34 H          17.9377  -21.7759    3.7393 H         1 UNL1        0.0000
     35 H          17.5768  -20.4177    5.6921 H         1 UNL1        0.0000
     36 H          19.2870  -20.0458    7.3305 H         1 UNL1        0.0000
     37 H          21.8463  -20.6951    9.3393 H         1 UNL1        0.0000
     38 H          20.5541  -19.7919    8.5664 H         1 UNL1        0.0000
     39 H          22.8025  -18.9449   10.4283 H         1 UNL1        0.0000
     40 H          25.0569  -15.3880   12.7734 H         1 UNL1        0.0000
     41 H          24.2419  -16.6864   13.6612 H         1 UNL1        0.0000
     42 H          23.7954  -14.1015   14.1342 H         1 UNL1        0.0000
     43 H          22.6029  -15.3466   14.3879 H         1 UNL1        0.0000
     44 H          21.1065  -14.6486   11.0456 H         1 UNL1        0.0000
     45 H          20.6258  -15.3779   12.5678 H         1 UNL1        0.0000
     46 H          21.9746  -16.6039   10.5037 H         1 UNL1        0.0000
     47 H          21.7507  -17.2008   12.1576 H         1 UNL1        0.0000
     48 H          22.5520  -11.6741   13.7388 H         1 UNL1        0.0000
     49 H          24.2995  -10.0445   12.1818 H         1 UNL1        0.0000
     50 H          24.2144  -10.9603   10.9807 H         1 UNL1        0.0000
     51 H          25.3229  -11.6772   13.8219 H         1 UNL1        0.0000
     52 H          25.4147  -12.8796   12.9015 H         1 UNL1        0.0000
     53 H          23.8534  -16.7122    6.2929 H         1 UNL1        0.0000
     54 H          22.3878  -18.6261    6.3126 H         1 UNL1        0.0000
     55 H          23.9779  -22.7706    5.9488 H         1 UNL1        0.0000
@<TRIPOS>BOND
     1    1   18 1
     2    1   21 1
     3    1   17 am
     4    2   19 1
     5    2   20 1
     6    2   22 am
     7    3    4 1
     8    3   12 2
     9    4    5 am
    10    4   55 1
    11    5   29 2
    12    5    6 1
    13    6    7 ar
    14    6   11 ar
    15    7    8 ar
    16    7   33 1
    17    8   34 1
    18    8    9 ar
    19    9   10 ar
    20    9   35 1
    21   10   11 ar
    22   10   36 1
    23   11   12 1
    24   12   13 1
    25   13   37 1
    26   13   38 1
    27   13   14 1
    28   14   15 ar
    29   14   28 ar
    30   15   39 1
    31   15   16 ar
    32   16   26 ar
    33   16   17 1
    34   17   31 2
    35   18   19 1
    36   18   40 1
    37   18   41 1
    38   19   42 1
    39   19   43 1
    40   20   21 1
    41   20   45 1
    42   20   44 1
    43   21   46 1
    44   21   47 1
    45   22   30 2
    46   22   23 1
    47   23   25 1
    48   23   24 1
    49   23   48 1
    50   24   25 1
    51   24   49 1
    52   24   50 1
    53   25   51 1
    54   25   52 1
    55   26   27 ar
    56   26   32 1
    57   27   28 ar
    58   27   53 1
    59   28   54 1
@<TRIPOS>SUBSTRUCTURE
1 UNL1 1
@<TRIPOS>COMMENT
olaparib
PLANTSproteinTorsions
57
1 248.9501
19 70.3250
33 50.4812
53 28.6488
108 5.5048
228 56.3321
405 215.3317
438 194.4311
479 23.8368
492 197.4601
546 77.0373
641 21.2827
776 31.7092
836 235.8535
905 266.6255
919 17.4322
988 339.9805
1139 119.6488
1332 12.8567
1388 13.5454
1606 339.8573
1642 118.5033
1655 168.2431
1759 121.7012
1952 6.4354
1986 87.8546
2049 28.6048
2207 69.7473
2220 204.3153
2267 56.0871
2305 185.1420
2319 116.9120
2601 218.7531
2653 197.5510
2695 102.4579
2741 48.6056
2763 285.0188
2818 276.7566
2847 241.4047
2913 22.5419
2968 107.1741
2982 293.0806
2996 244.3236
3051 124.8595
3105 100.3141
3240 96.7617
3280 89.5301
3290 268.6739
3365 148.8288
3426 266.7935
3477 196.7016
3534 240.6374
3661 8.2841
3685 211.0696
3741 158.7212
3784 78.9002
3862 38.1156
PLANTSmolcadARTstart hb
PLANTSmolcadARTstart HB
LINES
23.9779 -22.7706 5.94883 25.602 -23.635 5.084 0 255 0 5
PLANTSmolcadARTstart HBCH
LINES
PLANTSmolcadARTstart HB-CHO
LINES
PLANTSmolcadARTend
PLANTSmolcadARTstart HB_WATER
LINES
PLANTSmolcadARTend

PLANTSmolcadARTend

