@<TRIPOS>MOLECULE
olaparib_entry_00001_conf_38
55 59 1
SMALL
NO_CHARGES


@<TRIPOS>ATOM
      1 N          24.6667   -9.2354    9.9370 N.am      1 UNL1        0.0000
      2 N          25.6018   -6.8173    9.7738 N.am      1 UNL1        0.0000
      3 N          24.6007  -14.9357   11.5786 N.2       1 UNL1        0.0000
      4 N          23.6177  -15.3457   12.3430 N.am      1 UNL1        0.0000
      5 C          22.7372  -16.2843   11.9680 C.2       1 UNL1        0.0000
      6 C          22.8648  -16.8517   10.7168 C.ar      1 UNL1        0.0000
      7 C          21.9639  -17.8185   10.2686 C.ar      1 UNL1        0.0000
      8 C          22.0982  -18.3560    9.0067 C.ar      1 UNL1        0.0000
      9 C          23.1447  -17.8925    8.2377 C.ar      1 UNL1        0.0000
     10 C          24.0458  -16.9335    8.6694 C.ar      1 UNL1        0.0000
     11 C          23.9055  -16.4099    9.9208 C.ar      1 UNL1        0.0000
     12 C          24.7943  -15.4502   10.3253 C.2       1 UNL1        0.0000
     13 C          25.9612  -14.9569    9.6055 C.3       1 UNL1        0.0000
     14 C          26.3746  -13.6253   10.1284 C.ar      1 UNL1        0.0000
     15 C          25.3505  -12.6659   10.2194 C.ar      1 UNL1        0.0000
     16 C          25.6359  -11.4032   10.6811 C.ar      1 UNL1        0.0000
     17 C          24.5805  -10.3705   10.7852 C.2       1 UNL1        0.0000
     18 C          23.6652   -8.2208   10.0050 C.3       1 UNL1        0.0000
     19 C          24.1773   -6.8648    9.5694 C.3       1 UNL1        0.0000
     20 C          26.4158   -7.7668    9.0070 C.3       1 UNL1        0.0000
     21 C          25.7807   -9.1335    9.0128 C.3       1 UNL1        0.0000
     22 C          26.2039   -5.9173   10.6579 C.2       1 UNL1        0.0000
     23 C          25.5304   -4.9244   11.4992 C.3       1 UNL1        0.0000
     24 C          26.1224   -3.5332   11.4927 C.3       1 UNL1        0.0000
     25 C          26.1984   -4.3584   12.7004 C.3       1 UNL1        0.0000
     26 C          26.8941  -11.0092   11.0706 C.ar      1 UNL1        0.0000
     27 C          27.8957  -11.9491   10.9810 C.ar      1 UNL1        0.0000
     28 C          27.6082  -13.2380   10.5095 C.ar      1 UNL1        0.0000
     29 O          21.7891  -16.6914   12.6871 O.2       1 UNL1        0.0000
     30 O          27.4822   -5.9482   10.7588 O.2       1 UNL1        0.0000
     31 O          23.6261  -10.4695   11.5902 O.2       1 UNL1        0.0000
     32 F          27.1270   -9.7423   11.5218 F         1 UNL1        0.0000
     33 H          21.1963  -18.1320   10.8830 H         1 UNL1        0.0000
     34 H          21.4454  -19.0718    8.6536 H         1 UNL1        0.0000
     35 H          23.2624  -18.2809    7.2893 H         1 UNL1        0.0000
     36 H          24.8126  -16.6196    8.0539 H         1 UNL1        0.0000
     37 H          25.7226  -14.8685    8.5662 H         1 UNL1        0.0000
     38 H          26.7684  -15.6459    9.7430 H         1 UNL1        0.0000
     39 H          24.3875  -12.9090    9.9401 H         1 UNL1        0.0000
     40 H          23.3191   -8.1484   11.0152 H         1 UNL1        0.0000
     41 H          22.8771   -8.4992    9.3360 H         1 UNL1        0.0000
     42 H          23.7050   -6.0993   10.1484 H         1 UNL1        0.0000
     43 H          23.9535   -6.7080    8.5346 H         1 UNL1        0.0000
     44 H          27.3899   -7.8302    9.4449 H         1 UNL1        0.0000
     45 H          26.4871   -7.4243    7.9958 H         1 UNL1        0.0000
     46 H          26.5215   -9.8534    9.2923 H         1 UNL1        0.0000
     47 H          25.3995   -9.3144    8.0304 H         1 UNL1        0.0000
     48 H          24.5772   -5.3801   11.3315 H         1 UNL1        0.0000
     49 H          25.4794   -2.6780   11.4682 H         1 UNL1        0.0000
     50 H          26.8327   -3.0155   10.8824 H         1 UNL1        0.0000
     51 H          25.6155   -4.0973   13.5589 H         1 UNL1        0.0000
     52 H          26.9967   -4.6826   13.3335 H         1 UNL1        0.0000
     53 H          28.8589  -11.7046   11.2615 H         1 UNL1        0.0000
     54 H          28.3776  -13.9237   10.4519 H         1 UNL1        0.0000
     55 H          23.5218  -14.9445   13.2372 H         1 UNL1        0.0000
@<TRIPOS>BOND
     1    1   18 1
     2    1   21 1
     3    1   17 am
     4    2   19 1
     5    2   20 1
     6    2   22 am
     7    3    4 1
     8    3   12 2
     9    4    5 am
    10    4   55 1
    11    5   29 2
    12    5    6 1
    13    6    7 ar
    14    6   11 ar
    15    7    8 ar
    16    7   33 1
    17    8   34 1
    18    8    9 ar
    19    9   10 ar
    20    9   35 1
    21   10   11 ar
    22   10   36 1
    23   11   12 1
    24   12   13 1
    25   13   37 1
    26   13   38 1
    27   13   14 1
    28   14   15 ar
    29   14   28 ar
    30   15   39 1
    31   15   16 ar
    32   16   26 ar
    33   16   17 1
    34   17   31 2
    35   18   19 1
    36   18   40 1
    37   18   41 1
    38   19   42 1
    39   19   43 1
    40   20   21 1
    41   20   45 1
    42   20   44 1
    43   21   46 1
    44   21   47 1
    45   22   30 2
    46   22   23 1
    47   23   25 1
    48   23   24 1
    49   23   48 1
    50   24   25 1
    51   24   49 1
    52   24   50 1
    53   25   51 1
    54   25   52 1
    55   26   27 ar
    56   26   32 1
    57   27   28 ar
    58   27   53 1
    59   28   54 1
@<TRIPOS>SUBSTRUCTURE
1 UNL1 1
@<TRIPOS>COMMENT
olaparib
PLANTSproteinTorsions
57
1 233.9374
19 54.5286
33 28.8470
53 29.8771
108 20.2505
228 20.9655
405 122.7342
438 200.0590
479 289.6358
492 152.2637
546 17.0890
641 246.1820
776 229.8450
836 36.8138
905 236.4778
919 254.8599
988 179.0893
1139 118.7678
1332 213.1729
1388 151.4222
1606 54.1797
1642 100.0826
1655 179.2760
1759 36.1300
1952 251.6403
1986 77.6846
2049 55.5559
2207 182.0962
2220 234.7520
2267 43.1573
2305 357.8119
2319 252.5035
2601 326.7052
2653 168.2502
2695 152.9201
2741 14.1368
2763 6.9687
2818 322.9498
2847 269.6684
2913 41.4672
2968 219.6416
2982 267.5710
2996 247.0822
3051 197.0866
3105 106.7927
3240 101.9200
3280 146.7274
3290 170.7784
3365 212.0117
3426 284.8860
3477 191.9890
3534 320.5835
3661 47.4361
3685 179.0571
3741 174.2512
3784 347.5961
3862 91.0937
PLANTSmolcadARTstart hb
PLANTSmolcadARTstart HB
LINES
23.6261 -10.4695 11.5902 21.364 -9.86355 11.9299 0 255 0 5
PLANTSmolcadARTstart HBCH
LINES
PLANTSmolcadARTstart HB-CHO
LINES
PLANTSmolcadARTend
PLANTSmolcadARTstart HB_WATER
LINES
PLANTSmolcadARTend

PLANTSmolcadARTend

