@<TRIPOS>MOLECULE
olaparib_entry_00001_conf_60
55 59 1
SMALL
NO_CHARGES


@<TRIPOS>ATOM
      1 N          25.5790   -9.0501    5.9089 N.am      1 UNL1        0.0000
      2 N          24.3559  -11.3027    5.4866 N.am      1 UNL1        0.0000
      3 N          24.5307   -9.7457   10.1902 N.2       1 UNL1        0.0000
      4 N          23.2524  -10.0307   10.1334 N.am      1 UNL1        0.0000
      5 C          22.6746  -10.9717   10.8933 C.2       1 UNL1        0.0000
      6 C          23.4573  -11.6801   11.7817 C.ar      1 UNL1        0.0000
      7 C          22.9107  -12.6840   12.5820 C.ar      1 UNL1        0.0000
      8 C          23.7158  -13.3933   13.4470 C.ar      1 UNL1        0.0000
      9 C          25.0538  -13.0609   13.4705 C.ar      1 UNL1        0.0000
     10 C          25.6097  -12.0675   12.6818 C.ar      1 UNL1        0.0000
     11 C          24.8038  -11.3698   11.8312 C.ar      1 UNL1        0.0000
     12 C          25.3726  -10.4032   11.0459 C.2       1 UNL1        0.0000
     13 C          26.7559   -9.9457   11.0581 C.3       1 UNL1        0.0000
     14 C          26.9428   -8.8175   10.1044 C.ar      1 UNL1        0.0000
     15 C          26.7903   -9.1424    8.7446 C.ar      1 UNL1        0.0000
     16 C          26.9538   -8.1701    7.7872 C.ar      1 UNL1        0.0000
     17 C          26.8033   -8.4815    6.3478 C.2       1 UNL1        0.0000
     18 C          25.3947   -9.3596    4.5279 C.3       1 UNL1        0.0000
     19 C          24.3975  -10.4768    4.3079 C.3       1 UNL1        0.0000
     20 C          23.9065  -10.6660    6.7294 C.3       1 UNL1        0.0000
     21 C          24.5347   -9.3048    6.8838 C.3       1 UNL1        0.0000
     22 C          24.7233  -12.6514    5.4717 C.2       1 UNL1        0.0000
     23 C          25.2031  -13.4214    4.3210 C.3       1 UNL1        0.0000
     24 C          26.1789  -12.7159    3.4066 C.3       1 UNL1        0.0000
     25 C          24.8307  -13.0384    2.9338 C.3       1 UNL1        0.0000
     26 C          27.2648   -6.8642    8.0837 C.ar      1 UNL1        0.0000
     27 C          27.4139   -6.5474    9.4150 C.ar      1 UNL1        0.0000
     28 C          27.2487   -7.5372   10.3945 C.ar      1 UNL1        0.0000
     29 O          21.4506  -11.2584   10.8541 O.2       1 UNL1        0.0000
     30 O          24.6394  -13.3026    6.5736 O.2       1 UNL1        0.0000
     31 O          27.7145   -8.2597    5.5175 O.2       1 UNL1        0.0000
     32 F          27.4176   -5.9350    7.0958 F         1 UNL1        0.0000
     33 H          21.9021  -12.8954   12.5269 H         1 UNL1        0.0000
     34 H          23.3349  -14.1392   14.0486 H         1 UNL1        0.0000
     35 H          25.6742  -13.5806   14.1100 H         1 UNL1        0.0000
     36 H          26.6188  -11.8575   12.7367 H         1 UNL1        0.0000
     37 H          27.3970  -10.7548   10.7764 H         1 UNL1        0.0000
     38 H          26.9988   -9.6065   12.0436 H         1 UNL1        0.0000
     39 H          26.5567  -10.1081    8.4665 H         1 UNL1        0.0000
     40 H          26.3368   -9.6545    4.1144 H         1 UNL1        0.0000
     41 H          25.0095   -8.4831    4.0488 H         1 UNL1        0.0000
     42 H          24.6973  -11.0654    3.4665 H         1 UNL1        0.0000
     43 H          23.4279  -10.0652    4.1184 H         1 UNL1        0.0000
     44 H          24.1865  -11.2784    7.5607 H         1 UNL1        0.0000
     45 H          22.8430  -10.5528    6.6958 H         1 UNL1        0.0000
     46 H          24.9592   -9.2335    7.8635 H         1 UNL1        0.0000
     47 H          23.7667   -8.5774    6.7280 H         1 UNL1        0.0000
     48 H          25.1543  -14.3374    4.8714 H         1 UNL1        0.0000
     49 H          27.0238  -13.2439    3.0159 H         1 UNL1        0.0000
     50 H          26.7667  -11.8240    3.4701 H         1 UNL1        0.0000
     51 H          24.6963  -13.7971    2.1913 H         1 UNL1        0.0000
     52 H          24.0343  -12.4687    2.5045 H         1 UNL1        0.0000
     53 H          27.6471   -5.5804    9.6920 H         1 UNL1        0.0000
     54 H          27.3664   -7.2730   11.3854 H         1 UNL1        0.0000
     55 H          22.6887   -9.5281    9.5014 H         1 UNL1        0.0000
@<TRIPOS>BOND
     1    1   18 1
     2    1   21 1
     3    1   17 am
     4    2   19 1
     5    2   20 1
     6    2   22 am
     7    3    4 1
     8    3   12 2
     9    4    5 am
    10    4   55 1
    11    5   29 2
    12    5    6 1
    13    6    7 ar
    14    6   11 ar
    15    7    8 ar
    16    7   33 1
    17    8   34 1
    18    8    9 ar
    19    9   10 ar
    20    9   35 1
    21   10   11 ar
    22   10   36 1
    23   11   12 1
    24   12   13 1
    25   13   37 1
    26   13   38 1
    27   13   14 1
    28   14   15 ar
    29   14   28 ar
    30   15   39 1
    31   15   16 ar
    32   16   26 ar
    33   16   17 1
    34   17   31 2
    35   18   19 1
    36   18   40 1
    37   18   41 1
    38   19   42 1
    39   19   43 1
    40   20   21 1
    41   20   45 1
    42   20   44 1
    43   21   46 1
    44   21   47 1
    45   22   30 2
    46   22   23 1
    47   23   25 1
    48   23   24 1
    49   23   48 1
    50   24   25 1
    51   24   49 1
    52   24   50 1
    53   25   51 1
    54   25   52 1
    55   26   27 ar
    56   26   32 1
    57   27   28 ar
    58   27   53 1
    59   28   54 1
@<TRIPOS>SUBSTRUCTURE
1 UNL1 1
@<TRIPOS>COMMENT
olaparib
PLANTSproteinTorsions
57
1 22.8846
19 286.8334
33 313.9944
53 155.5350
108 161.1333
228 4.2446
405 276.3060
438 60.0356
479 200.4699
492 169.2855
546 119.4747
641 158.5216
776 156.4914
836 127.5763
905 189.3304
919 159.2296
988 86.3941
1139 171.7108
1332 121.4259
1388 270.0634
1606 86.1845
1642 52.1752
1655 101.9372
1759 315.2628
1952 212.1515
1986 269.2545
2049 87.3936
2207 28.4985
2220 103.2243
2267 283.5420
2305 24.8274
2319 226.5703
2601 186.4755
2653 103.9687
2695 100.1649
2741 179.7043
2763 32.2792
2818 38.6124
2847 170.3674
2913 35.0926
2968 145.6840
2982 244.2660
2996 95.7818
3051 170.0252
3105 357.6442
3240 75.9269
3280 324.0590
3290 218.4114
3365 113.1071
3426 152.1330
3477 143.0089
3534 173.9183
3661 265.0590
3685 120.6553
3741 240.6906
3784 84.6604
3862 278.6641
PLANTSmolcadARTstart hb
PLANTSmolcadARTstart HB
LINES
PLANTSmolcadARTstart HBCH
LINES
PLANTSmolcadARTstart HB-CHO
LINES
PLANTSmolcadARTend
PLANTSmolcadARTstart HB_WATER
LINES
PLANTSmolcadARTend

PLANTSmolcadARTend

