@<TRIPOS>MOLECULE
olaparib_entry_00001_conf_84
55 59 1
SMALL
NO_CHARGES


@<TRIPOS>ATOM
      1 N          34.8561  -21.6908    8.2187 N.am      1 UNL1        0.0000
      2 N          32.4827  -20.8980    8.9163 N.am      1 UNL1        0.0000
      3 N          37.7904  -17.6649   11.5504 N.2       1 UNL1        0.0000
      4 N          38.3432  -17.5685   12.7352 N.am      1 UNL1        0.0000
      5 C          39.3617  -16.7402   13.0060 C.2       1 UNL1        0.0000
      6 C          39.8589  -15.9466   11.9928 C.ar      1 UNL1        0.0000
      7 C          40.9310  -15.0814   12.2151 C.ar      1 UNL1        0.0000
      8 C          41.4250  -14.3137   11.1826 C.ar      1 UNL1        0.0000
      9 C          40.8143  -14.4505    9.9540 C.ar      1 UNL1        0.0000
     10 C          39.7502  -15.3051    9.7190 C.ar      1 UNL1        0.0000
     11 C          39.2672  -16.0585   10.7481 C.ar      1 UNL1        0.0000
     12 C          38.2264  -16.9110   10.4946 C.2       1 UNL1        0.0000
     13 C          37.4842  -17.0652    9.2502 C.3       1 UNL1        0.0000
     14 C          37.7990  -18.3728    8.6112 C.ar      1 UNL1        0.0000
     15 C          36.9073  -19.4202    8.9039 C.ar      1 UNL1        0.0000
     16 C          37.1197  -20.6682    8.3691 C.ar      1 UNL1        0.0000
     17 C          36.2011  -21.7917    8.6611 C.2       1 UNL1        0.0000
     18 C          33.9419  -22.7559    8.4773 C.3       1 UNL1        0.0000
     19 C          32.5038  -22.2882    8.5422 C.3       1 UNL1        0.0000
     20 C          33.1221  -19.9516    7.9958 C.3       1 UNL1        0.0000
     21 C          34.4395  -20.4966    7.5073 C.3       1 UNL1        0.0000
     22 C          31.8871  -20.4476   10.0981 C.2       1 UNL1        0.0000
     23 C          31.2258  -21.2649   11.1188 C.3       1 UNL1        0.0000
     24 C          29.7267  -21.4112   10.9878 C.3       1 UNL1        0.0000
     25 C          30.2961  -20.6545   12.1051 C.3       1 UNL1        0.0000
     26 C          38.1778  -20.9646    7.5429 C.ar      1 UNL1        0.0000
     27 C          39.0500  -19.9387    7.2571 C.ar      1 UNL1        0.0000
     28 C          38.8368  -18.6643    7.8019 C.ar      1 UNL1        0.0000
     29 O          39.9039  -16.6327   14.1357 O.2       1 UNL1        0.0000
     30 O          31.9121  -19.1869   10.3334 O.2       1 UNL1        0.0000
     31 O          36.5732  -22.8154    9.2795 O.2       1 UNL1        0.0000
     32 F          38.3458  -22.2210    7.0371 F         1 UNL1        0.0000
     33 H          41.3542  -15.0157   13.1541 H         1 UNL1        0.0000
     34 H          42.2159  -13.6670   11.3226 H         1 UNL1        0.0000
     35 H          41.1696  -13.8859    9.1672 H         1 UNL1        0.0000
     36 H          39.3282  -15.3712    8.7794 H         1 UNL1        0.0000
     37 H          37.7497  -16.2734    8.5812 H         1 UNL1        0.0000
     38 H          36.4366  -17.0317    9.4665 H         1 UNL1        0.0000
     39 H          36.0960  -19.2522    9.5188 H         1 UNL1        0.0000
     40 H          34.1982  -23.2074    9.4132 H         1 UNL1        0.0000
     41 H          34.0195  -23.4521    7.6678 H         1 UNL1        0.0000
     42 H          31.9710  -22.8646    9.2689 H         1 UNL1        0.0000
     43 H          32.0382  -22.4143    7.5868 H         1 UNL1        0.0000
     44 H          33.2917  -19.0254    8.5038 H         1 UNL1        0.0000
     45 H          32.4791  -19.7988    7.1542 H         1 UNL1        0.0000
     46 H          35.1896  -19.7444    7.6368 H         1 UNL1        0.0000
     47 H          34.3152  -20.7630    6.4793 H         1 UNL1        0.0000
     48 H          32.0790  -21.9041   11.2072 H         1 UNL1        0.0000
     49 H          29.2640  -22.3599   11.1642 H         1 UNL1        0.0000
     50 H          29.0101  -21.2056   10.2201 H         1 UNL1        0.0000
     51 H          30.2396  -21.0506   13.0975 H         1 UNL1        0.0000
     52 H          30.1547  -19.6653   12.4854 H         1 UNL1        0.0000
     53 H          39.8612  -20.1080    6.6411 H         1 UNL1        0.0000
     54 H          39.5061  -17.9128    7.5719 H         1 UNL1        0.0000
     55 H          37.9922  -18.1323   13.4624 H         1 UNL1        0.0000
@<TRIPOS>BOND
     1    1   18 1
     2    1   21 1
     3    1   17 am
     4    2   19 1
     5    2   20 1
     6    2   22 am
     7    3    4 1
     8    3   12 2
     9    4    5 am
    10    4   55 1
    11    5   29 2
    12    5    6 1
    13    6    7 ar
    14    6   11 ar
    15    7    8 ar
    16    7   33 1
    17    8   34 1
    18    8    9 ar
    19    9   10 ar
    20    9   35 1
    21   10   11 ar
    22   10   36 1
    23   11   12 1
    24   12   13 1
    25   13   37 1
    26   13   38 1
    27   13   14 1
    28   14   15 ar
    29   14   28 ar
    30   15   39 1
    31   15   16 ar
    32   16   26 ar
    33   16   17 1
    34   17   31 2
    35   18   19 1
    36   18   40 1
    37   18   41 1
    38   19   42 1
    39   19   43 1
    40   20   21 1
    41   20   45 1
    42   20   44 1
    43   21   46 1
    44   21   47 1
    45   22   30 2
    46   22   23 1
    47   23   25 1
    48   23   24 1
    49   23   48 1
    50   24   25 1
    51   24   49 1
    52   24   50 1
    53   25   51 1
    54   25   52 1
    55   26   27 ar
    56   26   32 1
    57   27   28 ar
    58   27   53 1
    59   28   54 1
@<TRIPOS>SUBSTRUCTURE
1 UNL1 1
@<TRIPOS>COMMENT
olaparib
PLANTSproteinTorsions
57
1 269.0401
19 241.6551
33 20.5922
53 181.5105
108 265.5101
228 240.0766
405 272.4610
438 22.7801
479 117.4106
492 16.6805
546 321.7678
641 263.5487
776 262.1081
836 90.2384
905 56.0006
919 216.5189
988 21.2982
1139 142.5491
1332 101.8885
1388 85.7122
1606 324.1303
1642 162.5854
1655 245.5944
1759 71.0866
1952 193.9793
1986 288.9411
2049 309.7068
2207 46.8314
2220 71.0390
2267 5.3643
2305 157.7625
2319 324.3291
2601 150.8411
2653 128.1790
2695 311.2528
2741 273.6521
2763 210.9520
2818 221.0052
2847 213.1691
2913 262.8818
2968 337.4383
2982 169.1997
2996 203.1701
3051 151.0800
3105 75.2855
3240 245.1052
3280 29.5114
3290 256.6941
3365 162.6209
3426 31.4647
3477 57.2566
3534 32.7056
3661 253.3533
3685 38.1740
3741 263.8982
3784 249.0092
3862 104.9605
PLANTSmolcadARTstart hb
PLANTSmolcadARTstart HB
LINES
PLANTSmolcadARTstart HBCH
LINES
PLANTSmolcadARTstart HB-CHO
LINES
PLANTSmolcadARTend
PLANTSmolcadARTstart HB_WATER
LINES
PLANTSmolcadARTend

PLANTSmolcadARTend

