@<TRIPOS>MOLECULE
olaparib_entry_00001_conf_94
55 59 1
SMALL
NO_CHARGES


@<TRIPOS>ATOM
      1 N          22.7384  -21.8101    8.9981 N.am      1 UNL1        0.0000
      2 N          21.2937  -21.1018    6.9586 N.am      1 UNL1        0.0000
      3 N          24.0097  -16.6162   12.3361 N.2       1 UNL1        0.0000
      4 N          23.7093  -15.9054   13.3959 N.am      1 UNL1        0.0000
      5 C          23.9751  -14.5958   13.5022 C.2       1 UNL1        0.0000
      6 C          24.5958  -13.9570   12.4485 C.ar      1 UNL1        0.0000
      7 C          24.9134  -12.5998   12.5148 C.ar      1 UNL1        0.0000
      8 C          25.5528  -11.9875   11.4585 C.ar      1 UNL1        0.0000
      9 C          25.8514  -12.7750   10.3668 C.ar      1 UNL1        0.0000
     10 C          25.5425  -14.1227   10.2876 C.ar      1 UNL1        0.0000
     11 C          24.9075  -14.7184   11.3373 C.ar      1 UNL1        0.0000
     12 C          24.6252  -16.0553   11.2500 C.2       1 UNL1        0.0000
     13 C          24.8437  -16.9393   10.1125 C.3       1 UNL1        0.0000
     14 C          25.0479  -18.3414   10.5706 C.ar      1 UNL1        0.0000
     15 C          24.0052  -19.2352   10.2682 C.ar      1 UNL1        0.0000
     16 C          24.0968  -20.5496   10.6589 C.ar      1 UNL1        0.0000
     17 C          23.0144  -21.5138   10.3586 C.2       1 UNL1        0.0000
     18 C          21.7055  -22.7384    8.6691 C.3       1 UNL1        0.0000
     19 C          21.1100  -22.4884    7.3002 C.3       1 UNL1        0.0000
     20 C          22.6753  -20.6240    6.8369 C.3       1 UNL1        0.0000
     21 C          23.5206  -21.1563    7.9653 C.3       1 UNL1        0.0000
     22 C          20.2198  -20.2316    6.7491 C.2       1 UNL1        0.0000
     23 C          18.7935  -20.5525    6.8471 C.3       1 UNL1        0.0000
     24 C          18.2473  -21.4911    5.7951 C.3       1 UNL1        0.0000
     25 C          17.8308  -20.0871    5.8145 C.3       1 UNL1        0.0000
     26 C          25.1737  -21.0592   11.3450 C.ar      1 UNL1        0.0000
     27 C          26.1937  -20.1834   11.6404 C.ar      1 UNL1        0.0000
     28 C          26.1030  -18.8414   11.2441 C.ar      1 UNL1        0.0000
     29 O          23.6936  -13.8972   14.5095 O.2       1 UNL1        0.0000
     30 O          20.4909  -19.0173    6.4374 O.2       1 UNL1        0.0000
     31 O          22.3446  -22.0682   11.2601 O.2       1 UNL1        0.0000
     32 F          25.2172  -22.3731   11.7117 F         1 UNL1        0.0000
     33 H          24.6687  -12.0535   13.3554 H         1 UNL1        0.0000
     34 H          25.7972  -10.9860   11.4839 H         1 UNL1        0.0000
     35 H          26.3312  -12.3365    9.5657 H         1 UNL1        0.0000
     36 H          25.7886  -14.6687    9.4470 H         1 UNL1        0.0000
     37 H          25.7103  -16.6146    9.5753 H         1 UNL1        0.0000
     38 H          23.9816  -16.9067    9.4792 H         1 UNL1        0.0000
     39 H          23.1734  -18.9050    9.7546 H         1 UNL1        0.0000
     40 H          20.9283  -22.6594    9.4007 H         1 UNL1        0.0000
     41 H          22.1410  -23.7163    8.6588 H         1 UNL1        0.0000
     42 H          20.0659  -22.7202    7.3148 H         1 UNL1        0.0000
     43 H          21.5952  -23.1084    6.5751 H         1 UNL1        0.0000
     44 H          22.6826  -19.5546    6.8667 H         1 UNL1        0.0000
     45 H          23.0811  -20.9703    5.9093 H         1 UNL1        0.0000
     46 H          24.0535  -20.3404    8.4074 H         1 UNL1        0.0000
     47 H          24.1822  -21.8881    7.5531 H         1 UNL1        0.0000
     48 H          18.8183  -20.4880    7.9146 H         1 UNL1        0.0000
     49 H          17.5545  -22.2589    6.0705 H         1 UNL1        0.0000
     50 H          18.6789  -22.1436    5.0651 H         1 UNL1        0.0000
     51 H          16.8300  -19.8345    6.0968 H         1 UNL1        0.0000
     52 H          17.8328  -19.2980    5.0929 H         1 UNL1        0.0000
     53 H          27.0259  -20.5152   12.1539 H         1 UNL1        0.0000
     54 H          26.8817  -18.2056   11.4786 H         1 UNL1        0.0000
     55 H          23.2658  -16.3559   14.1510 H         1 UNL1        0.0000
@<TRIPOS>BOND
     1    1   18 1
     2    1   21 1
     3    1   17 am
     4    2   19 1
     5    2   20 1
     6    2   22 am
     7    3    4 1
     8    3   12 2
     9    4    5 am
    10    4   55 1
    11    5   29 2
    12    5    6 1
    13    6    7 ar
    14    6   11 ar
    15    7    8 ar
    16    7   33 1
    17    8   34 1
    18    8    9 ar
    19    9   10 ar
    20    9   35 1
    21   10   11 ar
    22   10   36 1
    23   11   12 1
    24   12   13 1
    25   13   37 1
    26   13   38 1
    27   13   14 1
    28   14   15 ar
    29   14   28 ar
    30   15   39 1
    31   15   16 ar
    32   16   26 ar
    33   16   17 1
    34   17   31 2
    35   18   19 1
    36   18   40 1
    37   18   41 1
    38   19   42 1
    39   19   43 1
    40   20   21 1
    41   20   45 1
    42   20   44 1
    43   21   46 1
    44   21   47 1
    45   22   30 2
    46   22   23 1
    47   23   25 1
    48   23   24 1
    49   23   48 1
    50   24   25 1
    51   24   49 1
    52   24   50 1
    53   25   51 1
    54   25   52 1
    55   26   27 ar
    56   26   32 1
    57   27   28 ar
    58   27   53 1
    59   28   54 1
@<TRIPOS>SUBSTRUCTURE
1 UNL1 1
@<TRIPOS>COMMENT
olaparib
PLANTSproteinTorsions
57
1 16.3284
19 207.0118
33 18.5637
53 1.7799
108 231.8426
228 96.6405
405 358.7363
438 16.6419
479 0.6320
492 55.5836
546 356.8313
641 336.1237
776 12.1236
836 87.3719
905 51.3594
919 5.5432
988 248.1931
1139 210.2396
1332 94.0013
1388 132.1431
1606 277.3229
1642 52.1572
1655 185.3547
1759 87.8769
1952 120.6722
1986 114.6180
2049 316.4929
2207 329.1761
2220 8.4105
2267 142.1090
2305 50.5707
2319 173.3130
2601 340.6778
2653 136.4640
2695 49.2800
2741 228.6635
2763 79.9519
2818 182.9163
2847 207.6619
2913 94.7643
2968 218.3351
2982 124.9279
2996 189.4828
3051 270.9883
3105 222.0503
3240 300.9500
3280 108.7591
3290 264.5803
3365 21.6312
3426 240.1884
3477 267.2122
3534 127.0394
3661 123.9979
3685 228.1434
3741 38.4678
3784 92.6158
3862 86.1235
PLANTSmolcadARTstart hb
PLANTSmolcadARTstart HB
LINES
PLANTSmolcadARTstart HBCH
LINES
PLANTSmolcadARTstart HB-CHO
LINES
PLANTSmolcadARTend
PLANTSmolcadARTstart HB_WATER
LINES
PLANTSmolcadARTend

PLANTSmolcadARTend

