@<TRIPOS>MOLECULE
olaparib_entry_00001_conf_52
55 59 1
SMALL
NO_CHARGES


@<TRIPOS>ATOM
      1 N          42.5794  -16.3617   13.0715 N.am      1 UNL1        0.0000
      2 N          43.9046  -18.2914   14.1976 N.am      1 UNL1        0.0000
      3 N          39.9221  -16.8558    8.1104 N.2       1 UNL1        0.0000
      4 N          40.4938  -17.4948    7.1187 N.am      1 UNL1        0.0000
      5 C          40.2753  -17.1979    5.8299 C.2       1 UNL1        0.0000
      6 C          39.4068  -16.1705    5.5235 C.ar      1 UNL1        0.0000
      7 C          39.1283  -15.8332    4.1985 C.ar      1 UNL1        0.0000
      8 C          38.2409  -14.8172    3.9160 C.ar      1 UNL1        0.0000
      9 C          37.6621  -14.1757    4.9906 C.ar      1 UNL1        0.0000
     10 C          37.9289  -14.5001    6.3102 C.ar      1 UNL1        0.0000
     11 C          38.8105  -15.5053    6.5789 C.ar      1 UNL1        0.0000
     12 C          39.0496  -15.8250    7.8886 C.2       1 UNL1        0.0000
     13 C          38.5355  -15.1564    9.0767 C.3       1 UNL1        0.0000
     14 C          38.8357  -15.9542   10.2977 C.ar      1 UNL1        0.0000
     15 C          39.8860  -15.4673   11.0961 C.ar      1 UNL1        0.0000
     16 C          40.2447  -16.1411   12.2390 C.ar      1 UNL1        0.0000
     17 C          41.3481  -15.6558   13.0983 C.2       1 UNL1        0.0000
     18 C          43.6680  -15.9211   13.8825 C.3       1 UNL1        0.0000
     19 C          44.6191  -17.0422   14.2424 C.3       1 UNL1        0.0000
     20 C          43.3539  -18.6966   12.8997 C.3       1 UNL1        0.0000
     21 C          42.7027  -17.5243   12.2120 C.3       1 UNL1        0.0000
     22 C          43.7300  -19.0974   15.3264 C.2       1 UNL1        0.0000
     23 C          44.2044  -18.8249   16.6857 C.3       1 UNL1        0.0000
     24 C          45.6889  -18.5812   16.8376 C.3       1 UNL1        0.0000
     25 C          45.0816  -19.7901   17.3989 C.3       1 UNL1        0.0000
     26 C          39.6235  -17.2922   12.6623 C.ar      1 UNL1        0.0000
     27 C          38.5956  -17.7678   11.8799 C.ar      1 UNL1        0.0000
     28 C          38.2277  -17.0834   10.7127 C.ar      1 UNL1        0.0000
     29 O          40.8148  -17.7981    4.8652 O.2       1 UNL1        0.0000
     30 O          43.0875  -20.1975   15.1776 O.2       1 UNL1        0.0000
     31 O          41.2267  -14.6526   13.8383 O.2       1 UNL1        0.0000
     32 F          40.0174  -17.9254   13.8053 F         1 UNL1        0.0000
     33 H          39.5877  -16.3445    3.4288 H         1 UNL1        0.0000
     34 H          38.0195  -14.5495    2.9451 H         1 UNL1        0.0000
     35 H          36.9939  -13.4130    4.8011 H         1 UNL1        0.0000
     36 H          37.4681  -13.9890    7.0795 H         1 UNL1        0.0000
     37 H          37.4759  -15.0393    8.9844 H         1 UNL1        0.0000
     38 H          39.0075  -14.2001    9.1663 H         1 UNL1        0.0000
     39 H          40.3862  -14.6068   10.8245 H         1 UNL1        0.0000
     40 H          43.2747  -15.5020   14.7853 H         1 UNL1        0.0000
     41 H          44.2195  -15.1977   13.3180 H         1 UNL1        0.0000
     42 H          45.0051  -16.8836   15.2273 H         1 UNL1        0.0000
     43 H          45.4330  -17.0642   13.5477 H         1 UNL1        0.0000
     44 H          42.6248  -19.4649   13.0502 H         1 UNL1        0.0000
     45 H          44.1501  -19.0588   12.2834 H         1 UNL1        0.0000
     46 H          41.7241  -17.8163   11.8922 H         1 UNL1        0.0000
     47 H          43.3259  -17.2490   11.3880 H         1 UNL1        0.0000
     48 H          43.2907  -18.3307   16.9412 H         1 UNL1        0.0000
     49 H          46.0405  -17.8073   17.4877 H         1 UNL1        0.0000
     50 H          46.4960  -18.3810   16.1642 H         1 UNL1        0.0000
     51 H          44.9993  -19.8986   18.4602 H         1 UNL1        0.0000
     52 H          45.2752  -20.8370   17.3007 H         1 UNL1        0.0000
     53 H          38.0954  -18.6289   12.1532 H         1 UNL1        0.0000
     54 H          37.4538  -17.4617   10.1439 H         1 UNL1        0.0000
     55 H          41.1149  -18.2288    7.3312 H         1 UNL1        0.0000
@<TRIPOS>BOND
     1    1   18 1
     2    1   21 1
     3    1   17 am
     4    2   19 1
     5    2   20 1
     6    2   22 am
     7    3    4 1
     8    3   12 2
     9    4    5 am
    10    4   55 1
    11    5   29 2
    12    5    6 1
    13    6    7 ar
    14    6   11 ar
    15    7    8 ar
    16    7   33 1
    17    8   34 1
    18    8    9 ar
    19    9   10 ar
    20    9   35 1
    21   10   11 ar
    22   10   36 1
    23   11   12 1
    24   12   13 1
    25   13   37 1
    26   13   38 1
    27   13   14 1
    28   14   15 ar
    29   14   28 ar
    30   15   39 1
    31   15   16 ar
    32   16   26 ar
    33   16   17 1
    34   17   31 2
    35   18   19 1
    36   18   40 1
    37   18   41 1
    38   19   42 1
    39   19   43 1
    40   20   21 1
    41   20   45 1
    42   20   44 1
    43   21   46 1
    44   21   47 1
    45   22   30 2
    46   22   23 1
    47   23   25 1
    48   23   24 1
    49   23   48 1
    50   24   25 1
    51   24   49 1
    52   24   50 1
    53   25   51 1
    54   25   52 1
    55   26   27 ar
    56   26   32 1
    57   27   28 ar
    58   27   53 1
    59   28   54 1
@<TRIPOS>SUBSTRUCTURE
1 UNL1 1
@<TRIPOS>COMMENT
olaparib
PLANTSproteinTorsions
57
1 180.7077
19 215.3784
33 108.7329
53 79.1184
108 143.0722
228 53.0892
405 83.6645
438 37.8405
479 287.9624
492 295.3799
546 160.4668
641 113.6529
776 196.9053
836 333.4177
905 30.1485
919 86.8363
988 209.7906
1139 273.7698
1332 261.7506
1388 197.6756
1606 234.0214
1642 186.1844
1655 213.0949
1759 109.5065
1952 144.9104
1986 68.8168
2049 338.0157
2207 338.7439
2220 138.3055
2267 175.2034
2305 18.5582
2319 29.1660
2601 335.2718
2653 264.5258
2695 47.2827
2741 76.4736
2763 227.1409
2818 232.6311
2847 116.1113
2913 105.2335
2968 162.1732
2982 97.1217
2996 26.6603
3051 291.2183
3105 273.0016
3240 205.5028
3280 226.6385
3290 250.2581
3365 123.9457
3426 154.2960
3477 189.5793
3534 197.5261
3661 136.9605
3685 276.8014
3741 270.1127
3784 284.5966
3862 292.0609
PLANTSmolcadARTstart hb
PLANTSmolcadARTstart HB
LINES
PLANTSmolcadARTstart HBCH
LINES
PLANTSmolcadARTstart HB-CHO
LINES
PLANTSmolcadARTend
PLANTSmolcadARTstart HB_WATER
LINES
PLANTSmolcadARTend

PLANTSmolcadARTend

