@<TRIPOS>MOLECULE
olaparib_entry_00001_conf_77
55 59 1
SMALL
NO_CHARGES


@<TRIPOS>ATOM
      1 N          27.0670    1.8413    5.6114 N.am      1 UNL1        0.0000
      2 N          28.2881    3.8401    4.4881 N.am      1 UNL1        0.0000
      3 N          23.8903   -3.2866    1.4333 N.2       1 UNL1        0.0000
      4 N          23.6964   -4.5802    1.3467 N.am      1 UNL1        0.0000
      5 C          24.6164   -5.4312    0.8710 C.2       1 UNL1        0.0000
      6 C          25.8301   -4.9285    0.4492 C.ar      1 UNL1        0.0000
      7 C          26.8153   -5.7674   -0.0730 C.ar      1 UNL1        0.0000
      8 C          28.0122   -5.2404   -0.5081 C.ar      1 UNL1        0.0000
      9 C          28.1701   -3.8749   -0.4002 C.ar      1 UNL1        0.0000
     10 C          27.2010   -3.0305    0.1154 C.ar      1 UNL1        0.0000
     11 C          26.0213   -3.5625    0.5455 C.ar      1 UNL1        0.0000
     12 C          25.0673   -2.7118    1.0362 C.2       1 UNL1        0.0000
     13 C          25.1790   -1.2744    1.2466 C.3       1 UNL1        0.0000
     14 C          24.8701   -0.9265    2.6611 C.ar      1 UNL1        0.0000
     15 C          25.9498   -0.4283    3.4119 C.ar      1 UNL1        0.0000
     16 C          25.7662   -0.0888    4.7309 C.ar      1 UNL1        0.0000
     17 C          26.8837    0.4350    5.5483 C.2       1 UNL1        0.0000
     18 C          28.1306    2.3841    6.3932 C.3       1 UNL1        0.0000
     19 C          28.5934    3.7350    5.8913 C.3       1 UNL1        0.0000
     20 C          26.8717    3.7876    4.1099 C.3       1 UNL1        0.0000
     21 C          26.1600    2.7006    4.8734 C.3       1 UNL1        0.0000
     22 C          29.2791    3.9850    3.5129 C.2       1 UNL1        0.0000
     23 C          30.7273    4.0392    3.7294 C.3       1 UNL1        0.0000
     24 C          31.5930    3.7174    2.5323 C.3       1 UNL1        0.0000
     25 C          31.5563    2.8064    3.6785 C.3       1 UNL1        0.0000
     26 C          24.5600   -0.2084    5.3796 C.ar      1 UNL1        0.0000
     27 C          23.5039   -0.6962    4.6438 C.ar      1 UNL1        0.0000
     28 C          23.6880   -1.0446    3.2980 C.ar      1 UNL1        0.0000
     29 O          24.4495   -6.6746    0.7814 O.2       1 UNL1        0.0000
     30 O          28.9010    4.0816    2.2910 O.2       1 UNL1        0.0000
     31 O          27.6615   -0.3185    6.1776 O.2       1 UNL1        0.0000
     32 F          24.4287    0.1419    6.6921 F         1 UNL1        0.0000
     33 H          26.6481   -6.7840   -0.1329 H         1 UNL1        0.0000
     34 H          28.7554   -5.8401   -0.8971 H         1 UNL1        0.0000
     35 H          29.0581   -3.4598   -0.7215 H         1 UNL1        0.0000
     36 H          27.3685   -2.0137    0.1740 H         1 UNL1        0.0000
     37 H          24.4906   -0.7694    0.6014 H         1 UNL1        0.0000
     38 H          26.1818   -0.9704    1.0290 H         1 UNL1        0.0000
     39 H          26.8775   -0.3182    2.9737 H         1 UNL1        0.0000
     40 H          28.9578    1.7057    6.3640 H         1 UNL1        0.0000
     41 H          27.7635    2.5177    7.3899 H         1 UNL1        0.0000
     42 H          29.6487    3.8305    6.0380 H         1 UNL1        0.0000
     43 H          28.0941    4.5128    6.4309 H         1 UNL1        0.0000
     44 H          26.7937    3.5893    3.0615 H         1 UNL1        0.0000
     45 H          26.4159    4.7273    4.3428 H         1 UNL1        0.0000
     46 H          25.6106    2.0991    4.1795 H         1 UNL1        0.0000
     47 H          25.5184    3.1754    5.5848 H         1 UNL1        0.0000
     48 H          30.6245    4.8298    4.4426 H         1 UNL1        0.0000
     49 H          32.4717    4.2960    2.3362 H         1 UNL1        0.0000
     50 H          31.4240    3.6192    1.4802 H         1 UNL1        0.0000
     51 H          32.4137    2.7164    4.3123 H         1 UNL1        0.0000
     52 H          31.3520    1.7635    3.7965 H         1 UNL1        0.0000
     53 H          22.5759   -0.8053    5.0833 H         1 UNL1        0.0000
     54 H          22.8796   -1.4083    2.7691 H         1 UNL1        0.0000
     55 H          22.8321   -4.9448    1.6466 H         1 UNL1        0.0000
@<TRIPOS>BOND
     1    1   18 1
     2    1   21 1
     3    1   17 am
     4    2   19 1
     5    2   20 1
     6    2   22 am
     7    3    4 1
     8    3   12 2
     9    4    5 am
    10    4   55 1
    11    5   29 2
    12    5    6 1
    13    6    7 ar
    14    6   11 ar
    15    7    8 ar
    16    7   33 1
    17    8   34 1
    18    8    9 ar
    19    9   10 ar
    20    9   35 1
    21   10   11 ar
    22   10   36 1
    23   11   12 1
    24   12   13 1
    25   13   37 1
    26   13   38 1
    27   13   14 1
    28   14   15 ar
    29   14   28 ar
    30   15   39 1
    31   15   16 ar
    32   16   26 ar
    33   16   17 1
    34   17   31 2
    35   18   19 1
    36   18   40 1
    37   18   41 1
    38   19   42 1
    39   19   43 1
    40   20   21 1
    41   20   45 1
    42   20   44 1
    43   21   46 1
    44   21   47 1
    45   22   30 2
    46   22   23 1
    47   23   25 1
    48   23   24 1
    49   23   48 1
    50   24   25 1
    51   24   49 1
    52   24   50 1
    53   25   51 1
    54   25   52 1
    55   26   27 ar
    56   26   32 1
    57   27   28 ar
    58   27   53 1
    59   28   54 1
@<TRIPOS>SUBSTRUCTURE
1 UNL1 1
@<TRIPOS>COMMENT
olaparib
PLANTSproteinTorsions
57
1 151.8447
19 137.9521
33 207.5080
53 47.2934
108 357.5458
228 147.8757
405 157.4170
438 112.3928
479 132.8462
492 20.3953
546 220.3493
641 125.4275
776 11.1282
836 164.2052
905 113.4340
919 270.1702
988 57.8829
1139 206.3809
1332 207.4535
1388 112.8694
1606 285.6712
1642 287.1743
1655 59.8769
1759 20.1883
1952 145.9525
1986 141.5879
2049 156.7937
2207 130.4664
2220 133.6218
2267 158.8206
2305 113.9994
2319 142.2215
2601 29.0057
2653 104.2817
2695 17.8876
2741 163.5839
2763 68.9090
2818 238.0712
2847 43.9526
2913 300.1951
2968 78.3103
2982 237.6617
2996 264.7473
3051 178.4071
3105 164.5299
3240 264.0177
3280 168.6627
3290 245.9333
3365 247.5081
3426 147.4552
3477 226.3816
3534 244.5913
3661 84.0600
3685 228.8811
3741 222.4952
3784 177.0696
3862 215.0758
PLANTSmolcadARTstart hb
PLANTSmolcadARTstart HB
LINES
27.6615 -0.318488 6.17756 27.0964 -2.10911 6.28751 0 255 0 5
PLANTSmolcadARTstart HBCH
LINES
PLANTSmolcadARTstart HB-CHO
LINES
PLANTSmolcadARTend
PLANTSmolcadARTstart HB_WATER
LINES
PLANTSmolcadARTend

PLANTSmolcadARTend

