@<TRIPOS>MOLECULE
olaparib_entry_00001_conf_97
55 59 1
SMALL
NO_CHARGES


@<TRIPOS>ATOM
      1 N          23.1361  -22.7061    9.0372 N.am      1 UNL1        0.0000
      2 N          21.7174  -22.1075    6.9449 N.am      1 UNL1        0.0000
      3 N          22.4749  -17.6428    9.8293 N.2       1 UNL1        0.0000
      4 N          21.2571  -17.2376   10.0967 N.am      1 UNL1        0.0000
      5 C          20.9632  -16.4119   11.1110 C.2       1 UNL1        0.0000
      6 C          21.9875  -15.9621   11.9186 C.ar      1 UNL1        0.0000
      7 C          21.7345  -15.1173   13.0000 C.ar      1 UNL1        0.0000
      8 C          22.7707  -14.6976   13.8061 C.ar      1 UNL1        0.0000
      9 C          24.0334  -15.1515   13.4884 C.ar      1 UNL1        0.0000
     10 C          24.2988  -15.9901   12.4188 C.ar      1 UNL1        0.0000
     11 C          23.2668  -16.3974   11.6258 C.ar      1 UNL1        0.0000
     12 C          23.5440  -17.2404   10.5832 C.2       1 UNL1        0.0000
     13 C          24.8505  -17.7096   10.1403 C.3       1 UNL1        0.0000
     14 C          25.1183  -19.0795   10.6587 C.ar      1 UNL1        0.0000
     15 C          24.1662  -20.0549   10.3125 C.ar      1 UNL1        0.0000
     16 C          24.3208  -21.3476   10.7528 C.ar      1 UNL1        0.0000
     17 C          23.3341  -22.3959   10.4081 C.2       1 UNL1        0.0000
     18 C          22.1967  -23.7144    8.6659 C.3       1 UNL1        0.0000
     19 C          21.6358  -23.5065    7.2756 C.3       1 UNL1        0.0000
     20 C          23.0585  -21.5168    6.8782 C.3       1 UNL1        0.0000
     21 C          23.9008  -21.9842    8.0372 C.3       1 UNL1        0.0000
     22 C          20.5843  -21.3275    6.6961 C.2       1 UNL1        0.0000
     23 C          19.1865  -21.7653    6.7378 C.3       1 UNL1        0.0000
     24 C          18.6951  -22.5427    5.5377 C.3       1 UNL1        0.0000
     25 C          18.1780  -21.1986    5.8043 C.3       1 UNL1        0.0000
     26 C          25.3772  -21.7580   11.5310 C.ar      1 UNL1        0.0000
     27 C          26.3085  -20.8024   11.8692 C.ar      1 UNL1        0.0000
     28 C          26.1532  -19.4823   11.4226 C.ar      1 UNL1        0.0000
     29 O          19.8023  -16.0113   11.3823 O.2       1 UNL1        0.0000
     30 O          20.7659  -20.0932    6.3983 O.2       1 UNL1        0.0000
     31 O          22.6780  -23.0088   11.2815 O.2       1 UNL1        0.0000
     32 F          25.4857  -23.0543   11.9438 F         1 UNL1        0.0000
     33 H          20.7705  -14.8057   13.1964 H         1 UNL1        0.0000
     34 H          22.6087  -14.0732   14.6105 H         1 UNL1        0.0000
     35 H          24.8230  -14.8502   14.0799 H         1 UNL1        0.0000
     36 H          25.2631  -16.3022   12.2237 H         1 UNL1        0.0000
     37 H          25.6053  -17.0426   10.5014 H         1 UNL1        0.0000
     38 H          24.8626  -17.7383    9.0705 H         1 UNL1        0.0000
     39 H          23.3535  -19.8006    9.7298 H         1 UNL1        0.0000
     40 H          21.3880  -23.7038    9.3670 H         1 UNL1        0.0000
     41 H          22.7115  -24.6530    8.6701 H         1 UNL1        0.0000
     42 H          20.6145  -23.8235    7.2490 H         1 UNL1        0.0000
     43 H          22.1980  -24.0802    6.5683 H         1 UNL1        0.0000
     44 H          22.9764  -20.4507    6.9110 H         1 UNL1        0.0000
     45 H          23.5270  -21.8232    5.9662 H         1 UNL1        0.0000
     46 H          24.3471  -21.1297    8.5018 H         1 UNL1        0.0000
     47 H          24.6359  -22.6566    7.6491 H         1 UNL1        0.0000
     48 H          19.2218  -21.8873    7.8000 H         1 UNL1        0.0000
     49 H          18.0640  -23.3961    5.6746 H         1 UNL1        0.0000
     50 H          19.1626  -23.0234    4.7038 H         1 UNL1        0.0000
     51 H          17.1656  -21.0743    6.1278 H         1 UNL1        0.0000
     52 H          18.1125  -20.2973    5.2328 H         1 UNL1        0.0000
     53 H          27.1217  -21.0583   12.4519 H         1 UNL1        0.0000
     54 H          26.8658  -18.7853   11.6908 H         1 UNL1        0.0000
     55 H          20.5220  -17.5551    9.5235 H         1 UNL1        0.0000
@<TRIPOS>BOND
     1    1   18 1
     2    1   21 1
     3    1   17 am
     4    2   19 1
     5    2   20 1
     6    2   22 am
     7    3    4 1
     8    3   12 2
     9    4    5 am
    10    4   55 1
    11    5   29 2
    12    5    6 1
    13    6    7 ar
    14    6   11 ar
    15    7    8 ar
    16    7   33 1
    17    8   34 1
    18    8    9 ar
    19    9   10 ar
    20    9   35 1
    21   10   11 ar
    22   10   36 1
    23   11   12 1
    24   12   13 1
    25   13   37 1
    26   13   38 1
    27   13   14 1
    28   14   15 ar
    29   14   28 ar
    30   15   39 1
    31   15   16 ar
    32   16   26 ar
    33   16   17 1
    34   17   31 2
    35   18   19 1
    36   18   40 1
    37   18   41 1
    38   19   42 1
    39   19   43 1
    40   20   21 1
    41   20   45 1
    42   20   44 1
    43   21   46 1
    44   21   47 1
    45   22   30 2
    46   22   23 1
    47   23   25 1
    48   23   24 1
    49   23   48 1
    50   24   25 1
    51   24   49 1
    52   24   50 1
    53   25   51 1
    54   25   52 1
    55   26   27 ar
    56   26   32 1
    57   27   28 ar
    58   27   53 1
    59   28   54 1
@<TRIPOS>SUBSTRUCTURE
1 UNL1 1
@<TRIPOS>COMMENT
olaparib
PLANTSproteinTorsions
57
1 122.6061
19 178.4568
33 343.2646
53 289.9938
108 225.4650
228 117.9342
405 118.1667
438 37.9362
479 143.0259
492 2.1032
546 156.5764
641 321.8142
776 1.1015
836 220.5849
905 42.5748
919 356.9971
988 245.7252
1139 212.7469
1332 48.4671
1388 222.5487
1606 153.5039
1642 49.2097
1655 141.4699
1759 127.3960
1952 103.7715
1986 71.2228
2049 282.1189
2207 23.7052
2220 47.4521
2267 177.0536
2305 247.3870
2319 248.1657
2601 292.8252
2653 201.2385
2695 270.2895
2741 265.1106
2763 51.6421
2818 132.0168
2847 88.0323
2913 279.5720
2968 158.2658
2982 246.1672
2996 269.4296
3051 174.7648
3105 205.1634
3240 317.2393
3280 139.9710
3290 267.5206
3365 122.4970
3426 249.8110
3477 18.6289
3534 357.4315
3661 55.1790
3685 249.6533
3741 163.2394
3784 232.6147
3862 228.4168
PLANTSmolcadARTstart hb
PLANTSmolcadARTstart HB
LINES
PLANTSmolcadARTstart HBCH
LINES
PLANTSmolcadARTstart HB-CHO
LINES
PLANTSmolcadARTend
PLANTSmolcadARTstart HB_WATER
LINES
PLANTSmolcadARTend

PLANTSmolcadARTend

