@<TRIPOS>MOLECULE
olaparib_entry_00001_conf_29
55 59 1
SMALL
NO_CHARGES


@<TRIPOS>ATOM
      1 N          26.7129   -7.9626    7.9410 N.am      1 UNL1        0.0000
      2 N          25.9724   -7.0488   10.2572 N.am      1 UNL1        0.0000
      3 N          26.5335   -3.3455    3.6910 N.2       1 UNL1        0.0000
      4 N          27.6547   -2.7766    3.3195 N.am      1 UNL1        0.0000
      5 C          28.2707   -3.0528    2.1615 C.2       1 UNL1        0.0000
      6 C          27.7032   -3.9811    1.3129 C.ar      1 UNL1        0.0000
      7 C          28.3130   -4.3205    0.1046 C.ar      1 UNL1        0.0000
      8 C          27.7390   -5.2662   -0.7174 C.ar      1 UNL1        0.0000
      9 C          26.5622   -5.8396   -0.2843 C.ar      1 UNL1        0.0000
     10 C          25.9463   -5.5127    0.9123 C.ar      1 UNL1        0.0000
     11 C          26.5212   -4.5738    1.7171 C.ar      1 UNL1        0.0000
     12 C          25.9086   -4.2751    2.9046 C.2       1 UNL1        0.0000
     13 C          24.6363   -4.7815    3.4026 C.3       1 UNL1        0.0000
     14 C          24.8105   -6.1308    4.0078 C.ar      1 UNL1        0.0000
     15 C          25.8125   -6.2294    4.9896 C.ar      1 UNL1        0.0000
     16 C          26.0556   -7.4369    5.5992 C.ar      1 UNL1        0.0000
     17 C          27.1057   -7.5735    6.6336 C.2       1 UNL1        0.0000
     18 C          27.6974   -8.1096    8.9638 C.3       1 UNL1        0.0000
     19 C          27.1337   -7.8947   10.3520 C.3       1 UNL1        0.0000
     20 C          24.8345   -7.5649    9.4885 C.3       1 UNL1        0.0000
     21 C          25.3072   -8.2041    8.2082 C.3       1 UNL1        0.0000
     22 C          25.9096   -5.7894   10.8607 C.2       1 UNL1        0.0000
     23 C          26.9606   -5.1339   11.6434 C.3       1 UNL1        0.0000
     24 C          26.6867   -3.7081   12.0656 C.3       1 UNL1        0.0000
     25 C          27.7351   -3.9951   11.0839 C.3       1 UNL1        0.0000
     26 C          25.3610   -8.5854    5.3016 C.ar      1 UNL1        0.0000
     27 C          24.3804   -8.4876    4.3405 C.ar      1 UNL1        0.0000
     28 C          24.1305   -7.2574    3.7158 C.ar      1 UNL1        0.0000
     29 O          29.3452   -2.5169    1.7873 O.2       1 UNL1        0.0000
     30 O          24.8243   -5.1192   10.7260 O.2       1 UNL1        0.0000
     31 O          28.3153   -7.3584    6.3900 O.2       1 UNL1        0.0000
     32 F          25.6406   -9.7615    5.9351 F         1 UNL1        0.0000
     33 H          29.1946   -3.8624   -0.1745 H         1 UNL1        0.0000
     34 H          28.1705   -5.5332   -1.6150 H         1 UNL1        0.0000
     35 H          26.1166   -6.5509   -0.8840 H         1 UNL1        0.0000
     36 H          25.0652   -5.9722    1.1913 H         1 UNL1        0.0000
     37 H          23.9413   -4.8463    2.5916 H         1 UNL1        0.0000
     38 H          24.2686   -4.1129    4.1530 H         1 UNL1        0.0000
     39 H          26.3640   -5.3976    5.2513 H         1 UNL1        0.0000
     40 H          28.4757   -7.3944    8.7953 H         1 UNL1        0.0000
     41 H          28.0657   -9.1136    8.9160 H         1 UNL1        0.0000
     42 H          27.8704   -7.4265   10.9704 H         1 UNL1        0.0000
     43 H          26.8631   -8.8361   10.7831 H         1 UNL1        0.0000
     44 H          24.1719   -6.7582    9.2546 H         1 UNL1        0.0000
     45 H          24.3264   -8.3020   10.0745 H         1 UNL1        0.0000
     46 H          24.7336   -7.8079    7.3964 H         1 UNL1        0.0000
     47 H          25.1774   -9.2605    8.3100 H         1 UNL1        0.0000
     48 H          27.2379   -6.0574   12.1066 H         1 UNL1        0.0000
     49 H          26.9500   -3.3814   13.0501 H         1 UNL1        0.0000
     50 H          25.8220   -3.0783   12.0888 H         1 UNL1        0.0000
     51 H          28.7629   -3.8685   11.3532 H         1 UNL1        0.0000
     52 H          27.9455   -3.6494   10.0942 H         1 UNL1        0.0000
     53 H          23.8288   -9.3208    4.0799 H         1 UNL1        0.0000
     54 H          23.3899   -7.2116    2.9981 H         1 UNL1        0.0000
     55 H          28.0642   -2.1130    3.9210 H         1 UNL1        0.0000
@<TRIPOS>BOND
     1    1   18 1
     2    1   21 1
     3    1   17 am
     4    2   19 1
     5    2   20 1
     6    2   22 am
     7    3    4 1
     8    3   12 2
     9    4    5 am
    10    4   55 1
    11    5   29 2
    12    5    6 1
    13    6    7 ar
    14    6   11 ar
    15    7    8 ar
    16    7   33 1
    17    8   34 1
    18    8    9 ar
    19    9   10 ar
    20    9   35 1
    21   10   11 ar
    22   10   36 1
    23   11   12 1
    24   12   13 1
    25   13   37 1
    26   13   38 1
    27   13   14 1
    28   14   15 ar
    29   14   28 ar
    30   15   39 1
    31   15   16 ar
    32   16   26 ar
    33   16   17 1
    34   17   31 2
    35   18   19 1
    36   18   40 1
    37   18   41 1
    38   19   42 1
    39   19   43 1
    40   20   21 1
    41   20   45 1
    42   20   44 1
    43   21   46 1
    44   21   47 1
    45   22   30 2
    46   22   23 1
    47   23   25 1
    48   23   24 1
    49   23   48 1
    50   24   25 1
    51   24   49 1
    52   24   50 1
    53   25   51 1
    54   25   52 1
    55   26   27 ar
    56   26   32 1
    57   27   28 ar
    58   27   53 1
    59   28   54 1
@<TRIPOS>SUBSTRUCTURE
1 UNL1 1
@<TRIPOS>COMMENT
olaparib
PLANTSproteinTorsions
57
1 324.6049
19 214.4246
33 346.0110
53 63.2308
108 70.4633
228 49.3180
405 191.1735
438 193.2538
479 74.0311
492 13.9855
546 202.0613
641 19.0664
776 104.0203
836 165.3530
905 195.1686
919 13.7967
988 24.2361
1139 109.8055
1332 164.1206
1388 231.9062
1606 58.1232
1642 176.0939
1655 243.6980
1759 3.8380
1952 115.4374
1986 49.2310
2049 318.3060
2207 160.5969
2220 132.3612
2267 56.2373
2305 251.6864
2319 209.3836
2601 223.7577
2653 208.6617
2695 321.8302
2741 277.5897
2763 28.3551
2818 235.0574
2847 217.1131
2913 283.2532
2968 104.8485
2982 197.6808
2996 36.6616
3051 221.5381
3105 78.5200
3240 251.2516
3280 129.5144
3290 245.7516
3365 266.8107
3426 230.2665
3477 22.5207
3534 101.9281
3661 3.3679
3685 98.1616
3741 216.9920
3784 264.0564
3862 246.7975
PLANTSmolcadARTstart hb
PLANTSmolcadARTstart HB
LINES
26.5335 -3.34548 3.691 26.5515 -3.05882 5.3044 0 255 0 5
PLANTSmolcadARTstart HBCH
LINES
PLANTSmolcadARTstart HB-CHO
LINES
PLANTSmolcadARTend
PLANTSmolcadARTstart HB_WATER
LINES
PLANTSmolcadARTend

PLANTSmolcadARTend

