@<TRIPOS>MOLECULE
olaparib_entry_00001_conf_78
55 59 1
SMALL
NO_CHARGES


@<TRIPOS>ATOM
      1 N           8.3484    5.4356   24.7648 N.am      1 UNL1        0.0000
      2 N           6.8383    4.1089   26.4104 N.am      1 UNL1        0.0000
      3 N           5.7168    2.8041   22.1787 N.2       1 UNL1        0.0000
      4 N           5.7705    1.6520   22.8020 N.am      1 UNL1        0.0000
      5 C           5.7619    0.4715   22.1668 C.2       1 UNL1        0.0000
      6 C           5.6928    0.4599   20.7889 C.ar      1 UNL1        0.0000
      7 C           5.6606   -0.7410   20.0790 C.ar      1 UNL1        0.0000
      8 C           5.5699   -0.7286   18.7038 C.ar      1 UNL1        0.0000
      9 C           5.5131    0.5058   18.0920 C.ar      1 UNL1        0.0000
     10 C           5.5437    1.7052   18.7838 C.ar      1 UNL1        0.0000
     11 C           5.6362    1.6818   20.1442 C.ar      1 UNL1        0.0000
     12 C           5.6476    2.8760   20.8137 C.2       1 UNL1        0.0000
     13 C           5.6599    4.2168   20.2434 C.3       1 UNL1        0.0000
     14 C           6.9255    4.9213   20.5891 C.ar      1 UNL1        0.0000
     15 C           7.0480    5.3227   21.9313 C.ar      1 UNL1        0.0000
     16 C           8.1763    5.9895   22.3449 C.ar      1 UNL1        0.0000
     17 C           8.3333    6.4281   23.7501 C.2       1 UNL1        0.0000
     18 C           8.5028    5.8192   26.1308 C.3       1 UNL1        0.0000
     19 C           7.8875    4.8232   27.0902 C.3       1 UNL1        0.0000
     20 C           7.2289    3.2937   25.2551 C.3       1 UNL1        0.0000
     21 C           8.2058    4.0422   24.3853 C.3       1 UNL1        0.0000
     22 C           5.5015    4.1750   26.8139 C.2       1 UNL1        0.0000
     23 C           4.9555    4.9506   27.9308 C.3       1 UNL1        0.0000
     24 C           4.9940    4.2840   29.2874 C.3       1 UNL1        0.0000
     25 C           3.7110    4.5247   28.6233 C.3       1 UNL1        0.0000
     26 C           9.2213    6.2963   21.5060 C.ar      1 UNL1        0.0000
     27 C           9.1002    5.9029   20.1924 C.ar      1 UNL1        0.0000
     28 C           7.9499    5.2233   19.7667 C.ar      1 UNL1        0.0000
     29 O           5.8140   -0.6433   22.7467 O.2       1 UNL1        0.0000
     30 O           4.6449    3.4913   26.1476 O.2       1 UNL1        0.0000
     31 O           8.4518    7.6348   24.0640 O.2       1 UNL1        0.0000
     32 F          10.3211    6.9613   21.9652 F         1 UNL1        0.0000
     33 H           5.7055   -1.6398   20.5841 H         1 UNL1        0.0000
     34 H           5.5451   -1.6027   18.1575 H         1 UNL1        0.0000
     35 H           5.4436    0.5375   17.0633 H         1 UNL1        0.0000
     36 H           5.4977    2.6037   18.2780 H         1 UNL1        0.0000
     37 H           4.8309    4.7719   20.6304 H         1 UNL1        0.0000
     38 H           5.5893    4.1397   19.1783 H         1 UNL1        0.0000
     39 H           6.2927    5.1175   22.6036 H         1 UNL1        0.0000
     40 H           8.0322    6.7697   26.2748 H         1 UNL1        0.0000
     41 H           9.5522    5.8621   26.3379 H         1 UNL1        0.0000
     42 H           7.4823    5.3405   27.9342 H         1 UNL1        0.0000
     43 H           8.6351    4.1358   27.4279 H         1 UNL1        0.0000
     44 H           6.3582    3.0555   24.6809 H         1 UNL1        0.0000
     45 H           7.6965    2.3974   25.6059 H         1 UNL1        0.0000
     46 H           7.8640    3.9989   23.3721 H         1 UNL1        0.0000
     47 H           9.1618    3.5784   24.5038 H         1 UNL1        0.0000
     48 H           5.2768    5.8717   27.4918 H         1 UNL1        0.0000
     49 H           5.2626    4.8506   30.1547 H         1 UNL1        0.0000
     50 H           5.4870    3.4267   29.6960 H         1 UNL1        0.0000
     51 H           3.0416    5.2624   29.0141 H         1 UNL1        0.0000
     52 H           2.8817    3.9053   28.3554 H         1 UNL1        0.0000
     53 H           9.8571    6.1084   19.5207 H         1 UNL1        0.0000
     54 H           7.8843    4.9399   18.7763 H         1 UNL1        0.0000
     55 H           5.8202    1.6540   23.7855 H         1 UNL1        0.0000
@<TRIPOS>BOND
     1    1   18 1
     2    1   21 1
     3    1   17 am
     4    2   19 1
     5    2   20 1
     6    2   22 am
     7    3    4 1
     8    3   12 2
     9    4    5 am
    10    4   55 1
    11    5   29 2
    12    5    6 1
    13    6    7 ar
    14    6   11 ar
    15    7    8 ar
    16    7   33 1
    17    8   34 1
    18    8    9 ar
    19    9   10 ar
    20    9   35 1
    21   10   11 ar
    22   10   36 1
    23   11   12 1
    24   12   13 1
    25   13   37 1
    26   13   38 1
    27   13   14 1
    28   14   15 ar
    29   14   28 ar
    30   15   39 1
    31   15   16 ar
    32   16   26 ar
    33   16   17 1
    34   17   31 2
    35   18   19 1
    36   18   40 1
    37   18   41 1
    38   19   42 1
    39   19   43 1
    40   20   21 1
    41   20   45 1
    42   20   44 1
    43   21   46 1
    44   21   47 1
    45   22   30 2
    46   22   23 1
    47   23   25 1
    48   23   24 1
    49   23   48 1
    50   24   25 1
    51   24   49 1
    52   24   50 1
    53   25   51 1
    54   25   52 1
    55   26   27 ar
    56   26   32 1
    57   27   28 ar
    58   27   53 1
    59   28   54 1
@<TRIPOS>SUBSTRUCTURE
1 UNL1 1
@<TRIPOS>COMMENT
olaparib
PLANTSproteinTorsions
57
1 77.2080
19 352.4855
33 63.3667
53 36.6072
108 158.5524
228 230.6492
405 239.0686
438 95.3545
479 124.6348
492 105.7315
546 256.3918
641 107.6963
776 329.5398
836 162.6628
905 153.2907
919 66.8193
988 311.2680
1139 24.5664
1332 227.6934
1388 13.7116
1606 245.4796
1642 154.0749
1655 50.9074
1759 223.5000
1952 69.4173
1986 180.3352
2049 147.5654
2207 76.3755
2220 201.1953
2267 222.8182
2305 160.1943
2319 166.3789
2601 103.1630
2653 233.0125
2695 260.8300
2741 139.9814
2763 138.7998
2818 24.5085
2847 19.1925
2913 196.3543
2968 64.7963
2982 51.5357
2996 273.1058
3051 316.5786
3105 277.4431
3240 176.3135
3280 330.5650
3290 266.7325
3365 266.5148
3426 264.7560
3477 189.7649
3534 198.9422
3661 239.4160
3685 175.4121
3741 238.7563
3784 179.7497
3862 241.0518
PLANTSmolcadARTstart hb
PLANTSmolcadARTstart HB
LINES
5.814 -0.643268 22.7467 6.94005 -2.2501 22.2193 0 255 0 5
PLANTSmolcadARTstart HBCH
LINES
PLANTSmolcadARTstart HB-CHO
LINES
PLANTSmolcadARTend
PLANTSmolcadARTstart HB_WATER
LINES
PLANTSmolcadARTend

PLANTSmolcadARTend

