@<TRIPOS>MOLECULE
olaparib_entry_00001_conf_25_protein
164 107 56
SMALL
NO_CHARGES


@<TRIPOS>ATOM
      1 H          -1.5459  -17.5162   29.9644 H       764 LYS764      0.0000
      2 N          -1.8090  -17.0210   30.7870 N.4     764 LYS764      1.0000
      3 HZ1        -5.2715  -12.7288   33.7032 H       764 LYS764      0.0000
      4 NZ         -4.6160  -11.9740   33.7550 N.4     764 LYS764      1.0000
      5 HZ2        -4.6402  -11.5750   34.6718 H       764 LYS764      0.0000
      6 HZ3        -4.8599  -11.2755   33.0819 H       764 LYS764      0.0000
      7 H2         -1.4064  -17.4545   31.5882 H       764 LYS764      0.0000
      8 H3         -2.8012  -17.0054   30.8711 H       764 LYS764      0.0000
      9 HG          4.2349  -12.7277   30.9945 H       765 SER765      0.0000
     10 OG          4.1840  -13.1860   30.1070 O.3     765 SER765      0.0000
     11 HZ1         1.2744  -14.6024   37.4991 H       766 LYS766      0.0000
     12 NZ          1.4050  -15.2360   38.2610 N.4     766 LYS766      1.0000
     13 HZ2         0.5164  -15.5187   38.6190 H       766 LYS766      0.0000
     14 HZ3         1.9304  -14.7879   38.9833 H       766 LYS766      0.0000
     15 HZ1         1.3592   -4.4290   25.0439 H       769 LYS769      0.0000
     16 NZ          1.4680   -4.0750   25.9730 N.4     769 LYS769      1.0000
     17 HZ2         0.9782   -3.2066   26.0571 H       769 LYS769      0.0000
     18 HZ3         2.4395   -3.9284   26.1609 H       769 LYS769      0.0000
     19 HZ1         0.5948   -8.9750   23.5322 H       776 LYS776      0.0000
     20 NZ          0.1170   -9.7850   23.1900 N.4     776 LYS776      1.0000
     21 HZ2        -0.5335   -9.5125   22.4805 H       776 LYS776      0.0000
     22 HZ3        -0.3762  -10.2224   23.9433 H       776 LYS776      0.0000
     23 HH         13.5065  -13.3515   31.6916 H       794 TYR794      0.0000
     24 OH         13.9770  -13.7890   30.9260 O.3     794 TYR794      0.0000
     25 HZ1         7.2920  -22.3625   20.7262 H       796 LYS796      0.0000
     26 NZ          8.2050  -22.0980   20.4120 N.4     796 LYS796      1.0000
     27 HZ2         8.2383  -21.1059   20.2866 H       796 LYS796      0.0000
     28 HZ3         8.4016  -22.5496   19.5412 H       796 LYS796      0.0000
     29 HZ1        16.0392  -25.0477   27.1402 H       798 LYS798      0.0000
     30 NZ         16.9690  -24.6940   27.0300 N.4     798 LYS798      1.0000
     31 HZ2        17.5788  -25.4403   26.7611 H       798 LYS798      0.0000
     32 HZ3        17.2823  -24.3064   27.8983 H       798 LYS798      0.0000
     33 HG1        19.9947  -15.4215   25.7013 H       799 THR799      0.0000
     34 OG1        19.0880  -15.1290   25.3720 O.3     799 THR799      0.0000
     35 HZ1        19.8622   -8.9087   36.8960 H       802 LYS802      0.0000
     36 NZ         18.9140   -9.0730   37.1700 N.4     802 LYS802      1.0000
     37 HZ2        18.5501   -8.2543   37.6158 H       802 LYS802      0.0000
     38 HZ3        18.8805   -9.8418   37.8090 H       802 LYS802      0.0000
     39 HG         19.6301    3.5128   33.5627 H       808 SER808      0.0000
     40 OG         18.8290    3.0870   33.9750 O.3     808 SER808      0.0000
     41 HZ1        26.3224   13.9846   28.0797 H       816 LYS816      0.0000
     42 NZ         27.0940   13.5620   27.6020 N.4     816 LYS816      1.0000
     43 HZ2        27.5496   12.9137   28.2143 H       816 LYS816      0.0000
     44 HZ3        27.7434   14.2718   27.3273 H       816 LYS816      0.0000
     45 HZ1        19.6206   16.6662   22.7687 H       819 LYS819      0.0000
     46 NZ         20.4900   16.2240   22.9930 N.4     819 LYS819      1.0000
     47 HZ2        20.3734   15.6620   23.8128 H       819 LYS819      0.0000
     48 HZ3        21.1823   16.9256   23.1692 H       819 LYS819      0.0000
     49 HG1        27.8986   13.7039    8.6698 H       824 THR824      0.0000
     50 OG1        27.0480   13.5740    8.1490 O.3     824 THR824      0.0000
     51 HG1        27.2873    9.1129    6.1591 H       825 THR825      0.0000
     52 OG1        26.3170    9.0170    5.9110 O.3     825 THR825      0.0000
     53 HH         19.5752    3.2072   10.6865 H       829 TYR829      0.0000
     54 OH         19.7890    4.1170   10.3320 O.3     829 TYR829      0.0000
     55 HZ1        24.8632   -4.8029   34.2954 H       838 LYS838      0.0000
     56 NZ         23.9540   -4.4680   34.0450 N.4     838 LYS838      1.0000
     57 HZ2        24.0159   -3.5045   33.7825 H       838 LYS838      0.0000
     58 HZ3        23.3391   -4.5590   34.8291 H       838 LYS838      0.0000
     59 HZ1        34.9807  -20.5957   34.6804 H       849 LYS849      0.0000
     60 NZ         35.3740  -19.7320   34.9990 N.4     849 LYS849      1.0000
     61 HZ2        36.3460  -19.8625   35.1981 H       849 LYS849      0.0000
     62 HZ3        34.9012  -19.4379   35.8305 H       849 LYS849      0.0000
     63 HZ1        33.8154   -9.3546   30.5053 H       852 LYS852      0.0000
     64 NZ         34.3540   -8.6150   30.9110 N.4     852 LYS852      1.0000
     65 HZ2        33.9193   -7.7365   30.7068 H       852 LYS852      0.0000
     66 HZ3        35.2772   -8.6265   30.5260 H       852 LYS852      0.0000
     67 HG         20.1478  -10.4499   12.5588 H       864 SER864      0.0000
     68 OG         20.4070   -9.6170   12.0730 O.3     864 SER864      0.0000
     69 HG1        12.0896   -6.0381   13.2592 H       866 THR866      0.0000
     70 OG1        12.7710   -6.5990   13.7440 O.3     866 THR866      0.0000
     71 HG1        14.1079  -11.0213    9.9742 H       867 THR867      0.0000
     72 OG1        13.8710  -11.9580    9.6910 O.3     867 THR867      0.0000
     73 HG         18.5032  -18.4553   19.1143 H       874 SER874      0.0000
     74 OG         18.3140  -19.3790   19.4500 O.3     874 SER874      0.0000
     75 HG1        29.5303  -10.5958   -2.7981 H       887 THR887      0.0000
     76 OG1        28.7570  -10.8640   -2.2110 O.3     887 THR887      0.0000
     77 HH         26.6709  -11.3627    7.3321 H       889 TYR889      0.0000
     78 OH         27.4610  -11.9710    7.4180 O.3     889 TYR889      0.0000
     79 HZ1        31.8565  -17.6301    2.7121 H       893 LYS893      0.0000
     80 NZ         31.0380  -17.4100    3.2450 N.4     893 LYS893      1.0000
     81 HZ2        30.9328  -18.0771    3.9834 H       893 LYS893      0.0000
     82 HZ3        30.2348  -17.4457    2.6492 H       893 LYS893      0.0000
     83 HZ1        31.5700    0.8648    7.8401 H       903 LYS903      0.0000
     84 NZ         31.2940    1.1550    8.7570 N.4     903 LYS903      1.0000
     85 HZ2        31.3790    2.1497    8.8304 H       903 LYS903      0.0000
     86 HZ3        31.8878    0.7205    9.4353 H       903 LYS903      0.0000
     87 HG         25.9324   -2.2430   13.6184 H       904 SER904      0.0000
     88 OG         25.7970   -1.4170   14.1610 O.3     904 SER904      0.0000
     89 HH         26.6644   -3.4461    5.3470 H       907 TYR907      0.0000
     90 OH         26.8550   -3.0780    6.2560 O.3     907 TYR907      0.0000
     91 HG1        14.9235    0.1748   10.3070 H       910 THR910      0.0000
     92 OG1        14.0450    0.5090    9.9470 O.3     910 THR910      0.0000
     93 HG          9.6788   -2.0091    5.8733 H       911 SER911      0.0000
     94 OG          9.2550   -1.1060    5.8440 O.3     911 SER911      0.0000
     95 HH         47.2368   -6.2875    7.1259 H       930 TYR930      0.0000
     96 OH         47.6330   -6.7930    7.8910 O.3     930 TYR930      0.0000
     97 HZ1        44.9494    6.0033    4.8650 H       933 LYS933      0.0000
     98 NZ         45.5450    5.4620    5.4640 N.4     933 LYS933      1.0000
     99 HZ2        45.6331    5.9330    6.3458 H       933 LYS933      0.0000
    100 HZ3        46.4521    5.3902    5.0410 H       933 LYS933      0.0000
    101 HG         43.4300   -8.0617    2.3685 H       936 SER936      0.0000
    102 OG         43.3320   -7.7720    3.3190 O.3     936 SER936      0.0000
    103 HG         46.5406  -15.9158    5.1578 H       939 SER939      0.0000
    104 OG         45.8480  -15.5290    5.7620 O.3     939 SER939      0.0000
    105 HZ1        47.8598  -19.8744   12.1985 H       940 LYS940      0.0000
    106 NZ         48.4430  -19.1590   12.5840 N.4     940 LYS940      1.0000
    107 HZ2        49.2664  -19.0632   12.0238 H       940 LYS940      0.0000
    108 HZ3        48.7023  -19.4082   13.5173 H       940 LYS940      0.0000
    109 HZ1        55.4664  -15.5831   14.0358 H       943 LYS943      0.0000
    110 NZ         54.8780  -16.3930   14.0810 N.4     943 LYS943      1.0000
    111 HZ2        55.1474  -16.9521   14.8678 H       943 LYS943      0.0000
    112 HZ3        54.9920  -16.9293   13.2420 H       943 LYS943      0.0000
    113 HZ1        48.8785   -3.7130   16.2685 H       945 LYS945      0.0000
    114 NZ         47.9660   -3.9500   15.9300 N.4     945 LYS945      1.0000
    115 HZ2        47.6523   -3.2354   15.3021 H       945 LYS945      0.0000
    116 HZ3        47.3319   -4.0096   16.7035 H       945 LYS945      0.0000
    117 HZ1        38.5225    4.3097   15.9615 H       949 LYS949      0.0000
    118 NZ         39.0210    3.4460   16.0470 N.4     949 LYS949      1.0000
    119 HZ2        38.9514    3.1158   16.9896 H       949 LYS949      0.0000
    120 HZ3        39.9836    3.5947   15.8178 H       949 LYS949      0.0000
    121 HZ1        39.4389   12.0934    3.5715 H       953 LYS953      0.0000
    122 NZ         39.3720   11.7790    4.5190 N.4     953 LYS953      1.0000
    123 HZ2        39.6220   12.5256    5.1357 H       953 LYS953      0.0000
    124 HZ3        39.9946   11.0088    4.6585 H       953 LYS953      0.0000
    125 HG1        32.5043   11.0985    8.6682 H       954 THR954      0.0000
    126 OG1        32.8150   11.4890    9.5420 O.3     954 THR954      0.0000
    127 HG1        35.4566    7.0786   16.0202 H       955 THR955      0.0000
    128 OG1        36.2440    7.7040   15.9730 O.3     955 THR955      0.0000
    129 HG         36.9235   15.8163   23.4346 H       959 SER959      0.0000
    130 OG         36.7030   14.9300   23.8350 O.3     959 SER959      0.0000
    131 HG         35.3798    1.8244   31.9238 H       963 SER963      0.0000
    132 OG         34.6240    2.2350   32.4300 O.3     963 SER963      0.0000
    133 HG1        29.6970   16.4792   18.8016 H       973 THR973      0.0000
    134 OG1        29.9090   15.5570   19.1430 O.3     973 THR973      0.0000
    135 HG         39.0537   15.2627    9.8853 H       976 SER976      0.0000
    136 OG         38.2040   14.7390    9.8050 O.3     976 SER976      0.0000
    137 HG         39.8458   10.3364   10.2047 H       977 SER977      0.0000
    138 OG         39.0840    9.7360   10.4400 O.3     977 SER977      0.0000
    139 HG         37.8599    1.4415   -0.4324 H       983 SER983      0.0000
    140 OG         38.3060    1.7120    0.4210 O.3     983 SER983      0.0000
    141 HH         28.8033   10.1345    7.3677 H       986 TYR986      0.0000
    142 OH         28.1490    9.4530    7.6940 O.3     986 TYR986      0.0000
    143 HH         36.4470    2.2409   17.7948 H       989 TYR989      0.0000
    144 OH         35.5890    2.1920   17.2870 O.3     989 TYR989      0.0000
    145 HH         37.7087   -9.5670    9.1179 H       992 TYR992      0.0000
    146 OH         38.5210   -9.6720    9.6920 O.3     992 TYR992      0.0000
    147 HZ1        28.7216   -5.6989   31.5295 H      1000 LYS1000     0.0000
    148 NZ         28.7270   -4.9670   30.8480 N.4    1000 LYS1000     1.0000
    149 HZ2        29.5473   -5.0438   30.2809 H      1000 LYS1000     0.0000
    150 HZ3        28.7218   -4.0809   31.3101 H      1000 LYS1000     0.0000
    151 HH         24.6381   -0.7664   30.8293 H      1001 TYR1001     0.0000
    152 OH         24.3090   -1.7060   30.9120 O.3    1001 TYR1001     0.0000
    153 HZ1         6.8366   -2.5705   21.3611 H      1004 LYS1004     0.0000
    154 NZ          7.6740   -2.8190   21.8480 N.4    1004 LYS1004     1.0000
    155 HZ2         7.8974   -3.7753   21.6609 H      1004 LYS1004     0.0000
    156 HZ3         7.5372   -2.6950   22.8309 H      1004 LYS1004     0.0000
    157 HZ1         7.0919    6.3496   16.0748 H      1006 LYS1006     0.0000
    158 NZ          6.7120    6.1960   15.1620 N.4    1006 LYS1006     1.0000
    159 HZ2         6.7301    7.0528   14.6454 H      1006 LYS1006     0.0000
    160 HZ3         5.7674    5.8769   15.2440 H      1006 LYS1006     0.0000
    161 HZ1        16.3510   14.2607    9.3533 H      1010 LYS1010     0.0000
    162 NZ         16.4710   13.2710    9.2670 N.4    1010 LYS1010     1.0000
    163 HZ2        16.9612   12.9239   10.0667 H      1010 LYS1010     0.0000
    164 HZ3        16.9987   13.0708    8.4404 H      1010 LYS1010     0.0000
@<TRIPOS>BOND
     1    2    7 1
     2    2    8 1
     3    2    1 1
     4    4    3 1
     5    4    5 1
     6    4    6 1
     7   10    9 1
     8   12   11 1
     9   12   13 1
    10   12   14 1
    11   16   18 1
    12   16   15 1
    13   16   17 1
    14   20   19 1
    15   20   21 1
    16   20   22 1
    17   24   23 1
    18   26   28 1
    19   26   25 1
    20   26   27 1
    21   30   31 1
    22   30   32 1
    23   30   29 1
    24   34   33 1
    25   36   35 1
    26   36   37 1
    27   36   38 1
    28   40   39 1
    29   42   43 1
    30   42   44 1
    31   42   41 1
    32   46   45 1
    33   46   47 1
    34   46   48 1
    35   50   49 1
    36   52   51 1
    37   54   53 1
    38   56   55 1
    39   56   58 1
    40   56   57 1
    41   60   59 1
    42   60   61 1
    43   60   62 1
    44   64   63 1
    45   64   65 1
    46   64   66 1
    47   68   67 1
    48   70   69 1
    49   72   71 1
    50   74   73 1
    51   76   75 1
    52   78   77 1
    53   80   79 1
    54   80   81 1
    55   80   82 1
    56   84   83 1
    57   84   85 1
    58   84   86 1
    59   88   87 1
    60   90   89 1
    61   92   91 1
    62   94   93 1
    63   96   95 1
    64   98   97 1
    65   98   99 1
    66   98  100 1
    67  102  101 1
    68  104  103 1
    69  106  105 1
    70  106  107 1
    71  106  108 1
    72  110  112 1
    73  110  109 1
    74  110  111 1
    75  114  116 1
    76  114  113 1
    77  114  115 1
    78  118  117 1
    79  118  119 1
    80  118  120 1
    81  122  121 1
    82  122  123 1
    83  122  124 1
    84  126  125 1
    85  128  127 1
    86  130  129 1
    87  132  131 1
    88  134  133 1
    89  136  135 1
    90  138  137 1
    91  140  139 1
    92  142  141 1
    93  144  143 1
    94  146  145 1
    95  148  147 1
    96  148  149 1
    97  148  150 1
    98  152  151 1
    99  154  153 1
   100  154  156 1
   101  154  155 1
   102  158  157 1
   103  158  159 1
   104  158  160 1
   105  162  164 1
   106  162  161 1
   107  162  163 1
@<TRIPOS>SUBSTRUCTURE
764 LYS764 1
765 SER765 9
766 LYS766 11
769 LYS769 15
776 LYS776 19
794 TYR794 23
796 LYS796 25
798 LYS798 29
799 THR799 33
802 LYS802 35
808 SER808 39
816 LYS816 41
819 LYS819 45
824 THR824 49
825 THR825 51
829 TYR829 53
838 LYS838 55
849 LYS849 59
852 LYS852 63
864 SER864 67
866 THR866 69
867 THR867 71
874 SER874 73
887 THR887 75
889 TYR889 77
893 LYS893 79
903 LYS903 83
904 SER904 87
907 TYR907 89
910 THR910 91
911 SER911 93
930 TYR930 95
933 LYS933 97
936 SER936 101
939 SER939 103
940 LYS940 105
943 LYS943 109
945 LYS945 113
949 LYS949 117
953 LYS953 121
954 THR954 125
955 THR955 127
959 SER959 129
963 SER963 131
973 THR973 133
976 SER976 135
977 SER977 137
983 SER983 139
986 TYR986 141
989 TYR989 143
992 TYR992 145
1000 LYS1000 147
1001 TYR1001 151
1004 LYS1004 153
1006 LYS1006 157
1010 LYS1010 161
@<TRIPOS>COMMENT
