@<TRIPOS>MOLECULE
olaparib_entry_00001_conf_35
55 59 1
SMALL
NO_CHARGES


@<TRIPOS>ATOM
      1 N          25.6213   -8.5804    8.2394 N.am      1 UNL1        0.0000
      2 N          27.1408   -7.0550    9.6930 N.am      1 UNL1        0.0000
      3 N          24.6242  -14.5014    8.0150 N.2       1 UNL1        0.0000
      4 N          24.2726  -15.5295    7.2814 N.am      1 UNL1        0.0000
      5 C          24.1360  -16.7697    7.7713 C.2       1 UNL1        0.0000
      6 C          24.3758  -16.9833    9.1131 C.ar      1 UNL1        0.0000
      7 C          24.2676  -18.2579    9.6706 C.ar      1 UNL1        0.0000
      8 C          24.5327  -18.4514   11.0092 C.ar      1 UNL1        0.0000
      9 C          24.9015  -17.3421   11.7403 C.ar      1 UNL1        0.0000
     10 C          25.0132  -16.0718   11.2003 C.ar      1 UNL1        0.0000
     11 C          24.7462  -15.8906    9.8752 C.ar      1 UNL1        0.0000
     12 C          24.8784  -14.6317    9.3535 C.2       1 UNL1        0.0000
     13 C          25.1950  -13.4009   10.0663 C.3       1 UNL1        0.0000
     14 C          24.1822  -12.3499    9.7717 C.ar      1 UNL1        0.0000
     15 C          24.6613  -11.2248    9.0772 C.ar      1 UNL1        0.0000
     16 C          23.8040  -10.1961    8.7683 C.ar      1 UNL1        0.0000
     17 C          24.2789   -8.9972    8.0412 C.2       1 UNL1        0.0000
     18 C          26.1169   -7.4320    7.5521 C.3       1 UNL1        0.0000
     19 C          27.2527   -6.7553    8.2891 C.3       1 UNL1        0.0000
     20 C          27.2546   -8.4645   10.0834 C.3       1 UNL1        0.0000
     21 C          26.4649   -9.3392    9.1440 C.3       1 UNL1        0.0000
     22 C          26.9320   -6.0651   10.6577 C.2       1 UNL1        0.0000
     23 C          26.7841   -4.6259   10.4258 C.3       1 UNL1        0.0000
     24 C          28.0650   -3.8247   10.3676 C.3       1 UNL1        0.0000
     25 C          27.1329   -3.6398   11.4821 C.3       1 UNL1        0.0000
     26 C          22.4710  -10.1985    9.1043 C.ar      1 UNL1        0.0000
     27 C          22.0030  -11.3002    9.7841 C.ar      1 UNL1        0.0000
     28 C          22.8753  -12.3512   10.1018 C.ar      1 UNL1        0.0000
     29 O          23.7986  -17.7676    7.0842 O.2       1 UNL1        0.0000
     30 O          26.8582   -6.4358   11.8834 O.2       1 UNL1        0.0000
     31 O          23.5387   -8.3493    7.2659 O.2       1 UNL1        0.0000
     32 F          21.6599   -9.1513    8.7752 F         1 UNL1        0.0000
     33 H          23.9881  -19.0568    9.0801 H         1 UNL1        0.0000
     34 H          24.4591  -19.3836   11.4438 H         1 UNL1        0.0000
     35 H          25.1057  -17.4653   12.7440 H         1 UNL1        0.0000
     36 H          25.2939  -15.2734   11.7912 H         1 UNL1        0.0000
     37 H          26.1604  -13.0552    9.7606 H         1 UNL1        0.0000
     38 H          25.1884  -13.5994   11.1179 H         1 UNL1        0.0000
     39 H          25.6539  -11.1717    8.8005 H         1 UNL1        0.0000
     40 H          25.3170   -6.7304    7.4365 H         1 UNL1        0.0000
     41 H          26.4952   -7.7599    6.6058 H         1 UNL1        0.0000
     42 H          27.1970   -5.6974    8.1415 H         1 UNL1        0.0000
     43 H          28.1903   -7.1112    7.9154 H         1 UNL1        0.0000
     44 H          26.8780   -8.5867   11.0773 H         1 UNL1        0.0000
     45 H          28.2839   -8.7538   10.0404 H         1 UNL1        0.0000
     46 H          25.8435   -9.9896    9.7237 H         1 UNL1        0.0000
     47 H          27.1655   -9.8840    8.5476 H         1 UNL1        0.0000
     48 H          25.9178   -4.7792    9.8172 H         1 UNL1        0.0000
     49 H          28.1817   -3.0544    9.6339 H         1 UNL1        0.0000
     50 H          29.1044   -4.0639   10.2805 H         1 UNL1        0.0000
     51 H          26.5768   -2.7292   11.5631 H         1 UNL1        0.0000
     52 H          27.2238   -3.6861   12.5465 H         1 UNL1        0.0000
     53 H          21.0093  -11.3523   10.0598 H         1 UNL1        0.0000
     54 H          22.4988  -13.1655   10.6124 H         1 UNL1        0.0000
     55 H          24.0998  -15.3830    6.3230 H         1 UNL1        0.0000
@<TRIPOS>BOND
     1    1   18 1
     2    1   21 1
     3    1   17 am
     4    2   19 1
     5    2   20 1
     6    2   22 am
     7    3    4 1
     8    3   12 2
     9    4    5 am
    10    4   55 1
    11    5   29 2
    12    5    6 1
    13    6    7 ar
    14    6   11 ar
    15    7    8 ar
    16    7   33 1
    17    8   34 1
    18    8    9 ar
    19    9   10 ar
    20    9   35 1
    21   10   11 ar
    22   10   36 1
    23   11   12 1
    24   12   13 1
    25   13   37 1
    26   13   38 1
    27   13   14 1
    28   14   15 ar
    29   14   28 ar
    30   15   39 1
    31   15   16 ar
    32   16   26 ar
    33   16   17 1
    34   17   31 2
    35   18   19 1
    36   18   40 1
    37   18   41 1
    38   19   42 1
    39   19   43 1
    40   20   21 1
    41   20   45 1
    42   20   44 1
    43   21   46 1
    44   21   47 1
    45   22   30 2
    46   22   23 1
    47   23   25 1
    48   23   24 1
    49   23   48 1
    50   24   25 1
    51   24   49 1
    52   24   50 1
    53   25   51 1
    54   25   52 1
    55   26   27 ar
    56   26   32 1
    57   27   28 ar
    58   27   53 1
    59   28   54 1
@<TRIPOS>SUBSTRUCTURE
1 UNL1 1
@<TRIPOS>COMMENT
olaparib
PLANTSproteinTorsions
57
1 283.9050
19 285.2963
33 346.3352
53 296.7993
108 21.0403
228 196.1066
405 201.6968
438 235.3361
479 97.3166
492 348.6814
546 138.0553
641 5.5065
776 116.8911
836 197.5562
905 175.0363
919 208.1782
988 79.8150
1139 155.0625
1332 236.3657
1388 54.8965
1606 32.5946
1642 64.4688
1655 153.0365
1759 46.4614
1952 322.2078
1986 62.2017
2049 102.6363
2207 152.7159
2220 204.5932
2267 75.0733
2305 333.9796
2319 92.5556
2601 153.7318
2653 329.8079
2695 87.5625
2741 99.8662
2763 99.0512
2818 105.9810
2847 214.0579
2913 58.3933
2968 217.2938
2982 127.8866
2996 316.9623
3051 125.1561
3105 135.9142
3240 30.5628
3280 302.1167
3290 195.7076
3365 178.9183
3426 239.8484
3477 75.7220
3534 200.7810
3661 225.1175
3685 152.6695
3741 312.9216
3784 356.1488
3862 96.0640
PLANTSmolcadARTstart hb
PLANTSmolcadARTstart HB
LINES
PLANTSmolcadARTstart HBCH
LINES
PLANTSmolcadARTstart HB-CHO
LINES
26.8582 -6.43577 11.8834 26.286 -8.671 12.834 0 255 255 5
PLANTSmolcadARTend
PLANTSmolcadARTstart HB_WATER
LINES
PLANTSmolcadARTend

PLANTSmolcadARTend

