@<TRIPOS>MOLECULE
olaparib_entry_00001_conf_59
55 59 1
SMALL
NO_CHARGES


@<TRIPOS>ATOM
      1 N          26.8870   -7.2882    7.1591 N.am      1 UNL1        0.0000
      2 N          26.9737   -6.8064    9.7103 N.am      1 UNL1        0.0000
      3 N          22.7074   -9.9113    8.3862 N.2       1 UNL1        0.0000
      4 N          22.8298  -11.1261    8.8638 N.am      1 UNL1        0.0000
      5 C          22.0206  -12.1371    8.5175 C.2       1 UNL1        0.0000
      6 C          21.0058  -11.8953    7.6145 C.ar      1 UNL1        0.0000
      7 C          20.1227  -12.9069    7.2350 C.ar      1 UNL1        0.0000
      8 C          19.1031  -12.6372    6.3478 C.ar      1 UNL1        0.0000
      9 C          19.0117  -11.3454    5.8743 C.ar      1 UNL1        0.0000
     10 C          19.8805  -10.3318    6.2425 C.ar      1 UNL1        0.0000
     11 C          20.8876  -10.6099    7.1191 C.ar      1 UNL1        0.0000
     12 C          21.7269   -9.5924    7.4862 C.2       1 UNL1        0.0000
     13 C          21.7414   -8.2247    6.9839 C.3       1 UNL1        0.0000
     14 C          22.7867   -8.0627    5.9359 C.ar      1 UNL1        0.0000
     15 C          24.0197   -7.5556    6.3836 C.ar      1 UNL1        0.0000
     16 C          25.0442   -7.3610    5.4885 C.ar      1 UNL1        0.0000
     17 C          26.3523   -6.8256    5.9283 C.2       1 UNL1        0.0000
     18 C          28.1481   -6.7987    7.6140 C.3       1 UNL1        0.0000
     19 C          28.2863   -6.8522    9.1204 C.3       1 UNL1        0.0000
     20 C          26.0650   -7.9149    9.3981 C.3       1 UNL1        0.0000
     21 C          26.1318   -8.2569    7.9319 C.3       1 UNL1        0.0000
     22 C          26.5615   -5.7631   10.5445 C.2       1 UNL1        0.0000
     23 C          27.3425   -4.5868   10.9361 C.3       1 UNL1        0.0000
     24 C          27.0988   -4.0589   12.3318 C.3       1 UNL1        0.0000
     25 C          26.6859   -3.2733   11.1667 C.3       1 UNL1        0.0000
     26 C          24.9363   -7.6392    4.1465 C.ar      1 UNL1        0.0000
     27 C          23.7290   -8.1354    3.7094 C.ar      1 UNL1        0.0000
     28 C          22.6812   -8.3343    4.6198 C.ar      1 UNL1        0.0000
     29 O          22.1230  -13.3086    8.9635 O.2       1 UNL1        0.0000
     30 O          25.3752   -5.8226   11.0288 O.2       1 UNL1        0.0000
     31 O          26.9920   -5.9868    5.2529 O.2       1 UNL1        0.0000
     32 F          25.9835   -7.4277    3.2971 F         1 UNL1        0.0000
     33 H          20.2334  -13.8586    7.6185 H         1 UNL1        0.0000
     34 H          18.4387  -13.3681    6.0521 H         1 UNL1        0.0000
     35 H          18.2547  -11.1219    5.2101 H         1 UNL1        0.0000
     36 H          19.7685   -9.3799    5.8594 H         1 UNL1        0.0000
     37 H          21.9467   -7.5546    7.7925 H         1 UNL1        0.0000
     38 H          20.7864   -8.0046    6.5538 H         1 UNL1        0.0000
     39 H          24.1547   -7.3300    7.3813 H         1 UNL1        0.0000
     40 H          28.2561   -5.7826    7.2957 H         1 UNL1        0.0000
     41 H          28.9082   -7.4267    7.1969 H         1 UNL1        0.0000
     42 H          28.8620   -6.0163    9.4583 H         1 UNL1        0.0000
     43 H          28.7820   -7.7564    9.4071 H         1 UNL1        0.0000
     44 H          25.0640   -7.6314    9.6475 H         1 UNL1        0.0000
     45 H          26.3579   -8.7733    9.9658 H         1 UNL1        0.0000
     46 H          25.1349   -8.2980    7.5448 H         1 UNL1        0.0000
     47 H          26.6328   -9.1974    7.8442 H         1 UNL1        0.0000
     48 H          28.1752   -4.9009   10.3426 H         1 UNL1        0.0000
     49 H          27.9226   -3.7335   12.9324 H         1 UNL1        0.0000
     50 H          26.6088   -4.4312   13.2072 H         1 UNL1        0.0000
     51 H          27.2059   -2.3698   10.9249 H         1 UNL1        0.0000
     52 H          25.7635   -2.8338   10.8519 H         1 UNL1        0.0000
     53 H          23.5954   -8.3613    2.7107 H         1 UNL1        0.0000
     54 H          21.7861   -8.7072    4.2658 H         1 UNL1        0.0000
     55 H          23.5526  -11.3046    9.5084 H         1 UNL1        0.0000
@<TRIPOS>BOND
     1    1   18 1
     2    1   21 1
     3    1   17 am
     4    2   19 1
     5    2   20 1
     6    2   22 am
     7    3    4 1
     8    3   12 2
     9    4    5 am
    10    4   55 1
    11    5   29 2
    12    5    6 1
    13    6    7 ar
    14    6   11 ar
    15    7    8 ar
    16    7   33 1
    17    8   34 1
    18    8    9 ar
    19    9   10 ar
    20    9   35 1
    21   10   11 ar
    22   10   36 1
    23   11   12 1
    24   12   13 1
    25   13   37 1
    26   13   38 1
    27   13   14 1
    28   14   15 ar
    29   14   28 ar
    30   15   39 1
    31   15   16 ar
    32   16   26 ar
    33   16   17 1
    34   17   31 2
    35   18   19 1
    36   18   40 1
    37   18   41 1
    38   19   42 1
    39   19   43 1
    40   20   21 1
    41   20   45 1
    42   20   44 1
    43   21   46 1
    44   21   47 1
    45   22   30 2
    46   22   23 1
    47   23   25 1
    48   23   24 1
    49   23   48 1
    50   24   25 1
    51   24   49 1
    52   24   50 1
    53   25   51 1
    54   25   52 1
    55   26   27 ar
    56   26   32 1
    57   27   28 ar
    58   27   53 1
    59   28   54 1
@<TRIPOS>SUBSTRUCTURE
1 UNL1 1
@<TRIPOS>COMMENT
olaparib
PLANTSproteinTorsions
57
1 111.8486
19 49.3778
33 104.1482
53 234.1269
108 25.9370
228 39.5160
405 121.2268
438 77.5245
479 88.5207
492 195.4418
546 213.1623
641 172.5264
776 93.6303
836 214.3930
905 124.0481
919 78.3669
988 261.6267
1139 63.3672
1332 84.4434
1388 35.1700
1606 18.5129
1642 220.4705
1655 134.0325
1759 225.4924
1952 208.7618
1986 275.9450
2049 313.4926
2207 230.7936
2220 280.0599
2267 339.5671
2305 228.1264
2319 117.2760
2601 25.0478
2653 137.2401
2695 67.0790
2741 270.0526
2763 35.1721
2818 190.9900
2847 49.7153
2913 267.3564
2968 350.6244
2982 199.9875
2996 66.4400
3051 99.0385
3105 243.8636
3240 151.7054
3280 197.2464
3290 243.2012
3365 258.1283
3426 218.6664
3477 219.9913
3534 263.7775
3661 169.9235
3685 111.0354
3741 189.7998
3784 196.4888
3862 149.6224
PLANTSmolcadARTstart hb
PLANTSmolcadARTstart HB
LINES
26.992 -5.98683 5.2529 27.1257 -3.93635 5.82242 0 255 0 5
PLANTSmolcadARTstart HBCH
LINES
PLANTSmolcadARTstart HB-CHO
LINES
PLANTSmolcadARTend
PLANTSmolcadARTstart HB_WATER
LINES
PLANTSmolcadARTend

PLANTSmolcadARTend

