@<TRIPOS>MOLECULE
olaparib_entry_00001_conf_20
55 59 1
SMALL
NO_CHARGES


@<TRIPOS>ATOM
      1 N          28.6027   -2.7752    1.9845 N.am      1 UNL1        0.0000
      2 N          26.5398   -4.1414    1.1932 N.am      1 UNL1        0.0000
      3 N          28.5493   -5.8776    7.8488 N.2       1 UNL1        0.0000
      4 N          27.4799   -6.2207    8.5250 N.am      1 UNL1        0.0000
      5 C          27.0319   -5.5381    9.5881 C.2       1 UNL1        0.0000
      6 C          27.7253   -4.4178    9.9976 C.ar      1 UNL1        0.0000
      7 C          27.3141   -3.6823   11.1098 C.ar      1 UNL1        0.0000
      8 C          28.0345   -2.5789   11.5135 C.ar      1 UNL1        0.0000
      9 C          29.1531   -2.2577   10.7740 C.ar      1 UNL1        0.0000
     10 C          29.5730   -2.9786    9.6686 C.ar      1 UNL1        0.0000
     11 C          28.8515   -4.0673    9.2760 C.ar      1 UNL1        0.0000
     12 C          29.2902   -4.7791    8.1918 C.2       1 UNL1        0.0000
     13 C          30.4157   -4.4701    7.3196 C.3       1 UNL1        0.0000
     14 C          30.0881   -3.3228    6.4285 C.ar      1 UNL1        0.0000
     15 C          30.1010   -3.6033    5.0506 C.ar      1 UNL1        0.0000
     16 C          29.8215   -2.6059    4.1474 C.ar      1 UNL1        0.0000
     17 C          29.8305   -2.8689    2.6907 C.2       1 UNL1        0.0000
     18 C          28.5724   -3.0170    0.5782 C.3       1 UNL1        0.0000
     19 C          27.2211   -3.5014    0.0981 C.3       1 UNL1        0.0000
     20 C          26.2241   -3.3080    2.3585 C.3       1 UNL1        0.0000
     21 C          27.3973   -2.4322    2.7160 C.3       1 UNL1        0.0000
     22 C          26.1863   -5.4937    1.1701 C.2       1 UNL1        0.0000
     23 C          26.4431   -6.4534    0.0930 C.3       1 UNL1        0.0000
     24 C          25.3876   -6.5431   -0.9859 C.3       1 UNL1        0.0000
     25 C          25.5992   -7.6662   -0.0699 C.3       1 UNL1        0.0000
     26 C          29.5212   -1.3162    4.5170 C.ar      1 UNL1        0.0000
     27 C          29.5090   -1.0428    5.8661 C.ar      1 UNL1        0.0000
     28 C          29.7947   -2.0579    6.7903 C.ar      1 UNL1        0.0000
     29 O          26.0081   -5.8507   10.2483 O.2       1 UNL1        0.0000
     30 O          25.5710   -5.9648    2.1922 O.2       1 UNL1        0.0000
     31 O          30.8780   -3.1676    2.0723 O.2       1 UNL1        0.0000
     32 F          29.2513   -0.3602    3.5811 F         1 UNL1        0.0000
     33 H          26.4690   -3.9643   11.6306 H         1 UNL1        0.0000
     34 H          27.7502   -2.0195   12.3317 H         1 UNL1        0.0000
     35 H          29.7074   -1.4361   11.0600 H         1 UNL1        0.0000
     36 H          30.4190   -2.6966    9.1489 H         1 UNL1        0.0000
     37 H          30.6430   -5.3273    6.7208 H         1 UNL1        0.0000
     38 H          31.2586   -4.2062    7.9239 H         1 UNL1        0.0000
     39 H          30.3200   -4.5553    4.7185 H         1 UNL1        0.0000
     40 H          29.3063   -3.7595    0.3425 H         1 UNL1        0.0000
     41 H          28.7768   -2.0885    0.0861 H         1 UNL1        0.0000
     42 H          27.3530   -4.2000   -0.7012 H         1 UNL1        0.0000
     43 H          26.6432   -2.6724   -0.2545 H         1 UNL1        0.0000
     44 H          25.9903   -3.9388    3.1903 H         1 UNL1        0.0000
     45 H          25.3878   -2.6839    2.1217 H         1 UNL1        0.0000
     46 H          27.5939   -2.5348    3.7629 H         1 UNL1        0.0000
     47 H          27.1392   -1.4279    2.4553 H         1 UNL1        0.0000
     48 H          27.4988   -6.2926    0.1565 H         1 UNL1        0.0000
     49 H          25.6776   -6.6277   -2.0126 H         1 UNL1        0.0000
     50 H          24.5464   -5.9477   -1.2735 H         1 UNL1        0.0000
     51 H          26.0364   -8.5725   -0.4339 H         1 UNL1        0.0000
     52 H          24.9640   -8.2273    0.5821 H         1 UNL1        0.0000
     53 H          29.2890   -0.0898    6.1971 H         1 UNL1        0.0000
     54 H          29.7791   -1.8260    7.7960 H         1 UNL1        0.0000
     55 H          26.9807   -7.0193    8.2371 H         1 UNL1        0.0000
@<TRIPOS>BOND
     1    1   18 1
     2    1   21 1
     3    1   17 am
     4    2   19 1
     5    2   20 1
     6    2   22 am
     7    3    4 1
     8    3   12 2
     9    4    5 am
    10    4   55 1
    11    5   29 2
    12    5    6 1
    13    6    7 ar
    14    6   11 ar
    15    7    8 ar
    16    7   33 1
    17    8   34 1
    18    8    9 ar
    19    9   10 ar
    20    9   35 1
    21   10   11 ar
    22   10   36 1
    23   11   12 1
    24   12   13 1
    25   13   37 1
    26   13   38 1
    27   13   14 1
    28   14   15 ar
    29   14   28 ar
    30   15   39 1
    31   15   16 ar
    32   16   26 ar
    33   16   17 1
    34   17   31 2
    35   18   19 1
    36   18   40 1
    37   18   41 1
    38   19   42 1
    39   19   43 1
    40   20   21 1
    41   20   45 1
    42   20   44 1
    43   21   46 1
    44   21   47 1
    45   22   30 2
    46   22   23 1
    47   23   25 1
    48   23   24 1
    49   23   48 1
    50   24   25 1
    51   24   49 1
    52   24   50 1
    53   25   51 1
    54   25   52 1
    55   26   27 ar
    56   26   32 1
    57   27   28 ar
    58   27   53 1
    59   28   54 1
@<TRIPOS>SUBSTRUCTURE
1 UNL1 1
@<TRIPOS>COMMENT
olaparib
PLANTSproteinTorsions
57
1 292.9331
19 329.6418
33 20.4372
53 276.2535
108 54.3081
228 6.4623
405 103.6158
438 27.8018
479 81.0963
492 231.0714
546 143.0436
641 339.1391
776 85.8411
836 129.6062
905 23.1489
919 327.5173
988 313.2932
1139 353.0385
1332 344.6334
1388 58.7890
1606 243.4075
1642 241.8724
1655 136.0291
1759 106.6960
1952 260.6949
1986 133.4213
2049 224.4442
2207 253.3184
2220 302.1926
2267 298.4091
2305 219.7670
2319 231.5769
2601 303.3813
2653 193.4155
2695 283.5412
2741 154.0216
2763 245.1508
2818 175.7600
2847 71.5024
2913 152.5388
2968 249.5859
2982 266.3472
2996 337.5898
3051 157.1840
3105 90.5993
3240 237.9021
3280 83.3749
3290 236.3331
3365 311.3658
3426 155.6873
3477 86.5426
3534 106.4391
3661 183.0402
3685 294.2216
3741 307.2786
3784 99.6605
3862 174.6319
PLANTSmolcadARTstart hb
PLANTSmolcadARTstart HB
LINES
PLANTSmolcadARTstart HBCH
LINES
PLANTSmolcadARTstart HB-CHO
LINES
PLANTSmolcadARTend
PLANTSmolcadARTstart HB_WATER
LINES
PLANTSmolcadARTend

PLANTSmolcadARTend

