@<TRIPOS>MOLECULE
olaparib_entry_00001_conf_12
55 59 1
SMALL
NO_CHARGES


@<TRIPOS>ATOM
      1 N          24.9330  -16.2498   11.6116 N.am      1 UNL1        0.0000
      2 N          24.4231  -17.8699    9.6459 N.am      1 UNL1        0.0000
      3 N          24.3694  -10.8241    9.3035 N.2       1 UNL1        0.0000
      4 N          24.0768  -10.3961    8.0994 N.am      1 UNL1        0.0000
      5 C          24.7729   -9.4389    7.4701 C.2       1 UNL1        0.0000
      6 C          25.8522   -8.8706    8.1149 C.ar      1 UNL1        0.0000
      7 C          26.5988   -7.8566    7.5136 C.ar      1 UNL1        0.0000
      8 C          27.6598   -7.2886    8.1853 C.ar      1 UNL1        0.0000
      9 C          27.9284   -7.7684    9.4498 C.ar      1 UNL1        0.0000
     10 C          27.1958   -8.7736   10.0588 C.ar      1 UNL1        0.0000
     11 C          26.1495   -9.3308    9.3844 C.ar      1 UNL1        0.0000
     12 C          25.4249  -10.3110   10.0077 C.2       1 UNL1        0.0000
     13 C          25.6822  -10.9194   11.3065 C.3       1 UNL1        0.0000
     14 C          24.5659  -11.8272   11.6899 C.ar      1 UNL1        0.0000
     15 C          24.9352  -13.1534   11.9772 C.ar      1 UNL1        0.0000
     16 C          23.9736  -14.0693   12.3308 C.ar      1 UNL1        0.0000
     17 C          24.3303  -15.4733   12.6356 C.2       1 UNL1        0.0000
     18 C          25.2955  -17.6060   11.8692 C.3       1 UNL1        0.0000
     19 C          25.3128  -18.4541   10.6156 C.3       1 UNL1        0.0000
     20 C          24.7526  -16.5229    9.1673 C.3       1 UNL1        0.0000
     21 C          25.1686  -15.6403   10.3159 C.3       1 UNL1        0.0000
     22 C          23.2906  -18.5363    9.1687 C.2       1 UNL1        0.0000
     23 C          22.8234  -19.8695    9.5576 C.3       1 UNL1        0.0000
     24 C          23.7605  -21.0179    9.2590 C.3       1 UNL1        0.0000
     25 C          22.4943  -20.8951    8.5332 C.3       1 UNL1        0.0000
     26 C          22.6370  -13.7616   12.4245 C.ar      1 UNL1        0.0000
     27 C          22.2766  -12.4632   12.1430 C.ar      1 UNL1        0.0000
     28 C          23.2551  -11.5263   11.7810 C.ar      1 UNL1        0.0000
     29 O          24.5086   -9.0163    6.3154 O.2       1 UNL1        0.0000
     30 O          22.5691  -17.9327    8.2967 O.2       1 UNL1        0.0000
     31 O          24.1179  -15.9880   13.7576 O.2       1 UNL1        0.0000
     32 F          21.7197  -14.7078   12.7793 F         1 UNL1        0.0000
     33 H          26.3568   -7.5319    6.5644 H         1 UNL1        0.0000
     34 H          28.2264   -6.5384    7.7617 H         1 UNL1        0.0000
     35 H          28.7176   -7.3559    9.9705 H         1 UNL1        0.0000
     36 H          27.4377   -9.0971   11.0086 H         1 UNL1        0.0000
     37 H          25.7788  -10.1494   12.0433 H         1 UNL1        0.0000
     38 H          26.5851  -11.4908   11.2474 H         1 UNL1        0.0000
     39 H          25.9254  -13.4381   11.9223 H         1 UNL1        0.0000
     40 H          24.5897  -18.0244   12.5565 H         1 UNL1        0.0000
     41 H          26.2871  -17.6045   12.2725 H         1 UNL1        0.0000
     42 H          24.9892  -19.4466   10.8488 H         1 UNL1        0.0000
     43 H          26.3060  -18.4947   10.2191 H         1 UNL1        0.0000
     44 H          23.8940  -16.0981    8.6909 H         1 UNL1        0.0000
     45 H          25.5643  -16.5908    8.4734 H         1 UNL1        0.0000
     46 H          24.6133  -14.7270   10.2636 H         1 UNL1        0.0000
     47 H          26.2209  -15.4729   10.2272 H         1 UNL1        0.0000
     48 H          22.2979  -19.4754   10.4020 H         1 UNL1        0.0000
     49 H          23.8927  -21.8012    9.9761 H         1 UNL1        0.0000
     50 H          24.7897  -21.1020    8.9788 H         1 UNL1        0.0000
     51 H          21.7072  -21.5962    8.7172 H         1 UNL1        0.0000
     52 H          22.2279  -20.8585    7.4983 H         1 UNL1        0.0000
     53 H          21.2854  -12.1794   12.1989 H         1 UNL1        0.0000
     54 H          22.9579  -10.5595   11.5747 H         1 UNL1        0.0000
     55 H          23.3077  -10.7984    7.6341 H         1 UNL1        0.0000
@<TRIPOS>BOND
     1    1   18 1
     2    1   21 1
     3    1   17 am
     4    2   19 1
     5    2   20 1
     6    2   22 am
     7    3    4 1
     8    3   12 2
     9    4    5 am
    10    4   55 1
    11    5   29 2
    12    5    6 1
    13    6    7 ar
    14    6   11 ar
    15    7    8 ar
    16    7   33 1
    17    8   34 1
    18    8    9 ar
    19    9   10 ar
    20    9   35 1
    21   10   11 ar
    22   10   36 1
    23   11   12 1
    24   12   13 1
    25   13   37 1
    26   13   38 1
    27   13   14 1
    28   14   15 ar
    29   14   28 ar
    30   15   39 1
    31   15   16 ar
    32   16   26 ar
    33   16   17 1
    34   17   31 2
    35   18   19 1
    36   18   40 1
    37   18   41 1
    38   19   42 1
    39   19   43 1
    40   20   21 1
    41   20   45 1
    42   20   44 1
    43   21   46 1
    44   21   47 1
    45   22   30 2
    46   22   23 1
    47   23   25 1
    48   23   24 1
    49   23   48 1
    50   24   25 1
    51   24   49 1
    52   24   50 1
    53   25   51 1
    54   25   52 1
    55   26   27 ar
    56   26   32 1
    57   27   28 ar
    58   27   53 1
    59   28   54 1
@<TRIPOS>SUBSTRUCTURE
1 UNL1 1
@<TRIPOS>COMMENT
olaparib
PLANTSproteinTorsions
57
1 33.3776
19 332.0124
33 96.2099
53 173.4378
108 133.8013
228 134.0821
405 75.8569
438 26.0695
479 44.3235
492 35.2409
546 204.0356
641 79.2179
776 23.7246
836 156.0509
905 11.0974
919 131.7552
988 328.2855
1139 175.5003
1332 328.5045
1388 183.4207
1606 242.2151
1642 145.9945
1655 3.1822
1759 111.9996
1952 10.5324
1986 42.7617
2049 226.3351
2207 262.1964
2220 17.0504
2267 184.7958
2305 126.6470
2319 39.7791
2601 190.9728
2653 269.8422
2695 72.5715
2741 230.3592
2763 242.1728
2818 186.1703
2847 173.3883
2913 204.8147
2968 267.4142
2982 119.5210
2996 275.0273
3051 237.8860
3105 245.6017
3240 239.6520
3280 243.4357
3290 137.1532
3365 254.8571
3426 241.0416
3477 178.7640
3534 156.8142
3661 229.7999
3685 226.4241
3741 56.1890
3784 213.1243
3862 260.9759
PLANTSmolcadARTstart hb
PLANTSmolcadARTstart HB
LINES
24.1179 -15.988 13.7576 23.871 -17.671 15.181 0 255 0 5
PLANTSmolcadARTstart HBCH
LINES
PLANTSmolcadARTstart HB-CHO
LINES
PLANTSmolcadARTend
PLANTSmolcadARTstart HB_WATER
LINES
PLANTSmolcadARTend

PLANTSmolcadARTend

