@<TRIPOS>MOLECULE
olaparib_entry_00001_conf_82
55 59 1
SMALL
NO_CHARGES


@<TRIPOS>ATOM
      1 N          33.7324  -20.4277    9.3747 N.am      1 UNL1        0.0000
      2 N          33.0586  -21.1087   11.7894 N.am      1 UNL1        0.0000
      3 N          39.9269  -15.9628    8.7211 N.2       1 UNL1        0.0000
      4 N          40.4514  -14.8015    9.0294 N.am      1 UNL1        0.0000
      5 C          40.7964  -14.4591   10.2786 C.2       1 UNL1        0.0000
      6 C          40.5922  -15.3683   11.2962 C.ar      1 UNL1        0.0000
      7 C          40.9148  -15.0557   12.6173 C.ar      1 UNL1        0.0000
      8 C          40.6822  -15.9715   13.6206 C.ar      1 UNL1        0.0000
      9 C          40.1268  -17.1778   13.2497 C.ar      1 UNL1        0.0000
     10 C          39.8014  -17.5012   11.9430 C.ar      1 UNL1        0.0000
     11 C          40.0379  -16.5889   10.9574 C.ar      1 UNL1        0.0000
     12 C          39.6942  -16.9177    9.6735 C.2       1 UNL1        0.0000
     13 C          39.1695  -18.1880    9.1895 C.3       1 UNL1        0.0000
     14 C          37.7526  -18.0385    8.7568 C.ar      1 UNL1        0.0000
     15 C          36.9766  -19.2102    8.8091 C.ar      1 UNL1        0.0000
     16 C          35.6591  -19.1753    8.4198 C.ar      1 UNL1        0.0000
     17 C          34.8174  -20.3924    8.4601 C.2       1 UNL1        0.0000
     18 C          32.8955  -21.5820    9.4392 C.3       1 UNL1        0.0000
     19 C          32.2436  -21.7556   10.7942 C.3       1 UNL1        0.0000
     20 C          33.2351  -19.6578   11.6642 C.3       1 UNL1        0.0000
     21 C          33.4980  -19.2787   10.2295 C.3       1 UNL1        0.0000
     22 C          33.6649  -21.8106   12.8353 C.2       1 UNL1        0.0000
     23 C          33.5953  -23.2527   13.0857 C.3       1 UNL1        0.0000
     24 C          32.4127  -23.7325   13.8965 C.3       1 UNL1        0.0000
     25 C          33.7641  -23.8012   14.4570 C.3       1 UNL1        0.0000
     26 C          35.0352  -18.0355    7.9708 C.ar      1 UNL1        0.0000
     27 C          35.7957  -16.8892    7.9200 C.ar      1 UNL1        0.0000
     28 C          37.1406  -16.9215    8.3156 C.ar      1 UNL1        0.0000
     29 O          41.3017  -13.3513   10.5936 O.2       1 UNL1        0.0000
     30 O          34.3620  -21.1387   13.6766 O.2       1 UNL1        0.0000
     31 O          35.0333  -21.3787    7.7189 O.2       1 UNL1        0.0000
     32 F          33.7234  -18.0524    7.5946 F         1 UNL1        0.0000
     33 H          41.3287  -14.1378   12.8436 H         1 UNL1        0.0000
     34 H          40.9126  -15.7637   14.6040 H         1 UNL1        0.0000
     35 H          39.9433  -17.8771   13.9856 H         1 UNL1        0.0000
     36 H          39.3864  -18.4190   11.7176 H         1 UNL1        0.0000
     37 H          39.2234  -18.9133    9.9743 H         1 UNL1        0.0000
     38 H          39.7534  -18.5056    8.3508 H         1 UNL1        0.0000
     39 H          37.3954  -20.0937    9.1386 H         1 UNL1        0.0000
     40 H          33.4895  -22.4477    9.2311 H         1 UNL1        0.0000
     41 H          32.1144  -21.4556    8.7182 H         1 UNL1        0.0000
     42 H          32.1580  -22.7975   11.0209 H         1 UNL1        0.0000
     43 H          31.2666  -21.3188   10.7850 H         1 UNL1        0.0000
     44 H          34.0641  -19.3501   12.2664 H         1 UNL1        0.0000
     45 H          32.3403  -19.1705   11.9909 H         1 UNL1        0.0000
     46 H          34.3616  -18.6476   10.1955 H         1 UNL1        0.0000
     47 H          32.6254  -18.7804    9.8642 H         1 UNL1        0.0000
     48 H          34.0500  -23.4720   12.1426 H         1 UNL1        0.0000
     49 H          31.9022  -24.6309   13.6183 H         1 UNL1        0.0000
     50 H          31.4839  -23.3022   14.2082 H         1 UNL1        0.0000
     51 H          34.2337  -24.7529   14.5943 H         1 UNL1        0.0000
     52 H          34.2188  -23.4406   15.3550 H         1 UNL1        0.0000
     53 H          35.3752  -16.0055    7.5906 H         1 UNL1        0.0000
     54 H          37.6886  -16.0480    8.2673 H         1 UNL1        0.0000
     55 H          40.5998  -14.1487    8.3071 H         1 UNL1        0.0000
@<TRIPOS>BOND
     1    1   18 1
     2    1   21 1
     3    1   17 am
     4    2   19 1
     5    2   20 1
     6    2   22 am
     7    3    4 1
     8    3   12 2
     9    4    5 am
    10    4   55 1
    11    5   29 2
    12    5    6 1
    13    6    7 ar
    14    6   11 ar
    15    7    8 ar
    16    7   33 1
    17    8   34 1
    18    8    9 ar
    19    9   10 ar
    20    9   35 1
    21   10   11 ar
    22   10   36 1
    23   11   12 1
    24   12   13 1
    25   13   37 1
    26   13   38 1
    27   13   14 1
    28   14   15 ar
    29   14   28 ar
    30   15   39 1
    31   15   16 ar
    32   16   26 ar
    33   16   17 1
    34   17   31 2
    35   18   19 1
    36   18   40 1
    37   18   41 1
    38   19   42 1
    39   19   43 1
    40   20   21 1
    41   20   45 1
    42   20   44 1
    43   21   46 1
    44   21   47 1
    45   22   30 2
    46   22   23 1
    47   23   25 1
    48   23   24 1
    49   23   48 1
    50   24   25 1
    51   24   49 1
    52   24   50 1
    53   25   51 1
    54   25   52 1
    55   26   27 ar
    56   26   32 1
    57   27   28 ar
    58   27   53 1
    59   28   54 1
@<TRIPOS>SUBSTRUCTURE
1 UNL1 1
@<TRIPOS>COMMENT
olaparib
PLANTSproteinTorsions
57
1 18.8369
19 352.1981
33 293.0443
53 98.2971
108 144.5537
228 22.9919
405 166.1744
438 243.4640
479 71.9032
492 340.4217
546 2.8470
641 243.6779
776 1.1609
836 88.5287
905 196.3358
919 280.8326
988 259.6427
1139 135.0414
1332 55.6161
1388 78.8450
1606 70.0982
1642 329.7625
1655 91.4992
1759 13.6590
1952 64.7286
1986 155.0561
2049 29.1699
2207 33.4838
2220 71.0156
2267 123.7171
2305 344.8345
2319 239.7142
2601 142.3445
2653 292.8066
2695 327.0061
2741 168.4996
2763 292.0983
2818 153.2819
2847 191.6117
2913 113.6665
2968 211.2473
2982 342.8825
2996 84.7206
3051 327.8690
3105 296.7360
3240 110.0690
3280 195.1021
3290 197.1929
3365 32.4274
3426 71.1585
3477 300.0894
3534 244.7262
3661 262.4063
3685 182.3520
3741 188.4113
3784 70.8156
3862 159.0015
PLANTSmolcadARTstart hb
PLANTSmolcadARTstart HB
LINES
40.5998 -14.1487 8.30711 41.384 -13.55 6.787 0 255 0 5
PLANTSmolcadARTstart HBCH
LINES
PLANTSmolcadARTstart HB-CHO
LINES
PLANTSmolcadARTend
PLANTSmolcadARTstart HB_WATER
LINES
PLANTSmolcadARTend

PLANTSmolcadARTend

