@<TRIPOS>MOLECULE
olaparib_entry_00001_conf_44_protein
164 107 56
SMALL
NO_CHARGES


@<TRIPOS>ATOM
      1 H          -1.6575  -17.3557   31.7123 H       764 LYS764      0.0000
      2 N          -1.8090  -17.0210   30.7870 N.4     764 LYS764      1.0000
      3 HZ1        -4.8468  -11.2505   33.1028 H       764 LYS764      0.0000
      4 NZ         -4.6160  -11.9740   33.7550 N.4     764 LYS764      1.0000
      5 HZ2        -5.2754  -12.7212   33.6697 H       764 LYS764      0.0000
      6 HZ3        -4.6490  -11.6060   34.6845 H       764 LYS764      0.0000
      7 H2         -2.7825  -17.0321   30.5766 H       764 LYS764      0.0000
      8 H3         -1.3137  -17.5884   30.1354 H       764 LYS764      0.0000
      9 HG          4.5539  -13.8058   30.7993 H       765 SER765      0.0000
     10 OG          4.1840  -13.1860   30.1070 O.3     765 SER765      0.0000
     11 HZ1         1.2718  -15.3026   39.2493 H       766 LYS766      0.0000
     12 NZ          1.4050  -15.2360   38.2610 N.4     766 LYS766      1.0000
     13 HZ2         1.9315  -14.4145   38.0475 H       766 LYS766      0.0000
     14 HZ3         0.5167  -15.1929   37.8053 H       766 LYS766      0.0000
     15 HZ1         2.4567   -3.9964   26.1021 H       769 LYS769      0.0000
     16 NZ          1.4680   -4.0750   25.9730 N.4     769 LYS769      1.0000
     17 HZ2         1.2783   -4.3867   25.0414 H       769 LYS769      0.0000
     18 HZ3         1.0421   -3.1815   26.1179 H       769 LYS769      0.0000
     19 HZ1        -0.3415   -9.2947   22.4478 H       776 LYS776      0.0000
     20 NZ          0.1170   -9.7850   23.1900 N.4     776 LYS776      1.0000
     21 HZ2        -0.5622  -10.2860   23.7271 H       776 LYS776      0.0000
     22 HZ3         0.5890   -9.1282   23.7798 H       776 LYS776      0.0000
     23 HH         14.4621  -14.5225   31.4008 H       794 TYR794      0.0000
     24 OH         13.9770  -13.7890   30.9260 O.3     794 TYR794      0.0000
     25 HZ1         8.6690  -21.7977   19.5773 H       796 LYS796      0.0000
     26 NZ          8.2050  -22.0980   20.4120 N.4     796 LYS796      1.0000
     27 HZ2         7.6106  -22.8745   20.2002 H       796 LYS796      0.0000
     28 HZ3         7.6532  -21.3467   20.7754 H       796 LYS796      0.0000
     29 HZ1        16.7800  -25.5826   26.6098 H       798 LYS798      0.0000
     30 NZ         16.9690  -24.6940   27.0300 N.4     798 LYS798      1.0000
     31 HZ2        17.8602  -24.7237   27.4838 H       798 LYS798      0.0000
     32 HZ3        16.2596  -24.4882   27.7059 H       798 LYS798      0.0000
     33 HG1        19.9644  -14.6473   25.2456 H       799 THR799      0.0000
     34 OG1        19.0880  -15.1290   25.3720 O.3     799 THR799      0.0000
     35 HZ1        18.4699   -8.3460   37.6947 H       802 LYS802      0.0000
     36 NZ         18.9140   -9.0730   37.1700 N.4     802 LYS802      1.0000
     37 HZ2        19.0002   -9.8902   37.7411 H       802 LYS802      0.0000
     38 HZ3        19.8235   -8.7698   36.8848 H       802 LYS802      0.0000
     39 HG         18.0841    3.5180   33.4726 H       808 SER808      0.0000
     40 OG         18.8290    3.0870   33.9750 O.3     808 SER808      0.0000
     41 HZ1        26.3223   13.9838   28.0802 H       816 LYS816      0.0000
     42 NZ         27.0940   13.5620   27.6020 N.4     816 LYS816      1.0000
     43 HZ2        27.5505   12.9139   28.2138 H       816 LYS816      0.0000
     44 HZ3        27.7427   14.2725   27.3273 H       816 LYS816      0.0000
     45 HZ1        20.9461   17.1132   22.9378 H       819 LYS819      0.0000
     46 NZ         20.4900   16.2240   22.9930 N.4     819 LYS819      1.0000
     47 HZ2        19.4990   16.3577   22.9546 H       819 LYS819      0.0000
     48 HZ3        20.7304   15.7820   23.8587 H       819 LYS819      0.0000
     49 HG1        27.5133   14.3454    7.7018 H       824 THR824      0.0000
     50 OG1        27.0480   13.5740    8.1490 O.3     824 THR824      0.0000
     51 HG1        25.5558    8.3756    6.0574 H       825 THR825      0.0000
     52 OG1        26.3170    9.0170    5.9110 O.3     825 THR825      0.0000
     53 HH         20.2131    3.9561    9.4413 H       829 TYR829      0.0000
     54 OH         19.7890    4.1170   10.3320 O.3     829 TYR829      0.0000
     55 HZ1        23.6624   -4.8843   34.9070 H       838 LYS838      0.0000
     56 NZ         23.9540   -4.4680   34.0450 N.4     838 LYS838      1.0000
     57 HZ2        24.9536   -4.4492   34.0069 H       838 LYS838      0.0000
     58 HZ3        23.6027   -3.5326   33.9926 H       838 LYS838      0.0000
     59 HZ1        35.6881  -20.5871   34.5839 H       849 LYS849      0.0000
     60 NZ         35.3740  -19.7320   34.9990 N.4     849 LYS849      1.0000
     61 HZ2        36.0454  -19.4237   35.6740 H       849 LYS849      0.0000
     62 HZ3        34.4945  -19.8851   35.4512 H       849 LYS849      0.0000
     63 HZ1        34.2070   -9.5000   30.4672 H       852 LYS852      0.0000
     64 NZ         34.3540   -8.6150   30.9110 N.4     852 LYS852      1.0000
     65 HZ2        33.5946   -8.0015   30.6890 H       852 LYS852      0.0000
     66 HZ3        35.2104   -8.2165   30.5818 H       852 LYS852      0.0000
     67 HG         21.3649   -9.8424   11.9037 H       864 SER864      0.0000
     68 OG         20.4070   -9.6170   12.0730 O.3     864 SER864      0.0000
     69 HG1        12.0933   -6.0380   13.2541 H       866 THR866      0.0000
     70 OG1        12.7710   -6.5990   13.7440 O.3     866 THR866      0.0000
     71 HG1        13.4964  -11.9262    8.7569 H       867 THR867      0.0000
     72 OG1        13.8710  -11.9580    9.6910 O.3     867 THR867      0.0000
     73 HG         19.2051  -19.7047   19.1312 H       874 SER874      0.0000
     74 OG         18.3140  -19.3790   19.4500 O.3     874 SER874      0.0000
     75 HG1        29.7581  -10.9115   -2.3121 H       887 THR887      0.0000
     76 OG1        28.7570  -10.8640   -2.2110 O.3     887 THR887      0.0000
     77 HH         26.6258  -11.7515    6.9121 H       889 TYR889      0.0000
     78 OH         27.4610  -11.9710    7.4180 O.3     889 TYR889      0.0000
     79 HZ1        31.4321  -17.4251    2.3248 H       893 LYS893      0.0000
     80 NZ         31.0380  -17.4100    3.2450 N.4     893 LYS893      1.0000
     81 HZ2        31.5214  -18.0672    3.8245 H       893 LYS893      0.0000
     82 HZ3        30.0705  -17.6607    3.1956 H       893 LYS893      0.0000
     83 HZ1        31.9005    0.6201    9.3461 H       903 LYS903      0.0000
     84 NZ         31.2940    1.1550    8.7570 N.4     903 LYS903      1.0000
     85 HZ2        31.5284    0.9865    7.7985 H       903 LYS903      0.0000
     86 HZ3        31.4078    2.1283    8.9601 H       903 LYS903      0.0000
     87 HG         25.8589   -2.3673   13.8642 H       904 SER904      0.0000
     88 OG         25.7970   -1.4170   14.1610 O.3     904 SER904      0.0000
     89 HH         27.5324   -2.5327    6.7477 H       907 TYR907      0.0000
     90 OH         26.8550   -3.0780    6.2560 O.3     907 TYR907      0.0000
     91 HG1        13.8036    1.2552   10.5778 H       910 THR910      0.0000
     92 OG1        14.0450    0.5090    9.9470 O.3     910 THR910      0.0000
     93 HG          9.3668   -1.9726    5.3618 H       911 SER911      0.0000
     94 OG          9.2550   -1.1060    5.8440 O.3     911 SER911      0.0000
     95 HH         48.5854   -6.9503    8.1482 H       930 TYR930      0.0000
     96 OH         47.6330   -6.7930    7.8910 O.3     930 TYR930      0.0000
     97 HZ1        45.0892    5.9185    4.6957 H       933 LYS933      0.0000
     98 NZ         45.5450    5.4620    5.4640 N.4     933 LYS933      1.0000
     99 HZ2        45.4195    6.0159    6.2914 H       933 LYS933      0.0000
    100 HZ3        46.5260    5.3921    5.2645 H       933 LYS933      0.0000
    101 HG         43.4302   -8.2317    4.1999 H       936 SER936      0.0000
    102 OG         43.3320   -7.7720    3.3190 O.3     936 SER936      0.0000
    103 HG         45.9039  -15.5741    6.7566 H       939 SER939      0.0000
    104 OG         45.8480  -15.5290    5.7620 O.3     939 SER939      0.0000
    105 HZ1        48.7415  -19.3861   13.5113 H       940 LYS940      0.0000
    106 NZ         48.4430  -19.1590   12.5840 N.4     940 LYS940      1.0000
    107 HZ2        47.8445  -19.8833   12.2404 H       940 LYS940      0.0000
    108 HZ3        49.2420  -19.0766   11.9881 H       940 LYS940      0.0000
    109 HZ1        55.1415  -16.9685   14.8579 H       943 LYS943      0.0000
    110 NZ         54.8780  -16.3930   14.0810 N.4     943 LYS943      1.0000
    111 HZ2        54.9964  -16.9118   13.2319 H       943 LYS943      0.0000
    112 HZ3        55.4682  -15.5833   14.0566 H       943 LYS943      0.0000
    113 HZ1        47.0215   -3.7457   16.1939 H       945 LYS945      0.0000
    114 NZ         47.9660   -3.9500   15.9300 N.4     945 LYS945      1.0000
    115 HZ2        48.5365   -3.9879   16.7525 H       945 LYS945      0.0000
    116 HZ3        48.3051   -3.2245   15.3278 H       945 LYS945      0.0000
    117 HZ1        39.7068    3.9902   15.5619 H       949 LYS949      0.0000
    118 NZ         39.0210    3.4460   16.0470 N.4     949 LYS949      1.0000
    119 HZ2        38.2979    4.0503   16.3853 H       949 LYS949      0.0000
    120 HZ3        39.4532    2.9808   16.8202 H       949 LYS949      0.0000
    121 HZ1        39.8051   12.0862    5.3669 H       953 LYS953      0.0000
    122 NZ         39.3720   11.7790    4.5190 N.4     953 LYS953      1.0000
    123 HZ2        39.8887   11.0106    4.1410 H       953 LYS953      0.0000
    124 HZ3        39.3621   12.5307    3.8593 H       953 LYS953      0.0000
    125 HG1        32.3691   12.3268    9.8763 H       954 THR954      0.0000
    126 OG1        32.8150   11.4890    9.5420 O.3     954 THR954      0.0000
    127 HG1        37.1749    7.7397   16.3545 H       955 THR955      0.0000
    128 OG1        36.2440    7.7040   15.9730 O.3     955 THR955      0.0000
    129 HG         36.0613   14.3099   23.3897 H       959 SER959      0.0000
    130 OG         36.7030   14.9300   23.8350 O.3     959 SER959      0.0000
    131 HG         33.8488    1.9722   33.0009 H       963 SER963      0.0000
    132 OG         34.6240    2.2350   32.4300 O.3     963 SER963      0.0000
    133 HG1        30.7850   15.0940   19.3167 H       973 THR973      0.0000
    134 OG1        29.9090   15.5570   19.1430 O.3     973 THR973      0.0000
    135 HG         37.9249   14.9480    8.8663 H       976 SER976      0.0000
    136 OG         38.2040   14.7390    9.8050 O.3     976 SER976      0.0000
    137 HG         40.0173    9.4081   10.3072 H       977 SER977      0.0000
    138 OG         39.0840    9.7360   10.4400 O.3     977 SER977      0.0000
    139 HG         38.5879    0.7545    0.3563 H       983 SER983      0.0000
    140 OG         38.3060    1.7120    0.4210 O.3     983 SER983      0.0000
    141 HH         27.2714    9.1214    7.3492 H       986 TYR986      0.0000
    142 OH         28.1490    9.4530    7.6940 O.3     986 TYR986      0.0000
    143 HH         36.0857    2.1855   18.1529 H       989 TYR989      0.0000
    144 OH         35.5890    2.1920   17.2870 O.3     989 TYR989      0.0000
    145 HH         39.4533   -9.7146    9.3323 H       992 TYR992      0.0000
    146 OH         38.5210   -9.6720    9.6920 O.3     992 TYR992      0.0000
    147 HZ1        29.0904   -4.0373   30.7865 H      1000 LYS1000     0.0000
    148 NZ         28.7270   -4.9670   30.8480 N.4    1000 LYS1000     1.0000
    149 HZ2        28.4815   -5.1684   31.7965 H      1000 LYS1000     0.0000
    150 HZ3        29.4193   -5.6169   30.5366 H      1000 LYS1000     0.0000
    151 HH         25.2502   -1.4389   30.7102 H      1001 TYR1001     0.0000
    152 OH         24.3090   -1.7060   30.9120 O.3    1001 TYR1001     0.0000
    153 HZ1         6.8097   -2.3230   21.7639 H      1004 LYS1004     0.0000
    154 NZ          7.6740   -2.8190   21.8480 N.4    1004 LYS1004     1.0000
    155 HZ2         7.6411   -3.6444   21.2849 H      1004 LYS1004     0.0000
    156 HZ3         7.8205   -3.0736   22.8040 H      1004 LYS1004     0.0000
    157 HZ1         7.1033    7.1026   15.0007 H      1006 LYS1006     0.0000
    158 NZ          6.7120    6.1960   15.1620 N.4    1006 LYS1006     1.0000
    159 HZ2         5.7719    6.1734   14.8200 H      1006 LYS1006     0.0000
    160 HZ3         6.7135    6.0027   16.1435 H      1006 LYS1006     0.0000
    161 HZ1        16.3833   14.1406    9.7543 H      1010 LYS1010     0.0000
    162 NZ         16.4710   13.2710    9.2670 N.4    1010 LYS1010     1.0000
    163 HZ2        17.1043   12.6749    9.7608 H      1010 LYS1010     0.0000
    164 HZ3        16.8231   13.4402    8.3455 H      1010 LYS1010     0.0000
@<TRIPOS>BOND
     1    2    7 1
     2    2    8 1
     3    2    1 1
     4    4    3 1
     5    4    5 1
     6    4    6 1
     7   10    9 1
     8   12   11 1
     9   12   13 1
    10   12   14 1
    11   16   18 1
    12   16   15 1
    13   16   17 1
    14   20   19 1
    15   20   21 1
    16   20   22 1
    17   24   23 1
    18   26   28 1
    19   26   25 1
    20   26   27 1
    21   30   31 1
    22   30   32 1
    23   30   29 1
    24   34   33 1
    25   36   35 1
    26   36   37 1
    27   36   38 1
    28   40   39 1
    29   42   43 1
    30   42   44 1
    31   42   41 1
    32   46   45 1
    33   46   47 1
    34   46   48 1
    35   50   49 1
    36   52   51 1
    37   54   53 1
    38   56   55 1
    39   56   58 1
    40   56   57 1
    41   60   59 1
    42   60   61 1
    43   60   62 1
    44   64   63 1
    45   64   65 1
    46   64   66 1
    47   68   67 1
    48   70   69 1
    49   72   71 1
    50   74   73 1
    51   76   75 1
    52   78   77 1
    53   80   79 1
    54   80   81 1
    55   80   82 1
    56   84   83 1
    57   84   85 1
    58   84   86 1
    59   88   87 1
    60   90   89 1
    61   92   91 1
    62   94   93 1
    63   96   95 1
    64   98   97 1
    65   98   99 1
    66   98  100 1
    67  102  101 1
    68  104  103 1
    69  106  105 1
    70  106  107 1
    71  106  108 1
    72  110  112 1
    73  110  109 1
    74  110  111 1
    75  114  116 1
    76  114  113 1
    77  114  115 1
    78  118  117 1
    79  118  119 1
    80  118  120 1
    81  122  121 1
    82  122  123 1
    83  122  124 1
    84  126  125 1
    85  128  127 1
    86  130  129 1
    87  132  131 1
    88  134  133 1
    89  136  135 1
    90  138  137 1
    91  140  139 1
    92  142  141 1
    93  144  143 1
    94  146  145 1
    95  148  147 1
    96  148  149 1
    97  148  150 1
    98  152  151 1
    99  154  153 1
   100  154  156 1
   101  154  155 1
   102  158  157 1
   103  158  159 1
   104  158  160 1
   105  162  164 1
   106  162  161 1
   107  162  163 1
@<TRIPOS>SUBSTRUCTURE
764 LYS764 1
765 SER765 9
766 LYS766 11
769 LYS769 15
776 LYS776 19
794 TYR794 23
796 LYS796 25
798 LYS798 29
799 THR799 33
802 LYS802 35
808 SER808 39
816 LYS816 41
819 LYS819 45
824 THR824 49
825 THR825 51
829 TYR829 53
838 LYS838 55
849 LYS849 59
852 LYS852 63
864 SER864 67
866 THR866 69
867 THR867 71
874 SER874 73
887 THR887 75
889 TYR889 77
893 LYS893 79
903 LYS903 83
904 SER904 87
907 TYR907 89
910 THR910 91
911 SER911 93
930 TYR930 95
933 LYS933 97
936 SER936 101
939 SER939 103
940 LYS940 105
943 LYS943 109
945 LYS945 113
949 LYS949 117
953 LYS953 121
954 THR954 125
955 THR955 127
959 SER959 129
963 SER963 131
973 THR973 133
976 SER976 135
977 SER977 137
983 SER983 139
986 TYR986 141
989 TYR989 143
992 TYR992 145
1000 LYS1000 147
1001 TYR1001 151
1004 LYS1004 153
1006 LYS1006 157
1010 LYS1010 161
@<TRIPOS>COMMENT
