@<TRIPOS>MOLECULE
olaparib_entry_00001_conf_27
55 59 1
SMALL
NO_CHARGES


@<TRIPOS>ATOM
      1 N          27.2097   -7.4145    7.5642 N.am      1 UNL1        0.0000
      2 N          27.1476   -6.4714    9.9839 N.am      1 UNL1        0.0000
      3 N          20.3037   -9.7611    6.0594 N.2       1 UNL1        0.0000
      4 N          19.2913  -10.4404    5.5775 N.am      1 UNL1        0.0000
      5 C          19.0088  -11.6983    5.9444 C.2       1 UNL1        0.0000
      6 C          19.8192  -12.3161    6.8746 C.ar      1 UNL1        0.0000
      7 C          19.5822  -13.6310    7.2768 C.ar      1 UNL1        0.0000
      8 C          20.4176  -14.2351    8.1915 C.ar      1 UNL1        0.0000
      9 C          21.4705  -13.4834    8.6685 C.ar      1 UNL1        0.0000
     10 C          21.7178  -12.1779    8.2780 C.ar      1 UNL1        0.0000
     11 C          20.8836  -11.5886    7.3744 C.ar      1 UNL1        0.0000
     12 C          21.1526  -10.3036    6.9859 C.2       1 UNL1        0.0000
     13 C          22.1972   -9.4211    7.4889 C.3       1 UNL1        0.0000
     14 C          23.3827   -9.4463    6.5882 C.ar      1 UNL1        0.0000
     15 C          24.3630   -8.4726    6.8500 C.ar      1 UNL1        0.0000
     16 C          25.4898   -8.4090    6.0658 C.ar      1 UNL1        0.0000
     17 C          26.5378   -7.3934    6.3139 C.2       1 UNL1        0.0000
     18 C          28.2294   -6.4544    7.8384 C.3       1 UNL1        0.0000
     19 C          28.3907   -6.1803    9.3182 C.3       1 UNL1        0.0000
     20 C          26.6729   -7.8583    9.9298 C.3       1 UNL1        0.0000
     21 C          26.8404   -8.4212    8.5419 C.3       1 UNL1        0.0000
     22 C          26.4090   -5.4932   10.6562 C.2       1 UNL1        0.0000
     23 C          26.7413   -4.0720   10.7858 C.3       1 UNL1        0.0000
     24 C          28.1915   -3.7491   11.0661 C.3       1 UNL1        0.0000
     25 C          27.1729   -3.5019   12.0890 C.3       1 UNL1        0.0000
     26 C          25.7252   -9.2615    5.0132 C.ar      1 UNL1        0.0000
     27 C          24.7649  -10.2142    4.7578 C.ar      1 UNL1        0.0000
     28 C          23.6135  -10.2812    5.5554 C.ar      1 UNL1        0.0000
     29 O          18.0421  -12.3654    5.4947 O.2       1 UNL1        0.0000
     30 O          25.3199   -5.8583   11.2268 O.2       1 UNL1        0.0000
     31 O          26.8441   -6.5277    5.4622 O.2       1 UNL1        0.0000
     32 F          26.8605   -9.1573    4.2630 F         1 UNL1        0.0000
     33 H          18.7799  -14.1519    6.8895 H         1 UNL1        0.0000
     34 H          20.2626  -15.2054    8.5043 H         1 UNL1        0.0000
     35 H          22.1087  -13.9171    9.3531 H         1 UNL1        0.0000
     36 H          22.5211  -11.6579    8.6650 H         1 UNL1        0.0000
     37 H          22.4905   -9.7437    8.4661 H         1 UNL1        0.0000
     38 H          21.8161   -8.4218    7.5276 H         1 UNL1        0.0000
     39 H          24.2365   -7.8074    7.6286 H         1 UNL1        0.0000
     40 H          27.9785   -5.5381    7.3453 H         1 UNL1        0.0000
     41 H          29.1554   -6.8553    7.4808 H         1 UNL1        0.0000
     42 H          28.6468   -5.1525    9.4675 H         1 UNL1        0.0000
     43 H          29.1696   -6.7959    9.7181 H         1 UNL1        0.0000
     44 H          25.6377   -7.8875   10.1982 H         1 UNL1        0.0000
     45 H          27.2481   -8.4482   10.6126 H         1 UNL1        0.0000
     46 H          25.9152   -8.8659    8.2395 H         1 UNL1        0.0000
     47 H          27.6335   -9.1373    8.5796 H         1 UNL1        0.0000
     48 H          25.9926   -3.7978   10.0727 H         1 UNL1        0.0000
     49 H          28.6623   -2.9262   10.5695 H         1 UNL1        0.0000
     50 H          29.1101   -4.2965   11.0279 H         1 UNL1        0.0000
     51 H          26.9087   -2.4964   12.3425 H         1 UNL1        0.0000
     52 H          27.0533   -3.7970   13.1097 H         1 UNL1        0.0000
     53 H          24.8930  -10.8796    3.9787 H         1 UNL1        0.0000
     54 H          22.9089  -11.0048    5.3422 H         1 UNL1        0.0000
     55 H          18.7092  -10.0045    4.9134 H         1 UNL1        0.0000
@<TRIPOS>BOND
     1    1   18 1
     2    1   21 1
     3    1   17 am
     4    2   19 1
     5    2   20 1
     6    2   22 am
     7    3    4 1
     8    3   12 2
     9    4    5 am
    10    4   55 1
    11    5   29 2
    12    5    6 1
    13    6    7 ar
    14    6   11 ar
    15    7    8 ar
    16    7   33 1
    17    8   34 1
    18    8    9 ar
    19    9   10 ar
    20    9   35 1
    21   10   11 ar
    22   10   36 1
    23   11   12 1
    24   12   13 1
    25   13   37 1
    26   13   38 1
    27   13   14 1
    28   14   15 ar
    29   14   28 ar
    30   15   39 1
    31   15   16 ar
    32   16   26 ar
    33   16   17 1
    34   17   31 2
    35   18   19 1
    36   18   40 1
    37   18   41 1
    38   19   42 1
    39   19   43 1
    40   20   21 1
    41   20   45 1
    42   20   44 1
    43   21   46 1
    44   21   47 1
    45   22   30 2
    46   22   23 1
    47   23   25 1
    48   23   24 1
    49   23   48 1
    50   24   25 1
    51   24   49 1
    52   24   50 1
    53   25   51 1
    54   25   52 1
    55   26   27 ar
    56   26   32 1
    57   27   28 ar
    58   27   53 1
    59   28   54 1
@<TRIPOS>SUBSTRUCTURE
1 UNL1 1
@<TRIPOS>COMMENT
olaparib
PLANTSproteinTorsions
57
1 3.2142
19 197.7020
33 325.5583
53 27.8722
108 44.1737
228 18.5159
405 224.7504
438 199.4940
479 110.0219
492 162.7333
546 179.5024
641 338.7488
776 167.3010
836 172.6359
905 295.9490
919 249.3594
988 176.7784
1139 166.1577
1332 99.3332
1388 200.0265
1606 88.2578
1642 192.3932
1655 220.7289
1759 71.1816
1952 158.5942
1986 240.9632
2049 143.6613
2207 234.0221
2220 16.1651
2267 172.7639
2305 228.6382
2319 256.6753
2601 78.9569
2653 137.3768
2695 180.8219
2741 226.8423
2763 346.4523
2818 102.1046
2847 129.2910
2913 224.1755
2968 223.9965
2982 121.2860
2996 155.1189
3051 257.5172
3105 244.0204
3240 211.9054
3280 149.6645
3290 265.0920
3365 257.5858
3426 266.7442
3477 223.6775
3534 140.6851
3661 82.3243
3685 257.7849
3741 257.0619
3784 140.5285
3862 276.6219
PLANTSmolcadARTstart hb
PLANTSmolcadARTstart HB
LINES
PLANTSmolcadARTstart HBCH
LINES
PLANTSmolcadARTstart HB-CHO
LINES
PLANTSmolcadARTend
PLANTSmolcadARTstart HB_WATER
LINES
PLANTSmolcadARTend

PLANTSmolcadARTend

