@<TRIPOS>MOLECULE
olaparib_entry_00001_conf_62
55 59 1
SMALL
NO_CHARGES


@<TRIPOS>ATOM
      1 N          27.1987   -6.9693    6.9377 N.am      1 UNL1        0.0000
      2 N          27.0686   -6.5437    9.4971 N.am      1 UNL1        0.0000
      3 N          20.9736   -9.2428    2.8891 N.2       1 UNL1        0.0000
      4 N          20.5488   -9.5860    1.6973 N.am      1 UNL1        0.0000
      5 C          20.4589   -8.7258    0.6731 C.2       1 UNL1        0.0000
      6 C          20.8295   -7.4123    0.8753 C.ar      1 UNL1        0.0000
      7 C          20.7368   -6.4712   -0.1509 C.ar      1 UNL1        0.0000
      8 C          21.0925   -5.1598    0.0800 C.ar      1 UNL1        0.0000
      9 C          21.5305   -4.8448    1.3489 C.ar      1 UNL1        0.0000
     10 C          21.6272   -5.7681    2.3766 C.ar      1 UNL1        0.0000
     11 C          21.2752   -7.0637    2.1369 C.ar      1 UNL1        0.0000
     12 C          21.3600   -7.9599    3.1685 C.2       1 UNL1        0.0000
     13 C          21.8739   -7.7259    4.5117 C.3       1 UNL1        0.0000
     14 C          23.2689   -8.2321    4.6343 C.ar      1 UNL1        0.0000
     15 C          24.2146   -7.2969    5.0913 C.ar      1 UNL1        0.0000
     16 C          25.5311   -7.6670    5.2275 C.ar      1 UNL1        0.0000
     17 C          26.5506   -6.7047    5.7028 C.2       1 UNL1        0.0000
     18 C          28.1907   -6.0670    7.4265 C.3       1 UNL1        0.0000
     19 C          28.3172   -6.0994    8.9344 C.3       1 UNL1        0.0000
     20 C          26.6270   -7.8987    9.1492 C.3       1 UNL1        0.0000
     21 C          26.8339   -8.1618    7.6798 C.3       1 UNL1        0.0000
     22 C          26.2950   -5.7381   10.3378 C.2       1 UNL1        0.0000
     23 C          26.5920   -4.3678   10.7633 C.3       1 UNL1        0.0000
     24 C          27.2129   -4.2147   12.1334 C.3       1 UNL1        0.0000
     25 C          25.8507   -3.7367   11.8866 C.3       1 UNL1        0.0000
     26 C          25.9937   -8.9287    4.9378 C.ar      1 UNL1        0.0000
     27 C          25.0672   -9.8433    4.4905 C.ar      1 UNL1        0.0000
     28 C          23.7233   -9.4687    4.3494 C.ar      1 UNL1        0.0000
     29 O          20.0554   -9.0362   -0.4769 O.2       1 UNL1        0.0000
     30 O          25.2038   -6.2326   10.7960 O.2       1 UNL1        0.0000
     31 O          26.8532   -5.6771    5.0537 O.2       1 UNL1        0.0000
     32 F          27.3122   -9.2472    5.0890 F         1 UNL1        0.0000
     33 H          20.4021   -6.7574   -1.0842 H         1 UNL1        0.0000
     34 H          21.0330   -4.4467   -0.6624 H         1 UNL1        0.0000
     35 H          21.8004   -3.8684    1.5433 H         1 UNL1        0.0000
     36 H          21.9609   -5.4809    3.3101 H         1 UNL1        0.0000
     37 H          21.2520   -8.2323    5.2200 H         1 UNL1        0.0000
     38 H          21.8722   -6.6730    4.7035 H         1 UNL1        0.0000
     39 H          23.9208   -6.3355    5.3234 H         1 UNL1        0.0000
     40 H          27.9283   -5.0740    7.1256 H         1 UNL1        0.0000
     41 H          29.1323   -6.3689    7.0162 H         1 UNL1        0.0000
     42 H          28.5468   -5.1195    9.2968 H         1 UNL1        0.0000
     43 H          29.1022   -6.7693    9.2180 H         1 UNL1        0.0000
     44 H          25.5877   -8.0015    9.3815 H         1 UNL1        0.0000
     45 H          27.2024   -8.6053    9.7101 H         1 UNL1        0.0000
     46 H          25.9251   -8.5520    7.2712 H         1 UNL1        0.0000
     47 H          27.6423   -8.8555    7.5888 H         1 UNL1        0.0000
     48 H          26.8054   -4.0668    9.7592 H         1 UNL1        0.0000
     49 H          28.0069   -3.5136   12.2859 H         1 UNL1        0.0000
     50 H          27.6666   -4.8805   12.8376 H         1 UNL1        0.0000
     51 H          25.6527   -2.6853   11.8681 H         1 UNL1        0.0000
     52 H          24.9027   -3.9132   12.3486 H         1 UNL1        0.0000
     53 H          25.3624  -10.8054    4.2591 H         1 UNL1        0.0000
     54 H          23.0491  -10.1737    4.0117 H         1 UNL1        0.0000
     55 H          20.2832  -10.5223    1.5470 H         1 UNL1        0.0000
@<TRIPOS>BOND
     1    1   18 1
     2    1   21 1
     3    1   17 am
     4    2   19 1
     5    2   20 1
     6    2   22 am
     7    3    4 1
     8    3   12 2
     9    4    5 am
    10    4   55 1
    11    5   29 2
    12    5    6 1
    13    6    7 ar
    14    6   11 ar
    15    7    8 ar
    16    7   33 1
    17    8   34 1
    18    8    9 ar
    19    9   10 ar
    20    9   35 1
    21   10   11 ar
    22   10   36 1
    23   11   12 1
    24   12   13 1
    25   13   37 1
    26   13   38 1
    27   13   14 1
    28   14   15 ar
    29   14   28 ar
    30   15   39 1
    31   15   16 ar
    32   16   26 ar
    33   16   17 1
    34   17   31 2
    35   18   19 1
    36   18   40 1
    37   18   41 1
    38   19   42 1
    39   19   43 1
    40   20   21 1
    41   20   45 1
    42   20   44 1
    43   21   46 1
    44   21   47 1
    45   22   30 2
    46   22   23 1
    47   23   25 1
    48   23   24 1
    49   23   48 1
    50   24   25 1
    51   24   49 1
    52   24   50 1
    53   25   51 1
    54   25   52 1
    55   26   27 ar
    56   26   32 1
    57   27   28 ar
    58   27   53 1
    59   28   54 1
@<TRIPOS>SUBSTRUCTURE
1 UNL1 1
@<TRIPOS>COMMENT
olaparib
PLANTSproteinTorsions
57
1 116.9562
19 206.4328
33 123.7422
53 255.0629
108 38.7515
228 11.4891
405 115.3441
438 282.1185
479 205.7213
492 31.5661
546 120.5379
641 201.8246
776 306.1511
836 209.5948
905 64.4990
919 80.7399
988 62.0255
1139 51.4500
1332 302.1859
1388 71.5226
1606 231.1616
1642 288.2734
1655 135.6556
1759 329.2897
1952 235.6891
1986 13.5259
2049 145.3622
2207 34.3595
2220 265.8923
2267 78.7001
2305 247.9727
2319 144.2066
2601 199.3478
2653 120.5303
2695 269.9916
2741 240.5985
2763 74.6874
2818 208.3843
2847 83.0606
2913 273.1804
2968 91.5438
2982 82.7132
2996 271.3089
3051 82.1542
3105 148.7827
3240 240.9710
3280 176.2864
3290 309.2878
3365 243.7077
3426 268.2053
3477 231.6657
3534 317.0487
3661 187.5591
3685 38.5031
3741 159.0556
3784 125.3814
3862 190.6311
PLANTSmolcadARTstart hb
PLANTSmolcadARTstart HB
LINES
PLANTSmolcadARTstart HBCH
LINES
PLANTSmolcadARTstart HB-CHO
LINES
PLANTSmolcadARTend
PLANTSmolcadARTstart HB_WATER
LINES
PLANTSmolcadARTend

PLANTSmolcadARTend

