@<TRIPOS>MOLECULE
olaparib_entry_00001_conf_44
55 59 1
SMALL
NO_CHARGES


@<TRIPOS>ATOM
      1 N          26.4790  -11.7924   10.7184 N.am      1 UNL1        0.0000
      2 N          25.4978   -9.4252   10.2917 N.am      1 UNL1        0.0000
      3 N          23.4941  -18.6187   10.0459 N.2       1 UNL1        0.0000
      4 N          23.0695  -19.6947    9.4289 N.am      1 UNL1        0.0000
      5 C          23.7729  -20.8343    9.3704 C.2       1 UNL1        0.0000
      6 C          25.0060  -20.8854    9.9873 C.ar      1 UNL1        0.0000
      7 C          25.7882  -22.0400    9.9401 C.ar      1 UNL1        0.0000
      8 C          27.0262  -22.0612   10.5453 C.ar      1 UNL1        0.0000
      9 C          27.4320  -20.9061   11.1795 C.ar      1 UNL1        0.0000
     10 C          26.6666  -19.7533   11.2339 C.ar      1 UNL1        0.0000
     11 C          25.4419  -19.7436   10.6339 C.ar      1 UNL1        0.0000
     12 C          24.7056  -18.5904   10.6820 C.2       1 UNL1        0.0000
     13 C          25.0291  -17.3557   11.3849 C.3       1 UNL1        0.0000
     14 C          24.9494  -16.1907   10.4609 C.ar      1 UNL1        0.0000
     15 C          25.9081  -15.1837   10.6717 C.ar      1 UNL1        0.0000
     16 C          25.9090  -14.0634    9.8757 C.ar      1 UNL1        0.0000
     17 C          26.9029  -12.9847   10.0750 C.2       1 UNL1        0.0000
     18 C          27.4098  -10.7319   10.9327 C.3       1 UNL1        0.0000
     19 C          26.7415   -9.3763   11.0156 C.3       1 UNL1        0.0000
     20 C          24.4764  -10.3549   10.7861 C.3       1 UNL1        0.0000
     21 C          25.0971  -11.6800   11.1469 C.3       1 UNL1        0.0000
     22 C          25.2527   -8.6335    9.1660 C.2       1 UNL1        0.0000
     23 C          26.1710   -7.6744    8.5462 C.3       1 UNL1        0.0000
     24 C          26.8082   -8.1066    7.2450 C.3       1 UNL1        0.0000
     25 C          27.6268   -7.9596    8.4506 C.3       1 UNL1        0.0000
     26 C          25.0071  -13.8605    8.8581 C.ar      1 UNL1        0.0000
     27 C          24.0691  -14.8469    8.6526 C.ar      1 UNL1        0.0000
     28 C          24.0647  -15.9908    9.4636 C.ar      1 UNL1        0.0000
     29 O          23.3822  -21.8766    8.7850 O.2       1 UNL1        0.0000
     30 O          24.1072   -8.7439    8.5995 O.2       1 UNL1        0.0000
     31 O          28.0919  -13.0937    9.6968 O.2       1 UNL1        0.0000
     32 F          25.0489  -12.7296    8.0953 F         1 UNL1        0.0000
     33 H          25.4391  -22.8796    9.4519 H         1 UNL1        0.0000
     34 H          27.6220  -22.9026   10.5243 H         1 UNL1        0.0000
     35 H          28.3562  -20.9003   11.6378 H         1 UNL1        0.0000
     36 H          27.0169  -18.9136   11.7214 H         1 UNL1        0.0000
     37 H          26.0213  -17.4247   11.7797 H         1 UNL1        0.0000
     38 H          24.3240  -17.2146   12.1775 H         1 UNL1        0.0000
     39 H          26.6087  -15.2856   11.4222 H         1 UNL1        0.0000
     40 H          28.1086  -10.7207   10.1222 H         1 UNL1        0.0000
     41 H          27.8943  -10.9116   11.8702 H         1 UNL1        0.0000
     42 H          27.3798   -8.6341   10.5845 H         1 UNL1        0.0000
     43 H          26.5561   -9.1255   12.0394 H         1 UNL1        0.0000
     44 H          23.7402  -10.5074   10.0250 H         1 UNL1        0.0000
     45 H          24.0225   -9.9376   11.6606 H         1 UNL1        0.0000
     46 H          24.5320  -12.4602   10.6810 H         1 UNL1        0.0000
     47 H          25.0847  -11.7605   12.2130 H         1 UNL1        0.0000
     48 H          25.6047   -6.8444    8.9132 H         1 UNL1        0.0000
     49 H          26.9095   -7.4080    6.4406 H         1 UNL1        0.0000
     50 H          26.6318   -8.8917    6.5397 H         1 UNL1        0.0000
     51 H          28.3309   -7.1568    8.5191 H         1 UNL1        0.0000
     52 H          28.2984   -8.6018    8.9794 H         1 UNL1        0.0000
     53 H          23.3689  -14.7440    7.9008 H         1 UNL1        0.0000
     54 H          23.3504  -16.7151    9.2886 H         1 UNL1        0.0000
     55 H          22.1900  -19.6643    8.9871 H         1 UNL1        0.0000
@<TRIPOS>BOND
     1    1   18 1
     2    1   21 1
     3    1   17 am
     4    2   19 1
     5    2   20 1
     6    2   22 am
     7    3    4 1
     8    3   12 2
     9    4    5 am
    10    4   55 1
    11    5   29 2
    12    5    6 1
    13    6    7 ar
    14    6   11 ar
    15    7    8 ar
    16    7   33 1
    17    8   34 1
    18    8    9 ar
    19    9   10 ar
    20    9   35 1
    21   10   11 ar
    22   10   36 1
    23   11   12 1
    24   12   13 1
    25   13   37 1
    26   13   38 1
    27   13   14 1
    28   14   15 ar
    29   14   28 ar
    30   15   39 1
    31   15   16 ar
    32   16   26 ar
    33   16   17 1
    34   17   31 2
    35   18   19 1
    36   18   40 1
    37   18   41 1
    38   19   42 1
    39   19   43 1
    40   20   21 1
    41   20   45 1
    42   20   44 1
    43   21   46 1
    44   21   47 1
    45   22   30 2
    46   22   23 1
    47   23   25 1
    48   23   24 1
    49   23   48 1
    50   24   25 1
    51   24   49 1
    52   24   50 1
    53   25   51 1
    54   25   52 1
    55   26   27 ar
    56   26   32 1
    57   27   28 ar
    58   27   53 1
    59   28   54 1
@<TRIPOS>SUBSTRUCTURE
1 UNL1 1
@<TRIPOS>COMMENT
olaparib
PLANTSproteinTorsions
57
1 256.2734
19 67.6351
33 307.3896
53 6.4395
108 243.1543
228 107.1994
405 102.7252
438 70.0437
479 263.1761
492 188.2749
546 259.0039
641 29.4785
776 173.5018
836 145.3507
905 153.0703
919 144.5697
988 12.5461
1139 144.9370
1332 16.3881
1388 6.3508
1606 52.1273
1642 110.2702
1655 138.5530
1759 138.7591
1952 266.3407
1986 213.0660
2049 29.8868
2207 90.0921
2220 205.6192
2267 206.5132
2305 208.4829
2319 235.1542
2601 187.2378
2653 191.6933
2695 316.1116
2741 12.4821
2763 30.2599
2818 303.2803
2847 285.5946
2913 49.9278
2968 313.7249
2982 258.0496
2996 265.6583
3051 50.7460
3105 269.9557
3240 261.1199
3280 90.8223
3290 256.9031
3365 193.0122
3426 261.6045
3477 153.2442
3534 265.9561
3661 143.6400
3685 185.4595
3741 148.1968
3784 42.4153
3862 208.4720
PLANTSmolcadARTstart hb
PLANTSmolcadARTstart HB
LINES
PLANTSmolcadARTstart HBCH
LINES
PLANTSmolcadARTstart HB-CHO
LINES
PLANTSmolcadARTend
PLANTSmolcadARTstart HB_WATER
LINES
PLANTSmolcadARTend

PLANTSmolcadARTend

