@<TRIPOS>MOLECULE
olaparib_entry_00001_conf_45
55 59 1
SMALL
NO_CHARGES


@<TRIPOS>ATOM
      1 N          45.5285  -15.3711   15.8506 N.am      1 UNL1        0.0000
      2 N          43.3980  -16.2256   14.6342 N.am      1 UNL1        0.0000
      3 N          51.4083  -14.0862   12.3747 N.2       1 UNL1        0.0000
      4 N          52.0518  -12.9566   12.2061 N.am      1 UNL1        0.0000
      5 C          51.7136  -12.0491   11.2792 C.2       1 UNL1        0.0000
      6 C          50.6363  -12.3096   10.4576 C.ar      1 UNL1        0.0000
      7 C          50.2538  -11.4085    9.4632 C.ar      1 UNL1        0.0000
      8 C          49.1874  -11.6995    8.6400 C.ar      1 UNL1        0.0000
      9 C          48.5429  -12.8998    8.8523 C.ar      1 UNL1        0.0000
     10 C          48.9118  -13.8035    9.8348 C.ar      1 UNL1        0.0000
     11 C          49.9668  -13.5047   10.6457 C.ar      1 UNL1        0.0000
     12 C          50.3293  -14.4168   11.6003 C.2       1 UNL1        0.0000
     13 C          49.6638  -15.6694   11.9336 C.3       1 UNL1        0.0000
     14 C          49.4183  -15.7581   13.3996 C.ar      1 UNL1        0.0000
     15 C          48.2297  -15.1580   13.8520 C.ar      1 UNL1        0.0000
     16 C          47.9201  -15.1788   15.1909 C.ar      1 UNL1        0.0000
     17 C          46.6783  -14.5528   15.6983 C.2       1 UNL1        0.0000
     18 C          44.3140  -14.8046   16.3418 C.3       1 UNL1        0.0000
     19 C          43.0870  -15.5547   15.8696 C.3       1 UNL1        0.0000
     20 C          44.4452  -17.2519   14.6800 C.3       1 UNL1        0.0000
     21 C          45.6165  -16.7766   15.5005 C.3       1 UNL1        0.0000
     22 C          42.7462  -15.9285   13.4338 C.2       1 UNL1        0.0000
     23 C          41.6970  -14.9272   13.2251 C.3       1 UNL1        0.0000
     24 C          40.5743  -15.3221   12.2924 C.3       1 UNL1        0.0000
     25 C          41.5167  -14.2704   11.9038 C.3       1 UNL1        0.0000
     26 C          48.7213  -15.7662   16.1412 C.ar      1 UNL1        0.0000
     27 C          49.8845  -16.3533   15.6972 C.ar      1 UNL1        0.0000
     28 C          50.2039  -16.3330   14.3320 C.ar      1 UNL1        0.0000
     29 O          52.3175  -10.9600   11.1033 O.2       1 UNL1        0.0000
     30 O          43.0894  -16.5919   12.3910 O.2       1 UNL1        0.0000
     31 O          46.6153  -13.3372   15.9934 O.2       1 UNL1        0.0000
     32 F          48.3699  -15.7598   17.4600 F         1 UNL1        0.0000
     33 H          50.7695  -10.5226    9.3443 H         1 UNL1        0.0000
     34 H          48.8858  -11.0493    7.8987 H         1 UNL1        0.0000
     35 H          47.7428  -13.1377    8.2462 H         1 UNL1        0.0000
     36 H          48.3962  -14.6899    9.9524 H         1 UNL1        0.0000
     37 H          50.2819  -16.4884   11.6299 H         1 UNL1        0.0000
     38 H          48.7230  -15.7067   11.4247 H         1 UNL1        0.0000
     39 H          47.5918  -14.7030   13.1807 H         1 UNL1        0.0000
     40 H          44.2476  -13.7913   16.0038 H         1 UNL1        0.0000
     41 H          44.3384  -14.8644   17.4104 H         1 UNL1        0.0000
     42 H          42.2834  -14.8663   15.7128 H         1 UNL1        0.0000
     43 H          42.7937  -16.2714   16.6083 H         1 UNL1        0.0000
     44 H          44.7761  -17.4628   13.6847 H         1 UNL1        0.0000
     45 H          44.0445  -18.1357   15.1310 H         1 UNL1        0.0000
     46 H          46.5133  -16.9315   14.9377 H         1 UNL1        0.0000
     47 H          45.6168  -17.3345   16.4126 H         1 UNL1        0.0000
     48 H          41.8042  -14.5583   14.2235 H         1 UNL1        0.0000
     49 H          39.5629  -15.0714   12.5361 H         1 UNL1        0.0000
     50 H          40.2406  -16.2401   11.8555 H         1 UNL1        0.0000
     51 H          41.1868  -13.2535   11.8567 H         1 UNL1        0.0000
     52 H          42.1490  -14.1108   11.0565 H         1 UNL1        0.0000
     53 H          50.5217  -16.8088   16.3701 H         1 UNL1        0.0000
     54 H          51.0824  -16.7802   14.0257 H         1 UNL1        0.0000
     55 H          52.8214  -12.7650   12.7899 H         1 UNL1        0.0000
@<TRIPOS>BOND
     1    1   18 1
     2    1   21 1
     3    1   17 am
     4    2   19 1
     5    2   20 1
     6    2   22 am
     7    3    4 1
     8    3   12 2
     9    4    5 am
    10    4   55 1
    11    5   29 2
    12    5    6 1
    13    6    7 ar
    14    6   11 ar
    15    7    8 ar
    16    7   33 1
    17    8   34 1
    18    8    9 ar
    19    9   10 ar
    20    9   35 1
    21   10   11 ar
    22   10   36 1
    23   11   12 1
    24   12   13 1
    25   13   37 1
    26   13   38 1
    27   13   14 1
    28   14   15 ar
    29   14   28 ar
    30   15   39 1
    31   15   16 ar
    32   16   26 ar
    33   16   17 1
    34   17   31 2
    35   18   19 1
    36   18   40 1
    37   18   41 1
    38   19   42 1
    39   19   43 1
    40   20   21 1
    41   20   45 1
    42   20   44 1
    43   21   46 1
    44   21   47 1
    45   22   30 2
    46   22   23 1
    47   23   25 1
    48   23   24 1
    49   23   48 1
    50   24   25 1
    51   24   49 1
    52   24   50 1
    53   25   51 1
    54   25   52 1
    55   26   27 ar
    56   26   32 1
    57   27   28 ar
    58   27   53 1
    59   28   54 1
@<TRIPOS>SUBSTRUCTURE
1 UNL1 1
@<TRIPOS>COMMENT
olaparib
PLANTSproteinTorsions
57
1 52.6128
19 262.7706
33 25.5022
53 123.6957
108 236.3351
228 167.3547
405 332.9102
438 37.1716
479 139.8459
492 138.0419
546 18.2837
641 179.5370
776 178.4433
836 124.0092
905 171.3503
919 231.6855
988 320.1666
1139 117.8770
1332 353.4153
1388 167.0484
1606 167.2880
1642 258.7258
1655 120.9605
1759 242.9559
1952 276.1478
1986 268.1439
2049 298.9153
2207 238.3945
2220 145.4531
2267 203.5782
2305 86.9839
2319 155.9466
2601 149.4719
2653 253.2198
2695 69.5192
2741 154.2434
2763 324.9272
2818 139.6376
2847 204.2490
2913 67.8154
2968 264.2910
2982 99.0083
2996 276.2248
3051 271.4701
3105 30.3398
3240 206.8534
3280 202.2704
3290 244.0677
3365 113.6283
3426 149.3817
3477 149.2359
3534 214.9783
3661 166.3551
3685 105.3858
3741 245.7464
3784 165.9110
3862 269.8252
PLANTSmolcadARTstart hb
PLANTSmolcadARTstart HB
LINES
PLANTSmolcadARTstart HBCH
LINES
PLANTSmolcadARTstart HB-CHO
LINES
PLANTSmolcadARTend
PLANTSmolcadARTstart HB_WATER
LINES
PLANTSmolcadARTend

PLANTSmolcadARTend

