@<TRIPOS>MOLECULE
olaparib_entry_00001_conf_70
55 59 1
SMALL
NO_CHARGES


@<TRIPOS>ATOM
      1 N          25.3182  -11.9518    9.3265 N.am      1 UNL1        0.0000
      2 N          23.4836  -13.5544    8.4242 N.am      1 UNL1        0.0000
      3 N          28.9226   -4.6658    8.2687 N.2       1 UNL1        0.0000
      4 N          28.9353   -3.4271    8.6977 N.am      1 UNL1        0.0000
      5 C          28.2634   -3.0181    9.7831 C.2       1 UNL1        0.0000
      6 C          27.5187   -3.9405   10.4891 C.ar      1 UNL1        0.0000
      7 C          26.7844   -3.5642   11.6144 C.ar      1 UNL1        0.0000
      8 C          26.0305   -4.4984   12.2916 C.ar      1 UNL1        0.0000
      9 C          26.0452   -5.7874   11.8024 C.ar      1 UNL1        0.0000
     10 C          26.7688   -6.1747   10.6870 C.ar      1 UNL1        0.0000
     11 C          27.5136   -5.2431   10.0256 C.ar      1 UNL1        0.0000
     12 C          28.2089   -5.6389    8.9145 C.2       1 UNL1        0.0000
     13 C          28.3322   -6.9863    8.3740 C.3       1 UNL1        0.0000
     14 C          27.0031   -7.6564    8.3296 C.ar      1 UNL1        0.0000
     15 C          26.8762   -8.8037    9.1328 C.ar      1 UNL1        0.0000
     16 C          25.6900   -9.4975    9.1510 C.ar      1 UNL1        0.0000
     17 C          25.5265  -10.7107    9.9833 C.2       1 UNL1        0.0000
     18 C          25.1611  -13.1441   10.0950 C.3       1 UNL1        0.0000
     19 C          24.3509  -14.2005    9.3748 C.3       1 UNL1        0.0000
     20 C          24.1265  -12.8016    7.3418 C.3       1 UNL1        0.0000
     21 C          25.2702  -11.9784    7.8764 C.3       1 UNL1        0.0000
     22 C          22.0901  -13.6265    8.5094 C.2       1 UNL1        0.0000
     23 C          21.3045  -14.3222    9.5321 C.3       1 UNL1        0.0000
     24 C          21.5365  -15.8114    9.6526 C.3       1 UNL1        0.0000
     25 C          20.2553  -15.3054    9.1550 C.3       1 UNL1        0.0000
     26 C          24.5897   -9.1295    8.4135 C.ar      1 UNL1        0.0000
     27 C          24.7151   -8.0063    7.6276 C.ar      1 UNL1        0.0000
     28 C          25.9243   -7.2967    7.6060 C.ar      1 UNL1        0.0000
     29 O          28.2644   -1.8354   10.2107 O.2       1 UNL1        0.0000
     30 O          21.4074  -13.0249    7.6054 O.2       1 UNL1        0.0000
     31 O          25.5666  -10.6727   11.2346 O.2       1 UNL1        0.0000
     32 F          23.4334   -9.8527    8.4652 F         1 UNL1        0.0000
     33 H          26.8061   -2.5854   11.9406 H         1 UNL1        0.0000
     34 H          25.4801   -4.2445   13.1258 H         1 UNL1        0.0000
     35 H          25.4866   -6.5020   12.2939 H         1 UNL1        0.0000
     36 H          26.7457   -7.1536   10.3606 H         1 UNL1        0.0000
     37 H          28.9930   -7.5556    8.9940 H         1 UNL1        0.0000
     38 H          28.7196   -6.9249    7.3783 H         1 UNL1        0.0000
     39 H          27.6716   -9.1240    9.7067 H         1 UNL1        0.0000
     40 H          24.6661  -12.8980   11.0115 H         1 UNL1        0.0000
     41 H          26.1373  -13.5477   10.2687 H         1 UNL1        0.0000
     42 H          23.7647  -14.7481   10.0824 H         1 UNL1        0.0000
     43 H          25.0068  -14.8767    8.8669 H         1 UNL1        0.0000
     44 H          23.4076  -12.1516    6.8888 H         1 UNL1        0.0000
     45 H          24.5075  -13.4919    6.6184 H         1 UNL1        0.0000
     46 H          25.1642  -10.9746    7.5210 H         1 UNL1        0.0000
     47 H          26.1773  -12.4290    7.5340 H         1 UNL1        0.0000
     48 H          21.3160  -13.4648   10.1717 H         1 UNL1        0.0000
     49 H          21.5930  -16.2678   10.6190 H         1 UNL1        0.0000
     50 H          22.2749  -16.4946    9.2878 H         1 UNL1        0.0000
     51 H          19.3766  -15.4020    9.7579 H         1 UNL1        0.0000
     52 H          19.6765  -15.4786    8.2729 H         1 UNL1        0.0000
     53 H          23.9181   -7.6865    7.0543 H         1 UNL1        0.0000
     54 H          25.9918   -6.4581    7.0078 H         1 UNL1        0.0000
     55 H          29.4654   -2.7644    8.1979 H         1 UNL1        0.0000
@<TRIPOS>BOND
     1    1   18 1
     2    1   21 1
     3    1   17 am
     4    2   19 1
     5    2   20 1
     6    2   22 am
     7    3    4 1
     8    3   12 2
     9    4    5 am
    10    4   55 1
    11    5   29 2
    12    5    6 1
    13    6    7 ar
    14    6   11 ar
    15    7    8 ar
    16    7   33 1
    17    8   34 1
    18    8    9 ar
    19    9   10 ar
    20    9   35 1
    21   10   11 ar
    22   10   36 1
    23   11   12 1
    24   12   13 1
    25   13   37 1
    26   13   38 1
    27   13   14 1
    28   14   15 ar
    29   14   28 ar
    30   15   39 1
    31   15   16 ar
    32   16   26 ar
    33   16   17 1
    34   17   31 2
    35   18   19 1
    36   18   40 1
    37   18   41 1
    38   19   42 1
    39   19   43 1
    40   20   21 1
    41   20   45 1
    42   20   44 1
    43   21   46 1
    44   21   47 1
    45   22   30 2
    46   22   23 1
    47   23   25 1
    48   23   24 1
    49   23   48 1
    50   24   25 1
    51   24   49 1
    52   24   50 1
    53   25   51 1
    54   25   52 1
    55   26   27 ar
    56   26   32 1
    57   27   28 ar
    58   27   53 1
    59   28   54 1
@<TRIPOS>SUBSTRUCTURE
1 UNL1 1
@<TRIPOS>COMMENT
olaparib
PLANTSproteinTorsions
57
1 190.7205
19 60.2056
33 167.7336
53 3.4982
108 353.1372
228 287.6866
405 198.1927
438 290.2047
479 56.6186
492 186.2033
546 198.5840
641 148.9576
776 249.0108
836 141.8501
905 196.5767
919 107.0045
988 210.7917
1139 136.4214
1332 305.2782
1388 28.3670
1606 357.7811
1642 72.5612
1655 195.4498
1759 99.2540
1952 28.0793
1986 211.6960
2049 321.2991
2207 106.3613
2220 260.5470
2267 117.8811
2305 13.8162
2319 39.3721
2601 211.9012
2653 285.6749
2695 123.8555
2741 132.5258
2763 24.6929
2818 249.0662
2847 48.3075
2913 236.7315
2968 106.8861
2982 185.2138
2996 164.9108
3051 192.8225
3105 271.5585
3240 48.9498
3280 39.5650
3290 285.8371
3365 277.5381
3426 214.8643
3477 259.5891
3534 297.7140
3661 164.3967
3685 76.5922
3741 132.2174
3784 231.2958
3862 313.2014
PLANTSmolcadARTstart hb
PLANTSmolcadARTstart HB
LINES
PLANTSmolcadARTstart HBCH
LINES
PLANTSmolcadARTstart HB-CHO
LINES
PLANTSmolcadARTend
PLANTSmolcadARTstart HB_WATER
LINES
PLANTSmolcadARTend

PLANTSmolcadARTend

