@<TRIPOS>MOLECULE
olaparib_entry_00001_conf_11
55 59 1
SMALL
NO_CHARGES


@<TRIPOS>ATOM
      1 N          24.5301  -11.5048   11.6525 N.am      1 UNL1        0.0000
      2 N          25.5127  -13.8822   11.2910 N.am      1 UNL1        0.0000
      3 N          24.7905   -6.3320   10.4949 N.2       1 UNL1        0.0000
      4 N          24.7324   -5.4599   11.4720 N.am      1 UNL1        0.0000
      5 C          25.7017   -4.5677   11.7195 C.2       1 UNL1        0.0000
      6 C          26.8195   -4.5607   10.9107 C.ar      1 UNL1        0.0000
      7 C          27.8668   -3.6667   11.1364 C.ar      1 UNL1        0.0000
      8 C          28.9833   -3.6921   10.3287 C.ar      1 UNL1        0.0000
      9 C          29.0013   -4.6279    9.3162 C.ar      1 UNL1        0.0000
     10 C          27.9696   -5.5213    9.0810 C.ar      1 UNL1        0.0000
     11 C          26.8682   -5.4860    9.8844 C.ar      1 UNL1        0.0000
     12 C          25.8651   -6.3877    9.6492 C.2       1 UNL1        0.0000
     13 C          25.7755   -7.3577    8.5656 C.3       1 UNL1        0.0000
     14 C          24.5718   -8.2184    8.7315 C.ar      1 UNL1        0.0000
     15 C          24.5425   -9.0000    9.9002 C.ar      1 UNL1        0.0000
     16 C          23.4770   -9.8349   10.1376 C.ar      1 UNL1        0.0000
     17 C          23.4188  -10.6726   11.3568 C.2       1 UNL1        0.0000
     18 C          24.5129  -12.3231   12.8218 C.3       1 UNL1        0.0000
     19 C          25.3852  -13.5527   12.6868 C.3       1 UNL1        0.0000
     20 C          26.1642  -12.8891   10.4299 C.3       1 UNL1        0.0000
     21 C          25.6672  -11.5031   10.7510 C.3       1 UNL1        0.0000
     22 C          25.0439  -15.0865   10.7580 C.2       1 UNL1        0.0000
     23 C          24.3639  -16.1646   11.4807 C.3       1 UNL1        0.0000
     24 C          23.1241  -16.7288   10.8246 C.3       1 UNL1        0.0000
     25 C          23.0131  -15.9610   12.0669 C.3       1 UNL1        0.0000
     26 C          22.4087   -9.9566    9.2809 C.ar      1 UNL1        0.0000
     27 C          22.4384   -9.1912    8.1372 C.ar      1 UNL1        0.0000
     28 C          23.5245   -8.3389    7.8914 C.ar      1 UNL1        0.0000
     29 O          25.6636   -3.7229   12.6505 O.2       1 UNL1        0.0000
     30 O          25.2171  -15.2885    9.5032 O.2       1 UNL1        0.0000
     31 O          22.4292  -10.6669   12.1245 O.2       1 UNL1        0.0000
     32 F          21.3739  -10.8012    9.5614 F         1 UNL1        0.0000
     33 H          27.8052   -2.9849   11.9087 H         1 UNL1        0.0000
     34 H          29.7695   -3.0413   10.4755 H         1 UNL1        0.0000
     35 H          29.8284   -4.6647    8.7008 H         1 UNL1        0.0000
     36 H          28.0324   -6.2036    8.3091 H         1 UNL1        0.0000
     37 H          26.6513   -7.9725    8.5697 H         1 UNL1        0.0000
     38 H          25.6966   -6.8317    7.6369 H         1 UNL1        0.0000
     39 H          25.3190   -8.9469   10.5776 H         1 UNL1        0.0000
     40 H          23.5060  -12.6356   13.0062 H         1 UNL1        0.0000
     41 H          24.9002  -11.7389   13.6309 H         1 UNL1        0.0000
     42 H          24.9365  -14.3707   13.2101 H         1 UNL1        0.0000
     43 H          26.3515  -13.3592   13.1041 H         1 UNL1        0.0000
     44 H          25.9459  -13.1123    9.4066 H         1 UNL1        0.0000
     45 H          27.2203  -12.9241   10.5984 H         1 UNL1        0.0000
     46 H          25.3775  -11.0241    9.8390 H         1 UNL1        0.0000
     47 H          26.4627  -10.9821   11.2398 H         1 UNL1        0.0000
     48 H          25.2897  -16.5316   11.8715 H         1 UNL1        0.0000
     49 H          22.9488  -17.7845   10.8303 H         1 UNL1        0.0000
     50 H          22.6859  -16.6621    9.8507 H         1 UNL1        0.0000
     51 H          22.7482  -16.4587   12.9763 H         1 UNL1        0.0000
     52 H          22.4503  -15.1024   12.3658 H         1 UNL1        0.0000
     53 H          21.6604   -9.2448    7.4605 H         1 UNL1        0.0000
     54 H          23.5221   -7.7762    7.0260 H         1 UNL1        0.0000
     55 H          23.9368   -5.4599   12.0524 H         1 UNL1        0.0000
@<TRIPOS>BOND
     1    1   18 1
     2    1   21 1
     3    1   17 am
     4    2   19 1
     5    2   20 1
     6    2   22 am
     7    3    4 1
     8    3   12 2
     9    4    5 am
    10    4   55 1
    11    5   29 2
    12    5    6 1
    13    6    7 ar
    14    6   11 ar
    15    7    8 ar
    16    7   33 1
    17    8   34 1
    18    8    9 ar
    19    9   10 ar
    20    9   35 1
    21   10   11 ar
    22   10   36 1
    23   11   12 1
    24   12   13 1
    25   13   37 1
    26   13   38 1
    27   13   14 1
    28   14   15 ar
    29   14   28 ar
    30   15   39 1
    31   15   16 ar
    32   16   26 ar
    33   16   17 1
    34   17   31 2
    35   18   19 1
    36   18   40 1
    37   18   41 1
    38   19   42 1
    39   19   43 1
    40   20   21 1
    41   20   45 1
    42   20   44 1
    43   21   46 1
    44   21   47 1
    45   22   30 2
    46   22   23 1
    47   23   25 1
    48   23   24 1
    49   23   48 1
    50   24   25 1
    51   24   49 1
    52   24   50 1
    53   25   51 1
    54   25   52 1
    55   26   27 ar
    56   26   32 1
    57   27   28 ar
    58   27   53 1
    59   28   54 1
@<TRIPOS>SUBSTRUCTURE
1 UNL1 1
@<TRIPOS>COMMENT
olaparib
PLANTSproteinTorsions
57
1 199.0817
19 170.0121
33 309.4120
53 7.8080
108 242.8251
228 283.4488
405 352.2293
438 251.4261
479 310.0033
492 184.9138
546 176.2773
641 247.1045
776 16.5764
836 14.1196
905 257.7466
919 204.2201
988 201.3748
1139 161.5757
1332 358.3855
1388 151.1208
1606 7.6866
1642 74.5944
1655 163.5508
1759 24.2870
1952 89.7219
1986 186.8430
2049 334.8753
2207 157.1411
2220 209.7967
2267 122.4791
2305 50.1395
2319 10.8203
2601 214.1900
2653 199.8839
2695 106.9340
2741 299.7733
2763 9.4616
2818 72.7742
2847 32.9912
2913 233.7934
2968 121.9265
2982 187.0642
2996 177.2073
3051 196.8041
3105 265.7782
3240 98.2438
3280 310.2533
3290 264.1791
3365 118.2479
3426 270.2233
3477 245.4767
3534 269.9520
3661 38.0688
3685 89.1121
3741 116.3031
3784 86.2336
3862 218.0289
PLANTSmolcadARTstart hb
PLANTSmolcadARTstart HB
LINES
23.9368 -5.45992 12.0524 22.481 -6.115 12.416 0 255 0 5
25.6636 -3.72292 12.6505 23.968 -3.983 13.835 0 255 0 5
25.6636 -3.72292 12.6505 25.8747 -2.34424 13.8015 0 255 0 5
PLANTSmolcadARTstart HBCH
LINES
PLANTSmolcadARTstart HB-CHO
LINES
PLANTSmolcadARTend
PLANTSmolcadARTstart HB_WATER
LINES
PLANTSmolcadARTend

PLANTSmolcadARTend

