@<TRIPOS>MOLECULE
olaparib_entry_00001_conf_07_protein
164 107 56
SMALL
NO_CHARGES


@<TRIPOS>ATOM
      1 H          -2.4288  -17.0901   31.5630 H       764 LYS764      0.0000
      2 N          -1.8090  -17.0210   30.7870 N.4     764 LYS764      1.0000
      3 HZ1        -4.7000  -11.7681   34.7310 H       764 LYS764      0.0000
      4 NZ         -4.6160  -11.9740   33.7550 N.4     764 LYS764      1.0000
      5 HZ2        -4.7809  -11.1424   33.2244 H       764 LYS764      0.0000
      6 HZ3        -5.2903  -12.6684   33.5029 H       764 LYS764      0.0000
      7 H2         -2.2901  -17.2517   29.9460 H       764 LYS764      0.0000
      8 H3         -1.0349  -17.6343   30.9152 H       764 LYS764      0.0000
      9 HG          4.6820  -13.0525   29.2500 H       765 SER765      0.0000
     10 OG          4.1840  -13.1860   30.1070 O.3     765 SER765      0.0000
     11 HZ1         1.6926  -15.0198   39.1935 H       766 LYS766      0.0000
     12 NZ          1.4050  -15.2360   38.2610 N.4     766 LYS766      1.0000
     13 HZ2         1.6035  -14.4630   37.6604 H       766 LYS766      0.0000
     14 HZ3         0.4242  -15.4271   38.2486 H       766 LYS766      0.0000
     15 HZ1         0.8388   -3.3030   25.8801 H       769 LYS769      0.0000
     16 NZ          1.4680   -4.0750   25.9730 N.4     769 LYS769      1.0000
     17 HZ2         2.3543   -3.7440   26.2986 H       769 LYS769      0.0000
     18 HZ3         1.5847   -4.5173   25.0834 H       769 LYS769      0.0000
     19 HZ1         0.1168   -8.9423   22.6502 H       776 LYS776      0.0000
     20 NZ          0.1170   -9.7850   23.1900 N.4     776 LYS776      1.0000
     21 HZ2        -0.7957  -10.1939   23.1686 H       776 LYS776      0.0000
     22 HZ3         0.3644   -9.5729   24.1365 H       776 LYS776      0.0000
     23 HH         14.2997  -12.9196   30.5534 H       794 TYR794      0.0000
     24 OH         13.9770  -13.7890   30.9260 O.3     794 TYR794      0.0000
     25 HZ1         8.5971  -21.4016   19.8091 H       796 LYS796      0.0000
     26 NZ          8.2050  -22.0980   20.4120 N.4     796 LYS796      1.0000
     27 HZ2         7.9346  -22.8934   19.8685 H       796 LYS796      0.0000
     28 HZ3         7.4012  -21.7235   20.8752 H       796 LYS796      0.0000
     29 HZ1        16.8568  -25.5916   26.6015 H       798 LYS798      0.0000
     30 NZ         16.9690  -24.6940   27.0300 N.4     798 LYS798      1.0000
     31 HZ2        17.8324  -24.6724   27.5351 H       798 LYS798      0.0000
     32 HZ3        16.2106  -24.5306   27.6628 H       798 LYS798      0.0000
     33 HG1        19.6571  -14.4377   24.9089 H       799 THR799      0.0000
     34 OG1        19.0880  -15.1290   25.3720 O.3     799 THR799      0.0000
     35 HZ1        19.6942   -8.5059   36.9040 H       802 LYS802      0.0000
     36 NZ         18.9140   -9.0730   37.1700 N.4     802 LYS802      1.0000
     37 HZ2        18.3537   -8.5771   37.8345 H       802 LYS802      0.0000
     38 HZ3        19.2447   -9.9221   37.5824 H       802 LYS802      0.0000
     39 HG         19.4897    3.6704   33.5102 H       808 SER808      0.0000
     40 OG         18.8290    3.0870   33.9750 O.3     808 SER808      0.0000
     41 HZ1        27.9137   14.0870   27.3682 H       816 LYS816      0.0000
     42 NZ         27.0940   13.5620   27.6020 N.4     816 LYS816      1.0000
     43 HZ2        26.3840   14.1845   27.9353 H       816 LYS816      0.0000
     44 HZ3        27.3172   12.8993   28.3176 H       816 LYS816      0.0000
     45 HZ1        19.8092   16.8853   22.6755 H       819 LYS819      0.0000
     46 NZ         20.4900   16.2240   22.9930 N.4     819 LYS819      1.0000
     47 HZ2        20.0877   15.6535   23.7101 H       819 LYS819      0.0000
     48 HZ3        21.2794   16.7147   23.3653 H       819 LYS819      0.0000
     49 HG1        27.7354   14.3026    8.0586 H       824 THR824      0.0000
     50 OG1        27.0480   13.5740    8.1490 O.3     824 THR824      0.0000
     51 HG1        26.8861    8.4200    5.3348 H       825 THR825      0.0000
     52 OG1        26.3170    9.0170    5.9110 O.3     825 THR825      0.0000
     53 HH         20.4838    4.4690    9.7056 H       829 TYR829      0.0000
     54 OH         19.7890    4.1170   10.3320 O.3     829 TYR829      0.0000
     55 HZ1        24.1328   -5.0736   34.8214 H       838 LYS838      0.0000
     56 NZ         23.9540   -4.4680   34.0450 N.4     838 LYS838      1.0000
     57 HZ2        24.8044   -4.0158   33.7741 H       838 LYS838      0.0000
     58 HZ3        23.2813   -3.7767   34.3112 H       838 LYS838      0.0000
     59 HZ1        36.3377  -19.9933   35.0710 H       849 LYS849      0.0000
     60 NZ         35.3740  -19.7320   34.9990 N.4     849 LYS849      1.0000
     61 HZ2        35.0621  -19.3660   35.8766 H       849 LYS849      0.0000
     62 HZ3        34.8281  -20.5364   34.7616 H       849 LYS849      0.0000
     63 HZ1        34.4115   -7.6393   30.6953 H       852 LYS852      0.0000
     64 NZ         34.3540   -8.6150   30.9110 N.4     852 LYS852      1.0000
     65 HZ2        35.1141   -9.0977   30.4730 H       852 LYS852      0.0000
     66 HZ3        33.4875   -8.9802   30.5697 H       852 LYS852      0.0000
     67 HG         19.7207   -9.5098   11.3557 H       864 SER864      0.0000
     68 OG         20.4070   -9.6170   12.0730 O.3     864 SER864      0.0000
     69 HG1        12.2247   -6.2467   14.5130 H       866 THR866      0.0000
     70 OG1        12.7710   -6.5990   13.7440 O.3     866 THR866      0.0000
     71 HG1        14.6622  -11.5956   10.1974 H       867 THR867      0.0000
     72 OG1        13.8710  -11.9580    9.6910 O.3     867 THR867      0.0000
     73 HG         18.5549  -18.4669   19.1155 H       874 SER874      0.0000
     74 OG         18.3140  -19.3790   19.4500 O.3     874 SER874      0.0000
     75 HG1        28.1561  -11.6593   -2.0661 H       887 THR887      0.0000
     76 OG1        28.7570  -10.8640   -2.2110 O.3     887 THR887      0.0000
     77 HH         26.8894  -12.4477    6.7488 H       889 TYR889      0.0000
     78 OH         27.4610  -11.9710    7.4180 O.3     889 TYR889      0.0000
     79 HZ1        31.5337  -18.0656    3.8167 H       893 LYS893      0.0000
     80 NZ         31.0380  -17.4100    3.2450 N.4     893 LYS893      1.0000
     81 HZ2        30.0712  -17.6656    3.2079 H       893 LYS893      0.0000
     82 HZ3        31.4196  -17.4217    2.3200 H       893 LYS893      0.0000
     83 HZ1        31.3562    1.6540    7.8921 H       903 LYS903      0.0000
     84 NZ         31.2940    1.1550    8.7570 N.4     903 LYS903      1.0000
     85 HZ2        31.6107    1.7425    9.5031 H       903 LYS903      0.0000
     86 HZ3        31.8701    0.3380    8.7108 H       903 LYS903      0.0000
     87 HG         26.3882   -0.6400   14.3652 H       904 SER904      0.0000
     88 OG         25.7970   -1.4170   14.1610 O.3     904 SER904      0.0000
     89 HH         27.6963   -3.2446    6.7684 H       907 TYR907      0.0000
     90 OH         26.8550   -3.0780    6.2560 O.3     907 TYR907      0.0000
     91 HG1        14.8580    0.1971    9.4423 H       910 THR910      0.0000
     92 OG1        14.0450    0.5090    9.9470 O.3     910 THR910      0.0000
     93 HG          9.7359   -1.7930    6.3852 H       911 SER911      0.0000
     94 OG          9.2550   -1.1060    5.8440 O.3     911 SER911      0.0000
     95 HH         48.3004   -7.5126    8.0770 H       930 TYR930      0.0000
     96 OH         47.6330   -6.7930    7.8910 O.3     930 TYR930      0.0000
     97 HZ1        45.8907    5.5520    4.5265 H       933 LYS933      0.0000
     98 NZ         45.5450    5.4620    5.4640 N.4     933 LYS933      1.0000
     99 HZ2        44.8423    6.1614    5.6194 H       933 LYS933      0.0000
    100 HZ3        46.3021    5.6129    6.1051 H       933 LYS933      0.0000
    101 HG         42.9837   -8.5717    2.8332 H       936 SER936      0.0000
    102 OG         43.3320   -7.7720    3.3190 O.3     936 SER936      0.0000
    103 HG         46.0055  -14.6110    5.4058 H       939 SER939      0.0000
    104 OG         45.8480  -15.5290    5.7620 O.3     939 SER939      0.0000
    105 HZ1        48.8136  -19.3444   13.4944 H       940 LYS940      0.0000
    106 NZ         48.4430  -19.1590   12.5840 N.4     940 LYS940      1.0000
    107 HZ2        47.8215  -19.8976   12.3211 H       940 LYS940      0.0000
    108 HZ3        49.1928  -19.1040   11.9244 H       940 LYS940      0.0000
    109 HZ1        54.9237  -17.3158   13.6931 H       943 LYS943      0.0000
    110 NZ         54.8780  -16.3930   14.0810 N.4     943 LYS943      1.0000
    111 HZ2        55.3596  -15.7568   13.4748 H       943 LYS943      0.0000
    112 HZ3        55.3227  -16.3917   14.9792 H       943 LYS943      0.0000
    113 HZ1        48.3065   -4.0597   16.8657 H       945 LYS945      0.0000
    114 NZ         47.9660   -3.9500   15.9300 N.4     945 LYS945      1.0000
    115 HZ2        48.5352   -3.2805   15.4493 H       945 LYS945      0.0000
    116 HZ3        47.0212   -3.6178   15.9590 H       945 LYS945      0.0000
    117 HZ1        39.0714    3.0637   16.9707 H       949 LYS949      0.0000
    118 NZ         39.0210    3.4460   16.0470 N.4     949 LYS949      1.0000
    119 HZ2        39.9419    3.6906   15.7395 H       949 LYS949      0.0000
    120 HZ3        38.4465    4.2651   16.0580 H       949 LYS949      0.0000
    121 HZ1        39.8635   11.9065    5.3811 H       953 LYS953      0.0000
    122 NZ         39.3720   11.7790    4.5190 N.4     953 LYS953      1.0000
    123 HZ2        39.8335   11.0793    3.9733 H       953 LYS953      0.0000
    124 HZ3        39.3590   12.6415    4.0129 H       953 LYS953      0.0000
    125 HG1        33.7464   11.6505    9.1971 H       954 THR954      0.0000
    126 OG1        32.8150   11.4890    9.5420 O.3     954 THR954      0.0000
    127 HG1        36.7097    8.1795   16.7283 H       955 THR955      0.0000
    128 OG1        36.2440    7.7040   15.9730 O.3     955 THR955      0.0000
    129 HG         35.9852   14.2720   23.6198 H       959 SER959      0.0000
    130 OG         36.7030   14.9300   23.8350 O.3     959 SER959      0.0000
    131 HG         35.3074    2.1759   33.1549 H       963 SER963      0.0000
    132 OG         34.6240    2.2350   32.4300 O.3     963 SER963      0.0000
    133 HG1        29.9160   16.3742   18.5565 H       973 THR973      0.0000
    134 OG1        29.9090   15.5570   19.1430 O.3     973 THR973      0.0000
    135 HG         38.2167   13.7383    9.8417 H       976 SER976      0.0000
    136 OG         38.2040   14.7390    9.8050 O.3     976 SER976      0.0000
    137 HG         39.1927    8.7745   10.1951 H       977 SER977      0.0000
    138 OG         39.0840    9.7360   10.4400 O.3     977 SER977      0.0000
    139 HG         37.8519    1.5529   -0.4559 H       983 SER983      0.0000
    140 OG         38.3060    1.7120    0.4210 O.3     983 SER983      0.0000
    141 HH         27.7566    9.1443    6.8281 H       986 TYR986      0.0000
    142 OH         28.1490    9.4530    7.6940 O.3     986 TYR986      0.0000
    143 HH         36.4804    2.5006   16.9603 H       989 TYR989      0.0000
    144 OH         35.5890    2.1920   17.2870 O.3     989 TYR989      0.0000
    145 HH         38.2107   -8.8159   10.1057 H       992 TYR992      0.0000
    146 OH         38.5210   -9.6720    9.6920 O.3     992 TYR992      0.0000
    147 HZ1        29.4139   -4.4094   30.3817 H      1000 LYS1000     0.0000
    148 NZ         28.7270   -4.9670   30.8480 N.4    1000 LYS1000     1.0000
    149 HZ2        28.4784   -4.5356   31.7155 H      1000 LYS1000     0.0000
    150 HZ3        29.0991   -5.8780   31.0221 H      1000 LYS1000     0.0000
    151 HH         23.6279   -1.3898   31.5709 H      1001 TYR1001     0.0000
    152 OH         24.3090   -1.7060   30.9120 O.3    1001 TYR1001     0.0000
    153 HZ1         6.9781   -2.8736   21.1318 H      1004 LYS1004     0.0000
    154 NZ          7.6740   -2.8190   21.8480 N.4    1004 LYS1004     1.0000
    155 HZ2         8.0234   -3.7349   22.0441 H      1004 LYS1004     0.0000
    156 HZ3         7.2696   -2.4322   22.6769 H      1004 LYS1004     0.0000
    157 HZ1         7.0306    7.1097   14.9075 H      1006 LYS1006     0.0000
    158 NZ          6.7120    6.1960   15.1620 N.4    1006 LYS1006     1.0000
    159 HZ2         5.7497    6.0958   14.9066 H      1006 LYS1006     0.0000
    160 HZ3         6.8083    6.0731   16.1501 H      1006 LYS1006     0.0000
    161 HZ1        16.3577   14.2175    9.5714 H      1010 LYS1010     0.0000
    162 NZ         16.4710   13.2710    9.2670 N.4    1010 LYS1010     1.0000
    163 HZ2        17.0434   12.7769    9.9216 H      1010 LYS1010     0.0000
    164 HZ3        16.9098   13.2613    8.3675 H      1010 LYS1010     0.0000
@<TRIPOS>BOND
     1    2    7 1
     2    2    8 1
     3    2    1 1
     4    4    3 1
     5    4    5 1
     6    4    6 1
     7   10    9 1
     8   12   11 1
     9   12   13 1
    10   12   14 1
    11   16   18 1
    12   16   15 1
    13   16   17 1
    14   20   19 1
    15   20   21 1
    16   20   22 1
    17   24   23 1
    18   26   28 1
    19   26   25 1
    20   26   27 1
    21   30   31 1
    22   30   32 1
    23   30   29 1
    24   34   33 1
    25   36   35 1
    26   36   37 1
    27   36   38 1
    28   40   39 1
    29   42   43 1
    30   42   44 1
    31   42   41 1
    32   46   45 1
    33   46   47 1
    34   46   48 1
    35   50   49 1
    36   52   51 1
    37   54   53 1
    38   56   55 1
    39   56   58 1
    40   56   57 1
    41   60   59 1
    42   60   61 1
    43   60   62 1
    44   64   63 1
    45   64   65 1
    46   64   66 1
    47   68   67 1
    48   70   69 1
    49   72   71 1
    50   74   73 1
    51   76   75 1
    52   78   77 1
    53   80   79 1
    54   80   81 1
    55   80   82 1
    56   84   83 1
    57   84   85 1
    58   84   86 1
    59   88   87 1
    60   90   89 1
    61   92   91 1
    62   94   93 1
    63   96   95 1
    64   98   97 1
    65   98   99 1
    66   98  100 1
    67  102  101 1
    68  104  103 1
    69  106  105 1
    70  106  107 1
    71  106  108 1
    72  110  112 1
    73  110  109 1
    74  110  111 1
    75  114  116 1
    76  114  113 1
    77  114  115 1
    78  118  117 1
    79  118  119 1
    80  118  120 1
    81  122  121 1
    82  122  123 1
    83  122  124 1
    84  126  125 1
    85  128  127 1
    86  130  129 1
    87  132  131 1
    88  134  133 1
    89  136  135 1
    90  138  137 1
    91  140  139 1
    92  142  141 1
    93  144  143 1
    94  146  145 1
    95  148  147 1
    96  148  149 1
    97  148  150 1
    98  152  151 1
    99  154  153 1
   100  154  156 1
   101  154  155 1
   102  158  157 1
   103  158  159 1
   104  158  160 1
   105  162  164 1
   106  162  161 1
   107  162  163 1
@<TRIPOS>SUBSTRUCTURE
764 LYS764 1
765 SER765 9
766 LYS766 11
769 LYS769 15
776 LYS776 19
794 TYR794 23
796 LYS796 25
798 LYS798 29
799 THR799 33
802 LYS802 35
808 SER808 39
816 LYS816 41
819 LYS819 45
824 THR824 49
825 THR825 51
829 TYR829 53
838 LYS838 55
849 LYS849 59
852 LYS852 63
864 SER864 67
866 THR866 69
867 THR867 71
874 SER874 73
887 THR887 75
889 TYR889 77
893 LYS893 79
903 LYS903 83
904 SER904 87
907 TYR907 89
910 THR910 91
911 SER911 93
930 TYR930 95
933 LYS933 97
936 SER936 101
939 SER939 103
940 LYS940 105
943 LYS943 109
945 LYS945 113
949 LYS949 117
953 LYS953 121
954 THR954 125
955 THR955 127
959 SER959 129
963 SER963 131
973 THR973 133
976 SER976 135
977 SER977 137
983 SER983 139
986 TYR986 141
989 TYR989 143
992 TYR992 145
1000 LYS1000 147
1001 TYR1001 151
1004 LYS1004 153
1006 LYS1006 157
1010 LYS1010 161
@<TRIPOS>COMMENT
