@<TRIPOS>MOLECULE
olaparib_entry_00001_conf_16
55 59 1
SMALL
NO_CHARGES


@<TRIPOS>ATOM
      1 N          22.6375  -12.6871    8.0338 N.am      1 UNL1        0.0000
      2 N          23.5770  -14.5940    6.5406 N.am      1 UNL1        0.0000
      3 N          27.0386   -7.5545    8.3995 N.2       1 UNL1        0.0000
      4 N          27.9373   -6.6847    8.0065 N.am      1 UNL1        0.0000
      5 C          28.1511   -5.5167    8.6286 C.2       1 UNL1        0.0000
      6 C          27.3916   -5.2070    9.7380 C.ar      1 UNL1        0.0000
      7 C          27.5593   -3.9962   10.4110 C.ar      1 UNL1        0.0000
      8 C          26.7745   -3.6988   11.5043 C.ar      1 UNL1        0.0000
      9 C          25.8412   -4.6420   11.8791 C.ar      1 UNL1        0.0000
     10 C          25.6637   -5.8472   11.2205 C.ar      1 UNL1        0.0000
     11 C          26.4472   -6.1328   10.1414 C.ar      1 UNL1        0.0000
     12 C          26.2467   -7.3209    9.4911 C.2       1 UNL1        0.0000
     13 C          25.3350   -8.3957    9.8605 C.3       1 UNL1        0.0000
     14 C          24.3729   -8.6687    8.7573 C.ar      1 UNL1        0.0000
     15 C          23.6345   -9.8594    8.8784 C.ar      1 UNL1        0.0000
     16 C          22.7282  -10.2037    7.9043 C.ar      1 UNL1        0.0000
     17 C          21.9385  -11.4520    8.0015 C.2       1 UNL1        0.0000
     18 C          21.9109  -13.9116    8.1319 C.3       1 UNL1        0.0000
     19 C          22.6600  -15.0844    7.5364 C.3       1 UNL1        0.0000
     20 C          24.6385  -13.6920    7.0006 C.3       1 UNL1        0.0000
     21 C          24.0870  -12.6746    7.9661 C.3       1 UNL1        0.0000
     22 C          23.4794  -14.9465    5.1914 C.2       1 UNL1        0.0000
     23 C          22.4740  -15.8192    4.5792 C.3       1 UNL1        0.0000
     24 C          22.8319  -17.2852    4.4851 C.3       1 UNL1        0.0000
     25 C          22.7248  -16.4756    3.2693 C.3       1 UNL1        0.0000
     26 C          22.4913   -9.4355    6.7891 C.ar      1 UNL1        0.0000
     27 C          23.2147   -8.2702    6.6715 C.ar      1 UNL1        0.0000
     28 C          24.1410   -7.9164    7.6631 C.ar      1 UNL1        0.0000
     29 O          29.0088   -4.6706    8.2677 O.2       1 UNL1        0.0000
     30 O          24.3536  -14.4643    4.3862 O.2       1 UNL1        0.0000
     31 O          20.6872  -11.4484    8.0556 O.2       1 UNL1        0.0000
     32 F          21.5805   -9.8214    5.8487 F         1 UNL1        0.0000
     33 H          28.2724   -3.3226   10.0904 H         1 UNL1        0.0000
     34 H          26.8802   -2.8110   12.0180 H         1 UNL1        0.0000
     35 H          25.2425   -4.4386   12.6942 H         1 UNL1        0.0000
     36 H          24.9495   -6.5199   11.5411 H         1 UNL1        0.0000
     37 H          24.7929   -8.1117   10.7383 H         1 UNL1        0.0000
     38 H          25.9042   -9.2825   10.0474 H         1 UNL1        0.0000
     39 H          23.7731  -10.4731    9.6961 H         1 UNL1        0.0000
     40 H          20.9808  -13.8003    7.6143 H         1 UNL1        0.0000
     41 H          21.7626  -14.1170    9.1721 H         1 UNL1        0.0000
     42 H          21.9662  -15.7616    7.0843 H         1 UNL1        0.0000
     43 H          23.1991  -15.5982    8.3050 H         1 UNL1        0.0000
     44 H          25.0598  -13.1845    6.1583 H         1 UNL1        0.0000
     45 H          25.3905  -14.2676    7.4989 H         1 UNL1        0.0000
     46 H          24.4046  -11.7012    7.6552 H         1 UNL1        0.0000
     47 H          24.4553  -12.9226    8.9387 H         1 UNL1        0.0000
     48 H          21.6737  -15.2227    4.9639 H         1 UNL1        0.0000
     49 H          22.0946  -18.0309    4.6984 H         1 UNL1        0.0000
     50 H          23.5866  -17.9095    4.9160 H         1 UNL1        0.0000
     51 H          21.9119  -16.6392    2.5929 H         1 UNL1        0.0000
     52 H          23.3773  -16.2753    2.4462 H         1 UNL1        0.0000
     53 H          23.0746   -7.6566    5.8530 H         1 UNL1        0.0000
     54 H          24.6705   -7.0375    7.5504 H         1 UNL1        0.0000
     55 H          28.4826   -6.9005    7.2154 H         1 UNL1        0.0000
@<TRIPOS>BOND
     1    1   18 1
     2    1   21 1
     3    1   17 am
     4    2   19 1
     5    2   20 1
     6    2   22 am
     7    3    4 1
     8    3   12 2
     9    4    5 am
    10    4   55 1
    11    5   29 2
    12    5    6 1
    13    6    7 ar
    14    6   11 ar
    15    7    8 ar
    16    7   33 1
    17    8   34 1
    18    8    9 ar
    19    9   10 ar
    20    9   35 1
    21   10   11 ar
    22   10   36 1
    23   11   12 1
    24   12   13 1
    25   13   37 1
    26   13   38 1
    27   13   14 1
    28   14   15 ar
    29   14   28 ar
    30   15   39 1
    31   15   16 ar
    32   16   26 ar
    33   16   17 1
    34   17   31 2
    35   18   19 1
    36   18   40 1
    37   18   41 1
    38   19   42 1
    39   19   43 1
    40   20   21 1
    41   20   45 1
    42   20   44 1
    43   21   46 1
    44   21   47 1
    45   22   30 2
    46   22   23 1
    47   23   25 1
    48   23   24 1
    49   23   48 1
    50   24   25 1
    51   24   49 1
    52   24   50 1
    53   25   51 1
    54   25   52 1
    55   26   27 ar
    56   26   32 1
    57   27   28 ar
    58   27   53 1
    59   28   54 1
@<TRIPOS>SUBSTRUCTURE
1 UNL1 1
@<TRIPOS>COMMENT
olaparib
PLANTSproteinTorsions
57
1 277.6153
19 156.2437
33 2.7266
53 19.9136
108 92.3900
228 28.4533
405 14.8767
438 233.3991
479 27.0266
492 192.8867
546 41.9533
641 257.4643
776 178.7159
836 172.1129
905 149.9738
919 78.5144
988 253.2643
1139 219.5114
1332 44.2819
1388 46.3108
1606 243.7073
1642 31.8285
1655 191.3407
1759 44.8379
1952 84.3567
1986 312.9383
2049 356.0462
2207 167.6015
2220 122.6861
2267 55.3069
2305 20.5354
2319 8.5326
2601 212.0210
2653 98.5502
2695 161.3681
2741 250.8224
2763 32.2973
2818 329.5421
2847 121.3398
2913 205.8277
2968 287.0694
2982 287.2161
2996 232.8827
3051 177.4095
3105 97.3296
3240 64.4293
3280 318.9325
3290 67.8064
3365 104.9203
3426 301.4132
3477 198.2471
3534 238.4177
3661 327.1125
3685 262.5739
3741 82.7343
3784 304.7163
3862 196.9565
PLANTSmolcadARTstart hb
PLANTSmolcadARTstart HB
LINES
20.6872 -11.4484 8.0556 19.025 -11.497 9.332 0 255 0 5
PLANTSmolcadARTstart HBCH
LINES
PLANTSmolcadARTstart HB-CHO
LINES
PLANTSmolcadARTend
PLANTSmolcadARTstart HB_WATER
LINES
PLANTSmolcadARTend

PLANTSmolcadARTend

