@<TRIPOS>MOLECULE
olaparib_entry_00001_conf_25
55 59 1
SMALL
NO_CHARGES


@<TRIPOS>ATOM
      1 N          24.5137  -12.6307    8.1286 N.am      1 UNL1        0.0000
      2 N          23.6176  -14.5138    6.5797 N.am      1 UNL1        0.0000
      3 N          25.7888   -7.1558    9.9402 N.2       1 UNL1        0.0000
      4 N          25.1611   -6.4267   10.8307 N.am      1 UNL1        0.0000
      5 C          25.5930   -5.2226   11.2314 C.2       1 UNL1        0.0000
      6 C          26.7553   -4.7188   10.6846 C.ar      1 UNL1        0.0000
      7 C          27.2601   -3.4798   11.0808 C.ar      1 UNL1        0.0000
      8 C          28.4344   -3.0060   10.5366 C.ar      1 UNL1        0.0000
      9 C          29.0609   -3.8083    9.6065 C.ar      1 UNL1        0.0000
     10 C          28.5717   -5.0399    9.2044 C.ar      1 UNL1        0.0000
     11 C          27.4075   -5.4983    9.7471 C.ar      1 UNL1        0.0000
     12 C          26.9470   -6.7255    9.3516 C.2       1 UNL1        0.0000
     13 C          27.5082   -7.6008    8.3308 C.3       1 UNL1        0.0000
     14 C          26.4291   -8.3620    7.6428 C.ar      1 UNL1        0.0000
     15 C          25.8677   -9.4187    8.3816 C.ar      1 UNL1        0.0000
     16 C          24.8717  -10.1866    7.8275 C.ar      1 UNL1        0.0000
     17 C          24.2633  -11.3078    8.5785 C.2       1 UNL1        0.0000
     18 C          23.9484  -13.7379    8.8296 C.3       1 UNL1        0.0000
     19 C          23.7521  -14.9504    7.9451 C.3       1 UNL1        0.0000
     20 C          24.7679  -13.8240    5.9855 C.3       1 UNL1        0.0000
     21 C          25.3463  -12.8270    6.9564 C.3       1 UNL1        0.0000
     22 C          22.4537  -14.7255    5.8349 C.2       1 UNL1        0.0000
     23 C          21.2243  -15.3811    6.2886 C.3       1 UNL1        0.0000
     24 C          21.0266  -16.8114    5.8398 C.3       1 UNL1        0.0000
     25 C          20.1543  -15.7530    5.3261 C.3       1 UNL1        0.0000
     26 C          24.3760   -9.9801    6.5620 C.ar      1 UNL1        0.0000
     27 C          24.9262   -8.9456    5.8396 C.ar      1 UNL1        0.0000
     28 C          25.9433   -8.1607    6.4016 C.ar      1 UNL1        0.0000
     29 O          25.0045   -4.5082   12.0828 O.2       1 UNL1        0.0000
     30 O          22.4396  -14.3077    4.6223 O.2       1 UNL1        0.0000
     31 O          23.5435  -11.1238    9.5868 O.2       1 UNL1        0.0000
     32 F          23.3858  -10.7714    6.0559 F         1 UNL1        0.0000
     33 H          26.7533   -2.9168   11.7817 H         1 UNL1        0.0000
     34 H          28.8268   -2.0934   10.8131 H         1 UNL1        0.0000
     35 H          29.9421   -3.4729    9.1878 H         1 UNL1        0.0000
     36 H          29.0797   -5.6029    8.5042 H         1 UNL1        0.0000
     37 H          28.1862   -8.2890    8.7909 H         1 UNL1        0.0000
     38 H          28.0218   -7.0025    7.6073 H         1 UNL1        0.0000
     39 H          26.2029   -9.6172    9.3371 H         1 UNL1        0.0000
     40 H          22.9979  -13.4440    9.2244 H         1 UNL1        0.0000
     41 H          24.6320  -14.0115    9.6067 H         1 UNL1        0.0000
     42 H          22.8686  -15.4740    8.2442 H         1 UNL1        0.0000
     43 H          24.5938  -15.6053    8.0358 H         1 UNL1        0.0000
     44 H          24.4531  -13.3110    5.1010 H         1 UNL1        0.0000
     45 H          25.5193  -14.5470    5.7454 H         1 UNL1        0.0000
     46 H          25.4566  -11.8874    6.4563 H         1 UNL1        0.0000
     47 H          26.2854  -13.2131    7.2915 H         1 UNL1        0.0000
     48 H          21.2318  -14.8335    7.2075 H         1 UNL1        0.0000
     49 H          20.6406  -17.5384    6.5237 H         1 UNL1        0.0000
     50 H          21.6514  -17.5596    5.3985 H         1 UNL1        0.0000
     51 H          19.1292  -15.7158    5.6309 H         1 UNL1        0.0000
     52 H          19.8815  -15.4203    4.3472 H         1 UNL1        0.0000
     53 H          24.5894   -8.7476    4.8838 H         1 UNL1        0.0000
     54 H          26.3390   -7.3914    5.8384 H         1 UNL1        0.0000
     55 H          24.3308   -6.7809   11.2242 H         1 UNL1        0.0000
@<TRIPOS>BOND
     1    1   18 1
     2    1   21 1
     3    1   17 am
     4    2   19 1
     5    2   20 1
     6    2   22 am
     7    3    4 1
     8    3   12 2
     9    4    5 am
    10    4   55 1
    11    5   29 2
    12    5    6 1
    13    6    7 ar
    14    6   11 ar
    15    7    8 ar
    16    7   33 1
    17    8   34 1
    18    8    9 ar
    19    9   10 ar
    20    9   35 1
    21   10   11 ar
    22   10   36 1
    23   11   12 1
    24   12   13 1
    25   13   37 1
    26   13   38 1
    27   13   14 1
    28   14   15 ar
    29   14   28 ar
    30   15   39 1
    31   15   16 ar
    32   16   26 ar
    33   16   17 1
    34   17   31 2
    35   18   19 1
    36   18   40 1
    37   18   41 1
    38   19   42 1
    39   19   43 1
    40   20   21 1
    41   20   45 1
    42   20   44 1
    43   21   46 1
    44   21   47 1
    45   22   30 2
    46   22   23 1
    47   23   25 1
    48   23   24 1
    49   23   48 1
    50   24   25 1
    51   24   49 1
    52   24   50 1
    53   25   51 1
    54   25   52 1
    55   26   27 ar
    56   26   32 1
    57   27   28 ar
    58   27   53 1
    59   28   54 1
@<TRIPOS>SUBSTRUCTURE
1 UNL1 1
@<TRIPOS>COMMENT
olaparib
PLANTSproteinTorsions
57
1 118.1345
19 189.7473
33 232.8279
53 181.8417
108 357.5914
228 4.9997
405 353.3009
438 240.2042
479 195.0620
492 245.2079
546 130.1733
641 140.0263
776 173.4383
836 242.1007
905 234.0028
919 326.6151
988 258.0502
1139 236.3859
1332 331.9218
1388 32.0435
1606 158.6241
1642 110.6524
1655 258.7415
1759 39.6504
1952 227.7745
1986 177.6103
2049 67.6160
2207 201.8904
2220 223.0355
2267 31.3921
2305 322.2490
2319 272.3408
2601 38.1707
2653 206.0400
2695 111.1580
2741 149.7442
2763 153.0180
2818 182.0320
2847 86.1182
2913 136.2609
2968 161.1508
2982 125.1639
2996 99.8468
3051 276.3281
3105 80.5566
3240 54.2279
3280 201.8627
3290 196.3538
3365 278.1927
3426 107.9036
3477 184.7388
3534 44.4129
3661 303.3721
3685 243.6855
3741 177.2892
3784 314.2760
3862 182.7541
PLANTSmolcadARTstart hb
PLANTSmolcadARTstart HB
LINES
24.3308 -6.78094 11.2242 22.481 -6.115 12.416 0 255 0 5
25.0045 -4.50816 12.0828 23.968 -3.983 13.835 0 255 0 5
PLANTSmolcadARTstart HBCH
LINES
PLANTSmolcadARTstart HB-CHO
LINES
PLANTSmolcadARTend
PLANTSmolcadARTstart HB_WATER
LINES
PLANTSmolcadARTend

PLANTSmolcadARTend

