@<TRIPOS>MOLECULE
olaparib_entry_00001_conf_72
55 59 1
SMALL
NO_CHARGES


@<TRIPOS>ATOM
      1 N          42.5458  -19.5559   12.9723 N.am      1 UNL1        0.0000
      2 N          42.9203  -20.6744   15.2868 N.am      1 UNL1        0.0000
      3 N          39.0002  -16.3123   11.1223 N.2       1 UNL1        0.0000
      4 N          37.9261  -17.0638   11.1109 N.am      1 UNL1        0.0000
      5 C          37.0754  -17.1145   10.0762 C.2       1 UNL1        0.0000
      6 C          37.3359  -16.3400    8.9645 C.ar      1 UNL1        0.0000
      7 C          36.4727  -16.3398    7.8681 C.ar      1 UNL1        0.0000
      8 C          36.7418  -15.5418    6.7770 C.ar      1 UNL1        0.0000
      9 C          37.8806  -14.7665    6.8350 C.ar      1 UNL1        0.0000
     10 C          38.7456  -14.7565    7.9164 C.ar      1 UNL1        0.0000
     11 C          38.4716  -15.5518    8.9899 C.ar      1 UNL1        0.0000
     12 C          39.3276  -15.5168   10.0578 C.2       1 UNL1        0.0000
     13 C          40.5809  -14.7822   10.1711 C.3       1 UNL1        0.0000
     14 C          41.3907  -15.3003   11.3082 C.ar      1 UNL1        0.0000
     15 C          41.8403  -16.6263   11.1770 C.ar      1 UNL1        0.0000
     16 C          42.5867  -17.1974   12.1798 C.ar      1 UNL1        0.0000
     17 C          43.0715  -18.5919   12.0726 C.2       1 UNL1        0.0000
     18 C          42.9854  -20.9116   12.8966 C.3       1 UNL1        0.0000
     19 C          42.8668  -21.6386   14.2189 C.3       1 UNL1        0.0000
     20 C          41.8481  -19.6744   15.3346 C.3       1 UNL1        0.0000
     21 C          41.5650  -19.1358   13.9558 C.3       1 UNL1        0.0000
     22 C          43.9383  -20.6710   16.2450 C.2       1 UNL1        0.0000
     23 C          45.0781  -21.5884   16.3230 C.3       1 UNL1        0.0000
     24 C          44.7716  -23.0528   16.1045 C.3       1 UNL1        0.0000
     25 C          45.1903  -22.5790   17.4256 C.3       1 UNL1        0.0000
     26 C          42.9311  -16.5350   13.3342 C.ar      1 UNL1        0.0000
     27 C          42.4904  -15.2372   13.4616 C.ar      1 UNL1        0.0000
     28 C          41.7278  -14.6518   12.4408 C.ar      1 UNL1        0.0000
     29 O          36.0413  -17.8297   10.0461 O.2       1 UNL1        0.0000
     30 O          43.8880  -19.7761   17.1626 O.2       1 UNL1        0.0000
     31 O          43.9214  -18.9401   11.2210 O.2       1 UNL1        0.0000
     32 F          43.6742  -17.1467   14.3019 F         1 UNL1        0.0000
     33 H          35.6321  -16.9383    7.8736 H         1 UNL1        0.0000
     34 H          36.1193  -15.5249    5.9551 H         1 UNL1        0.0000
     35 H          38.0997  -14.1609    6.0292 H         1 UNL1        0.0000
     36 H          39.5856  -14.1568    7.9106 H         1 UNL1        0.0000
     37 H          40.3685  -13.7461   10.3332 H         1 UNL1        0.0000
     38 H          41.1383  -14.9089    9.2663 H         1 UNL1        0.0000
     39 H          41.6102  -17.1692   10.3302 H         1 UNL1        0.0000
     40 H          44.0108  -20.9225   12.5901 H         1 UNL1        0.0000
     41 H          42.3566  -21.4164   12.1924 H         1 UNL1        0.0000
     42 H          43.6738  -22.3333   14.3206 H         1 UNL1        0.0000
     43 H          41.9398  -22.1721   14.2574 H         1 UNL1        0.0000
     44 H          42.1455  -18.8685   15.9723 H         1 UNL1        0.0000
     45 H          40.9602  -20.1364   15.7130 H         1 UNL1        0.0000
     46 H          41.5641  -18.0666   14.0001 H         1 UNL1        0.0000
     47 H          40.6170  -19.5230   13.6484 H         1 UNL1        0.0000
     48 H          45.7420  -20.8504   15.9243 H         1 UNL1        0.0000
     49 H          45.4327  -23.6563   15.5179 H         1 UNL1        0.0000
     50 H          43.9354  -23.6031   15.7265 H         1 UNL1        0.0000
     51 H          46.1550  -22.8460   17.8038 H         1 UNL1        0.0000
     52 H          44.7779  -22.6514   18.4095 H         1 UNL1        0.0000
     53 H          42.7220  -14.6948   14.3092 H         1 UNL1        0.0000
     54 H          41.4097  -13.6772   12.5617 H         1 UNL1        0.0000
     55 H          37.7353  -17.6191   11.9015 H         1 UNL1        0.0000
@<TRIPOS>BOND
     1    1   18 1
     2    1   21 1
     3    1   17 am
     4    2   19 1
     5    2   20 1
     6    2   22 am
     7    3    4 1
     8    3   12 2
     9    4    5 am
    10    4   55 1
    11    5   29 2
    12    5    6 1
    13    6    7 ar
    14    6   11 ar
    15    7    8 ar
    16    7   33 1
    17    8   34 1
    18    8    9 ar
    19    9   10 ar
    20    9   35 1
    21   10   11 ar
    22   10   36 1
    23   11   12 1
    24   12   13 1
    25   13   37 1
    26   13   38 1
    27   13   14 1
    28   14   15 ar
    29   14   28 ar
    30   15   39 1
    31   15   16 ar
    32   16   26 ar
    33   16   17 1
    34   17   31 2
    35   18   19 1
    36   18   40 1
    37   18   41 1
    38   19   42 1
    39   19   43 1
    40   20   21 1
    41   20   45 1
    42   20   44 1
    43   21   46 1
    44   21   47 1
    45   22   30 2
    46   22   23 1
    47   23   25 1
    48   23   24 1
    49   23   48 1
    50   24   25 1
    51   24   49 1
    52   24   50 1
    53   25   51 1
    54   25   52 1
    55   26   27 ar
    56   26   32 1
    57   27   28 ar
    58   27   53 1
    59   28   54 1
@<TRIPOS>SUBSTRUCTURE
1 UNL1 1
@<TRIPOS>COMMENT
olaparib
PLANTSproteinTorsions
57
1 117.6309
19 252.1647
33 230.6971
53 18.6210
108 264.5661
228 14.8607
405 202.8547
438 66.7470
479 10.3773
492 257.1560
546 200.2489
641 257.7595
776 0.7309
836 70.4169
905 40.2566
919 206.4915
988 358.2999
1139 101.9576
1332 354.7227
1388 0.3331
1606 69.3623
1642 253.9635
1655 31.7576
1759 190.2855
1952 40.0085
1986 23.0078
2049 20.3633
2207 288.6284
2220 144.7966
2267 220.0031
2305 82.4068
2319 225.4746
2601 144.5579
2653 42.4225
2695 261.8449
2741 216.3685
2763 258.4511
2818 107.8243
2847 128.5092
2913 12.2740
2968 254.0514
2982 33.9535
2996 174.3773
3051 277.9084
3105 34.2544
3240 226.3248
3280 317.4793
3290 166.3550
3365 250.6839
3426 159.6953
3477 85.5900
3534 238.1102
3661 246.5874
3685 58.2764
3741 180.0255
3784 154.2064
3862 230.9309
PLANTSmolcadARTstart hb
PLANTSmolcadARTstart HB
LINES
PLANTSmolcadARTstart HBCH
LINES
PLANTSmolcadARTstart HB-CHO
LINES
PLANTSmolcadARTend
PLANTSmolcadARTstart HB_WATER
LINES
PLANTSmolcadARTend

PLANTSmolcadARTend

