@<TRIPOS>MOLECULE
olaparib_entry_00001_conf_68
55 59 1
SMALL
NO_CHARGES


@<TRIPOS>ATOM
      1 N          27.2327   -6.9865    6.8701 N.am      1 UNL1        0.0000
      2 N          27.4322   -6.4007    9.3930 N.am      1 UNL1        0.0000
      3 N          23.1186   -9.0767    9.4288 N.2       1 UNL1        0.0000
      4 N          23.7084   -9.4241   10.5469 N.am      1 UNL1        0.0000
      5 C          24.2945  -10.6157   10.7294 C.2       1 UNL1        0.0000
      6 C          24.2802  -11.5278    9.6942 C.ar      1 UNL1        0.0000
      7 C          24.8578  -12.7898    9.8376 C.ar      1 UNL1        0.0000
      8 C          24.8129  -13.6927    8.7972 C.ar      1 UNL1        0.0000
      9 C          24.1799  -13.2846    7.6422 C.ar      1 UNL1        0.0000
     10 C          23.6022  -12.0357    7.4862 C.ar      1 UNL1        0.0000
     11 C          23.6545  -11.1489    8.5209 C.ar      1 UNL1        0.0000
     12 C          23.0631   -9.9251    8.3562 C.2       1 UNL1        0.0000
     13 C          22.4375   -9.3928    7.1527 C.3       1 UNL1        0.0000
     14 C          23.4563   -9.1601    6.0920 C.ar      1 UNL1        0.0000
     15 C          24.4126   -8.1694    6.3777 C.ar      1 UNL1        0.0000
     16 C          25.3882   -7.8751    5.4556 C.ar      1 UNL1        0.0000
     17 C          26.4067   -6.8353    5.7256 C.2       1 UNL1        0.0000
     18 C          28.2294   -6.0071    7.1607 C.3       1 UNL1        0.0000
     19 C          28.5640   -5.9342    8.6350 C.3       1 UNL1        0.0000
     20 C          27.0251   -7.7954    9.1904 C.3       1 UNL1        0.0000
     21 C          27.0425   -8.1440    7.7243 C.3       1 UNL1        0.0000
     22 C          26.7369   -5.5801   10.2861 C.2       1 UNL1        0.0000
     23 C          27.0108   -4.1720   10.5849 C.3       1 UNL1        0.0000
     24 C          28.2842   -3.8880   11.3492 C.3       1 UNL1        0.0000
     25 C          26.9823   -3.6658   11.9823 C.3       1 UNL1        0.0000
     26 C          25.4909   -8.5062    4.2386 C.ar      1 UNL1        0.0000
     27 C          24.5542   -9.4757    3.9600 C.ar      1 UNL1        0.0000
     28 C          23.5568   -9.7779    4.8981 C.ar      1 UNL1        0.0000
     29 O          24.8660  -10.9665   11.7934 O.2       1 UNL1        0.0000
     30 O          25.7493   -6.0958   10.9215 O.2       1 UNL1        0.0000
     31 O          26.5578   -5.8391    4.9816 O.2       1 UNL1        0.0000
     32 F          26.4784   -8.1773    3.3559 F         1 UNL1        0.0000
     33 H          25.3200  -13.0476   10.7236 H         1 UNL1        0.0000
     34 H          25.2330  -14.6308    8.8793 H         1 UNL1        0.0000
     35 H          24.1339  -13.9457    6.8517 H         1 UNL1        0.0000
     36 H          23.1391  -11.7790    6.6001 H         1 UNL1        0.0000
     37 H          21.9548   -8.4669    7.3866 H         1 UNL1        0.0000
     38 H          21.7222  -10.1028    6.7925 H         1 UNL1        0.0000
     39 H          24.3817   -7.6647    7.2771 H         1 UNL1        0.0000
     40 H          27.8717   -5.0498    6.8425 H         1 UNL1        0.0000
     41 H          29.1212   -6.2891    6.6401 H         1 UNL1        0.0000
     42 H          28.7848   -4.9226    8.9038 H         1 UNL1        0.0000
     43 H          29.4176   -6.5452    8.8437 H         1 UNL1        0.0000
     44 H          26.0353   -7.9330    9.5725 H         1 UNL1        0.0000
     45 H          27.7117   -8.4349    9.7048 H         1 UNL1        0.0000
     46 H          26.1099   -8.6039    7.4714 H         1 UNL1        0.0000
     47 H          27.8690   -8.8022    7.5608 H         1 UNL1        0.0000
     48 H          26.5454   -3.8540    9.6757 H         1 UNL1        0.0000
     49 H          28.8967   -3.0536   11.0774 H         1 UNL1        0.0000
     50 H          29.1607   -4.4501   11.5955 H         1 UNL1        0.0000
     51 H          26.6515   -2.6673   12.1788 H         1 UNL1        0.0000
     52 H          26.5265   -4.0018   12.8893 H         1 UNL1        0.0000
     53 H          24.5866   -9.9805    3.0598 H         1 UNL1        0.0000
     54 H          22.8665  -10.5088    4.6640 H         1 UNL1        0.0000
     55 H          23.7221   -8.7770   11.2892 H         1 UNL1        0.0000
@<TRIPOS>BOND
     1    1   18 1
     2    1   21 1
     3    1   17 am
     4    2   19 1
     5    2   20 1
     6    2   22 am
     7    3    4 1
     8    3   12 2
     9    4    5 am
    10    4   55 1
    11    5   29 2
    12    5    6 1
    13    6    7 ar
    14    6   11 ar
    15    7    8 ar
    16    7   33 1
    17    8   34 1
    18    8    9 ar
    19    9   10 ar
    20    9   35 1
    21   10   11 ar
    22   10   36 1
    23   11   12 1
    24   12   13 1
    25   13   37 1
    26   13   38 1
    27   13   14 1
    28   14   15 ar
    29   14   28 ar
    30   15   39 1
    31   15   16 ar
    32   16   26 ar
    33   16   17 1
    34   17   31 2
    35   18   19 1
    36   18   40 1
    37   18   41 1
    38   19   42 1
    39   19   43 1
    40   20   21 1
    41   20   45 1
    42   20   44 1
    43   21   46 1
    44   21   47 1
    45   22   30 2
    46   22   23 1
    47   23   25 1
    48   23   24 1
    49   23   48 1
    50   24   25 1
    51   24   49 1
    52   24   50 1
    53   25   51 1
    54   25   52 1
    55   26   27 ar
    56   26   32 1
    57   27   28 ar
    58   27   53 1
    59   28   54 1
@<TRIPOS>SUBSTRUCTURE
1 UNL1 1
@<TRIPOS>COMMENT
olaparib
PLANTSproteinTorsions
57
1 200.1207
19 163.5257
33 1.2561
53 203.8336
108 60.5369
228 159.6951
405 16.8580
438 147.9912
479 92.7845
492 33.3172
546 128.0670
641 223.6393
776 52.2558
836 294.5414
905 42.8866
919 80.5022
988 250.0773
1139 64.7698
1332 335.1181
1388 99.3064
1606 205.0109
1642 195.3029
1655 23.2653
1759 94.2220
1952 218.5962
1986 312.7784
2049 66.4548
2207 38.4994
2220 195.1537
2267 355.7923
2305 284.2656
2319 241.6664
2601 279.8540
2653 146.2449
2695 92.2139
2741 260.4375
2763 88.9513
2818 188.9815
2847 271.4018
2913 247.8423
2968 175.2601
2982 90.4520
2996 257.9059
3051 108.0585
3105 357.6714
3240 143.3793
3280 180.0731
3290 236.2287
3365 108.8601
3426 220.1989
3477 111.3721
3534 327.7488
3661 253.2624
3685 218.4128
3741 230.5079
3784 277.6202
3862 268.5659
PLANTSmolcadARTstart hb
PLANTSmolcadARTstart HB
LINES
26.5578 -5.8391 4.98158 26.9628 -3.84963 5.6307 0 255 0 5
PLANTSmolcadARTstart HBCH
LINES
PLANTSmolcadARTstart HB-CHO
LINES
PLANTSmolcadARTend
PLANTSmolcadARTstart HB_WATER
LINES
PLANTSmolcadARTend

PLANTSmolcadARTend

