@<TRIPOS>MOLECULE
olaparib_entry_00001_conf_15_protein
164 107 56
SMALL
NO_CHARGES


@<TRIPOS>ATOM
      1 H          -1.6110  -17.3734   31.6968 H       764 LYS764      0.0000
      2 N          -1.8090  -17.0210   30.7870 N.4     764 LYS764      1.0000
      3 HZ1        -4.7091  -11.0444   33.3955 H       764 LYS764      0.0000
      4 NZ         -4.6160  -11.9740   33.7550 N.4     764 LYS764      1.0000
      5 HZ2        -5.2917  -12.5685   33.3187 H       764 LYS764      0.0000
      6 HZ3        -4.7702  -11.9648   34.7433 H       764 LYS764      0.0000
      7 H2         -2.7921  -17.0251   30.6273 H       764 LYS764      0.0000
      8 H3         -1.3504  -17.5776   30.1002 H       764 LYS764      0.0000
      9 HG          4.4434  -12.3846   29.5678 H       765 SER765      0.0000
     10 OG          4.1840  -13.1860   30.1070 O.3     765 SER765      0.0000
     11 HZ1         1.4154  -15.2181   39.2603 H       766 LYS766      0.0000
     12 NZ          1.4050  -15.2360   38.2610 N.4     766 LYS766      1.0000
     13 HZ2         1.8438  -14.4121   37.9056 H       766 LYS766      0.0000
     14 HZ3         0.4609  -15.2798   37.9363 H       766 LYS766      0.0000
     15 HZ1         0.8863   -4.0464   25.1598 H       769 LYS769      0.0000
     16 NZ          1.4680   -4.0750   25.9730 N.4     769 LYS769      1.0000
     17 HZ2         1.4980   -3.1670   26.3922 H       769 LYS769      0.0000
     18 HZ3         2.3930   -4.3506   25.7101 H       769 LYS769      0.0000
     19 HZ1         0.5108   -8.8651   23.2028 H       776 LYS776      0.0000
     20 NZ          0.1170   -9.7850   23.1900 N.4     776 LYS776      1.0000
     21 HZ2        -0.7112   -9.7845   22.6288 H       776 LYS776      0.0000
     22 HZ3        -0.1144  -10.0600   24.1243 H       776 LYS776      0.0000
     23 HH         13.5324  -13.5455   31.7873 H       794 TYR794      0.0000
     24 OH         13.9770  -13.7890   30.9260 O.3     794 TYR794      0.0000
     25 HZ1         7.4188  -21.6842   20.8733 H       796 LYS796      0.0000
     26 NZ          8.2050  -22.0980   20.4120 N.4     796 LYS796      1.0000
     27 HZ2         8.6093  -21.4324   19.7837 H       796 LYS796      0.0000
     28 HZ3         7.9043  -22.9011   19.8966 H       796 LYS796      0.0000
     29 HZ1        16.0740  -25.1418   27.0459 H       798 LYS798      0.0000
     30 NZ         16.9690  -24.6940   27.0300 N.4     798 LYS798      1.0000
     31 HZ2        17.6767  -25.3725   26.8302 H       798 LYS798      0.0000
     32 HZ3        17.1495  -24.2800   27.9236 H       798 LYS798      0.0000
     33 HG1        20.0755  -15.0821   25.5686 H       799 THR799      0.0000
     34 OG1        19.0880  -15.1290   25.3720 O.3     799 THR799      0.0000
     35 HZ1        19.5758   -8.3570   36.9453 H       802 LYS802      0.0000
     36 NZ         18.9140   -9.0730   37.1700 N.4     802 LYS802      1.0000
     37 HZ2        18.3164   -8.7541   37.9066 H       802 LYS802      0.0000
     38 HZ3        19.4005   -9.8942   37.4691 H       802 LYS802      0.0000
     39 HG         19.7874    3.0269   33.7089 H       808 SER808      0.0000
     40 OG         18.8290    3.0870   33.9750 O.3     808 SER808      0.0000
     41 HZ1        26.3446   13.6717   28.2566 H       816 LYS816      0.0000
     42 NZ         27.0940   13.5620   27.6020 N.4     816 LYS816      1.0000
     43 HZ2        27.8322   13.0352   28.0265 H       816 LYS816      0.0000
     44 HZ3        27.4388   14.4634   27.3380 H       816 LYS816      0.0000
     45 HZ1        20.0758   17.0648   22.6420 H       819 LYS819      0.0000
     46 NZ         20.4900   16.2240   22.9930 N.4     819 LYS819      1.0000
     47 HZ2        19.8190   15.7316   23.5486 H       819 LYS819      0.0000
     48 HZ3        21.2814   16.4569   23.5603 H       819 LYS819      0.0000
     49 HG1        26.9668   12.5876    7.9702 H       824 THR824      0.0000
     50 OG1        27.0480   13.5740    8.1490 O.3     824 THR824      0.0000
     51 HG1        27.1030    9.2579    6.4910 H       825 THR825      0.0000
     52 OG1        26.3170    9.0170    5.9110 O.3     825 THR825      0.0000
     53 HH         20.1410    4.2826   11.2527 H       829 TYR829      0.0000
     54 OH         19.7890    4.1170   10.3320 O.3     829 TYR829      0.0000
     55 HZ1        23.8882   -3.4921   33.8333 H       838 LYS838      0.0000
     56 NZ         23.9540   -4.4680   34.0450 N.4     838 LYS838      1.0000
     57 HZ2        23.4192   -4.6661   34.8670 H       838 LYS838      0.0000
     58 HZ3        24.9116   -4.7088   34.2067 H       838 LYS838      0.0000
     59 HZ1        36.0463  -19.4241   35.6738 H       849 LYS849      0.0000
     60 NZ         35.3740  -19.7320   34.9990 N.4     849 LYS849      1.0000
     61 HZ2        34.4945  -19.8844   35.4514 H       849 LYS849      0.0000
     62 HZ3        35.6868  -20.5872   34.5842 H       849 LYS849      0.0000
     63 HZ1        34.4595   -7.6440   30.6923 H       852 LYS852      0.0000
     64 NZ         34.3540   -8.6150   30.9110 N.4     852 LYS852      1.0000
     65 HZ2        35.0857   -9.1366   30.4695 H       852 LYS852      0.0000
     66 HZ3        33.4679   -8.9366   30.5763 H       852 LYS852      0.0000
     67 HG         20.2448  -10.4613   12.5808 H       864 SER864      0.0000
     68 OG         20.4070   -9.6170   12.0730 O.3     864 SER864      0.0000
     69 HG1        13.6313   -6.4692   14.2509 H       866 THR866      0.0000
     70 OG1        12.7710   -6.5990   13.7440 O.3     866 THR866      0.0000
     71 HG1        14.5539  -12.6464    9.4198 H       867 THR867      0.0000
     72 OG1        13.8710  -11.9580    9.6910 O.3     867 THR867      0.0000
     73 HG         18.2538  -20.3184   19.1100 H       874 SER874      0.0000
     74 OG         18.3140  -19.3790   19.4500 O.3     874 SER874      0.0000
     75 HG1        29.6003  -10.6398   -2.7143 H       887 THR887      0.0000
     76 OG1        28.7570  -10.8640   -2.2110 O.3     887 THR887      0.0000
     77 HH         27.7080  -12.2100    8.3580 H       889 TYR889      0.0000
     78 OH         27.4610  -11.9710    7.4180 O.3     889 TYR889      0.0000
     79 HZ1        31.5733  -18.0578    3.7892 H       893 LYS893      0.0000
     80 NZ         31.0380  -17.4100    3.2450 N.4     893 LYS893      1.0000
     81 HZ2        30.0759  -17.6849    3.2526 H       893 LYS893      0.0000
     82 HZ3        31.3753  -17.4102    2.3029 H       893 LYS893      0.0000
     83 HZ1        31.5321    0.9758    7.8019 H       903 LYS903      0.0000
     84 NZ         31.2940    1.1550    8.7570 N.4     903 LYS903      1.0000
     85 HZ2        31.4050    2.1311    8.9496 H       903 LYS903      0.0000
     86 HZ3        31.8998    0.6281    9.3543 H       903 LYS903      0.0000
     87 HG         26.3891   -0.6393   14.3599 H       904 SER904      0.0000
     88 OG         25.7970   -1.4170   14.1610 O.3     904 SER904      0.0000
     89 HH         26.6806   -2.2719    5.6922 H       907 TYR907      0.0000
     90 OH         26.8550   -3.0780    6.2560 O.3     907 TYR907      0.0000
     91 HG1        13.6088    1.4052    9.8071 H       910 THR910      0.0000
     92 OG1        14.0450    0.5090    9.9470 O.3     910 THR910      0.0000
     93 HG          9.1922   -1.8781    5.2147 H       911 SER911      0.0000
     94 OG          9.2550   -1.1060    5.8440 O.3     911 SER911      0.0000
     95 HH         48.3908   -7.4045    8.1140 H       930 TYR930      0.0000
     96 OH         47.6330   -6.7930    7.8910 O.3     930 TYR930      0.0000
     97 HZ1        46.1196    5.4717    4.6417 H       933 LYS933      0.0000
     98 NZ         45.5450    5.4620    5.4640 N.4     933 LYS933      1.0000
     99 HZ2        44.8094    6.1358    5.3541 H       933 LYS933      0.0000
    100 HZ3        46.1062    5.7187    6.2553 H       933 LYS933      0.0000
    101 HG         43.1085   -8.5417    3.9145 H       936 SER936      0.0000
    102 OG         43.3320   -7.7720    3.3190 O.3     936 SER936      0.0000
    103 HG         46.4359  -16.3196    5.9159 H       939 SER939      0.0000
    104 OG         45.8480  -15.5290    5.7620 O.3     939 SER939      0.0000
    105 HZ1        48.1178  -19.7419   13.3290 H       940 LYS940      0.0000
    106 NZ         48.4430  -19.1590   12.5840 N.4     940 LYS940      1.0000
    107 HZ2        48.2896  -19.6201   11.7095 H       940 LYS940      0.0000
    108 HZ3        49.4207  -18.9839   12.7011 H       940 LYS940      0.0000
    109 HZ1        55.4809  -15.6500   14.3788 H       943 LYS943      0.0000
    110 NZ         54.8780  -16.3930   14.0810 N.4     943 LYS943      1.0000
    111 HZ2        55.0513  -17.2034   14.6443 H       943 LYS943      0.0000
    112 HZ3        55.0736  -16.6108   13.1224 H       943 LYS943      0.0000
    113 HZ1        47.1533   -3.4405   15.6412 H       945 LYS945      0.0000
    114 NZ         47.9660   -3.9500   15.9300 N.4     945 LYS945      1.0000
    115 HZ2        47.9244   -4.1025   16.9191 H       945 LYS945      0.0000
    116 HZ3        48.7853   -3.4153   15.7140 H       945 LYS945      0.0000
    117 HZ1        39.1425    3.0386   16.9531 H       949 LYS949      0.0000
    118 NZ         39.0210    3.4460   16.0470 N.4     949 LYS949      1.0000
    119 HZ2        39.9097    3.7474   15.6980 H       949 LYS949      0.0000
    120 HZ3        38.4077    4.2335   16.1170 H       949 LYS949      0.0000
    121 HZ1        39.4818   11.9313    3.5363 H       953 LYS953      0.0000
    122 NZ         39.3720   11.7790    4.5190 N.4     953 LYS953      1.0000
    123 HZ2        39.5650   12.6282    5.0109 H       953 LYS953      0.0000
    124 HZ3        40.0087   11.0682    4.8186 H       953 LYS953      0.0000
    125 HG1        33.0933   12.3791    9.9199 H       954 THR954      0.0000
    126 OG1        32.8150   11.4890    9.5420 O.3     954 THR954      0.0000
    127 HG1        37.1604    7.7762   16.3833 H       955 THR955      0.0000
    128 OG1        36.2440    7.7040   15.9730 O.3     955 THR955      0.0000
    129 HG         36.1929   15.0622   24.6816 H       959 SER959      0.0000
    130 OG         36.7030   14.9300   23.8350 O.3     959 SER959      0.0000
    131 HG         35.5011    2.1203   32.8922 H       963 SER963      0.0000
    132 OG         34.6240    2.2350   32.4300 O.3     963 SER963      0.0000
    133 HG1        30.6779   15.0752   19.5772 H       973 THR973      0.0000
    134 OG1        29.9090   15.5570   19.1430 O.3     973 THR973      0.0000
    135 HG         38.9614   14.3194   10.3080 H       976 SER976      0.0000
    136 OG         38.2040   14.7390    9.8050 O.3     976 SER976      0.0000
    137 HG         39.9364   10.2116   10.2315 H       977 SER977      0.0000
    138 OG         39.0840    9.7360   10.4400 O.3     977 SER977      0.0000
    139 HG         39.0165    2.4077    0.5291 H       983 SER983      0.0000
    140 OG         38.3060    1.7120    0.4210 O.3     983 SER983      0.0000
    141 HH         27.3557    9.0940    7.2032 H       986 TYR986      0.0000
    142 OH         28.1490    9.4530    7.6940 O.3     986 TYR986      0.0000
    143 HH         34.7230    2.6880   17.2640 H       989 TYR989      0.0000
    144 OH         35.5890    2.1920   17.2870 O.3     989 TYR989      0.0000
    145 HH         39.1408   -8.9997   10.0973 H       992 TYR992      0.0000
    146 OH         38.5210   -9.6720    9.6920 O.3     992 TYR992      0.0000
    147 HZ1        29.4754   -5.4912   30.4414 H      1000 LYS1000     0.0000
    148 NZ         28.7270   -4.9670   30.8480 N.4    1000 LYS1000     1.0000
    149 HZ2        28.9927   -4.0055   30.9206 H      1000 LYS1000     0.0000
    150 HZ3        28.5232   -5.3272   31.7576 H      1000 LYS1000     0.0000
    151 HH         23.9176   -2.2185   31.6750 H      1001 TYR1001     0.0000
    152 OH         24.3090   -1.7060   30.9120 O.3    1001 TYR1001     0.0000
    153 HZ1         7.2951   -2.4537   22.6984 H      1004 LYS1004     0.0000
    154 NZ          7.6740   -2.8190   21.8480 N.4    1004 LYS1004     1.0000
    155 HZ2         6.9609   -2.8419   21.1478 H      1004 LYS1004     0.0000
    156 HZ3         8.0154   -3.7456   22.0062 H      1004 LYS1004     0.0000
    157 HZ1         6.5321    5.8906   16.0976 H      1006 LYS1006     0.0000
    158 NZ          6.7120    6.1960   15.1620 N.4    1006 LYS1006     1.0000
    159 HZ2         7.2134    7.0616   15.1850 H      1006 LYS1006     0.0000
    160 HZ3         5.8441    6.3270   14.6819 H      1006 LYS1006     0.0000
    161 HZ1        17.0559   12.7557    9.8944 H      1010 LYS1010     0.0000
    162 NZ         16.4710   13.2710    9.2670 N.4    1010 LYS1010     1.0000
    163 HZ2        16.8934   13.2937    8.3608 H      1010 LYS1010     0.0000
    164 HZ3        16.3614   14.2061    9.6067 H      1010 LYS1010     0.0000
@<TRIPOS>BOND
     1    2    7 1
     2    2    8 1
     3    2    1 1
     4    4    3 1
     5    4    5 1
     6    4    6 1
     7   10    9 1
     8   12   11 1
     9   12   13 1
    10   12   14 1
    11   16   18 1
    12   16   15 1
    13   16   17 1
    14   20   19 1
    15   20   21 1
    16   20   22 1
    17   24   23 1
    18   26   28 1
    19   26   25 1
    20   26   27 1
    21   30   31 1
    22   30   32 1
    23   30   29 1
    24   34   33 1
    25   36   35 1
    26   36   37 1
    27   36   38 1
    28   40   39 1
    29   42   43 1
    30   42   44 1
    31   42   41 1
    32   46   45 1
    33   46   47 1
    34   46   48 1
    35   50   49 1
    36   52   51 1
    37   54   53 1
    38   56   55 1
    39   56   58 1
    40   56   57 1
    41   60   59 1
    42   60   61 1
    43   60   62 1
    44   64   63 1
    45   64   65 1
    46   64   66 1
    47   68   67 1
    48   70   69 1
    49   72   71 1
    50   74   73 1
    51   76   75 1
    52   78   77 1
    53   80   79 1
    54   80   81 1
    55   80   82 1
    56   84   83 1
    57   84   85 1
    58   84   86 1
    59   88   87 1
    60   90   89 1
    61   92   91 1
    62   94   93 1
    63   96   95 1
    64   98   97 1
    65   98   99 1
    66   98  100 1
    67  102  101 1
    68  104  103 1
    69  106  105 1
    70  106  107 1
    71  106  108 1
    72  110  112 1
    73  110  109 1
    74  110  111 1
    75  114  116 1
    76  114  113 1
    77  114  115 1
    78  118  117 1
    79  118  119 1
    80  118  120 1
    81  122  121 1
    82  122  123 1
    83  122  124 1
    84  126  125 1
    85  128  127 1
    86  130  129 1
    87  132  131 1
    88  134  133 1
    89  136  135 1
    90  138  137 1
    91  140  139 1
    92  142  141 1
    93  144  143 1
    94  146  145 1
    95  148  147 1
    96  148  149 1
    97  148  150 1
    98  152  151 1
    99  154  153 1
   100  154  156 1
   101  154  155 1
   102  158  157 1
   103  158  159 1
   104  158  160 1
   105  162  164 1
   106  162  161 1
   107  162  163 1
@<TRIPOS>SUBSTRUCTURE
764 LYS764 1
765 SER765 9
766 LYS766 11
769 LYS769 15
776 LYS776 19
794 TYR794 23
796 LYS796 25
798 LYS798 29
799 THR799 33
802 LYS802 35
808 SER808 39
816 LYS816 41
819 LYS819 45
824 THR824 49
825 THR825 51
829 TYR829 53
838 LYS838 55
849 LYS849 59
852 LYS852 63
864 SER864 67
866 THR866 69
867 THR867 71
874 SER874 73
887 THR887 75
889 TYR889 77
893 LYS893 79
903 LYS903 83
904 SER904 87
907 TYR907 89
910 THR910 91
911 SER911 93
930 TYR930 95
933 LYS933 97
936 SER936 101
939 SER939 103
940 LYS940 105
943 LYS943 109
945 LYS945 113
949 LYS949 117
953 LYS953 121
954 THR954 125
955 THR955 127
959 SER959 129
963 SER963 131
973 THR973 133
976 SER976 135
977 SER977 137
983 SER983 139
986 TYR986 141
989 TYR989 143
992 TYR992 145
1000 LYS1000 147
1001 TYR1001 151
1004 LYS1004 153
1006 LYS1006 157
1010 LYS1010 161
@<TRIPOS>COMMENT
