@<TRIPOS>MOLECULE
olaparib_entry_00001_conf_40
55 59 1
SMALL
NO_CHARGES


@<TRIPOS>ATOM
      1 N          24.6171  -15.9475    8.6771 N.am      1 UNL1        0.0000
      2 N          24.8304  -15.9218   11.2660 N.am      1 UNL1        0.0000
      3 N          22.2466  -20.7453    3.4657 N.2       1 UNL1        0.0000
      4 N          21.2646  -21.1917    2.7206 N.am      1 UNL1        0.0000
      5 C          20.9665  -20.6844    1.5162 C.2       1 UNL1        0.0000
      6 C          21.7258  -19.6402    1.0296 C.ar      1 UNL1        0.0000
      7 C          21.4461  -19.0619   -0.2092 C.ar      1 UNL1        0.0000
      8 C          22.2047  -18.0057   -0.6657 C.ar      1 UNL1        0.0000
      9 C          23.2245  -17.5684    0.1528 C.ar      1 UNL1        0.0000
     10 C          23.5130  -18.1325    1.3842 C.ar      1 UNL1        0.0000
     11 C          22.7580  -19.1789    1.8256 C.ar      1 UNL1        0.0000
     12 C          23.0454  -19.7135    3.0528 C.2       1 UNL1        0.0000
     13 C          24.1412  -19.3577    3.9448 C.3       1 UNL1        0.0000
     14 C          23.6317  -19.0842    5.3171 C.ar      1 UNL1        0.0000
     15 C          23.8729  -17.7876    5.8054 C.ar      1 UNL1        0.0000
     16 C          23.4496  -17.4426    7.0665 C.ar      1 UNL1        0.0000
     17 C          23.6915  -16.0870    7.6100 C.2       1 UNL1        0.0000
     18 C          24.8803  -14.6558    9.2243 C.3       1 UNL1        0.0000
     19 C          25.3362  -14.7145   10.6664 C.3       1 UNL1        0.0000
     20 C          25.2930  -17.1919   10.6960 C.3       1 UNL1        0.0000
     21 C          25.2797  -17.1322    9.1902 C.3       1 UNL1        0.0000
     22 C          23.9379  -15.9090   12.3418 C.2       1 UNL1        0.0000
     23 C          23.3768  -14.7303   13.0074 C.3       1 UNL1        0.0000
     24 C          24.3748  -13.7544   13.5884 C.3       1 UNL1        0.0000
     25 C          23.5147  -14.5411   14.4753 C.3       1 UNL1        0.0000
     26 C          22.7865  -18.3090    7.9029 C.ar      1 UNL1        0.0000
     27 C          22.5510  -19.5779    7.4239 C.ar      1 UNL1        0.0000
     28 C          22.9824  -19.9336    6.1380 C.ar      1 UNL1        0.0000
     29 O          20.0299  -21.0997    0.7867 O.2       1 UNL1        0.0000
     30 O          23.5561  -17.0401   12.8110 O.2       1 UNL1        0.0000
     31 O          23.1097  -15.0732    7.1599 O.2       1 UNL1        0.0000
     32 F          22.3868  -17.9184    9.1481 F         1 UNL1        0.0000
     33 H          20.6707  -19.4258   -0.7847 H         1 UNL1        0.0000
     34 H          22.0175  -17.5623   -1.5777 H         1 UNL1        0.0000
     35 H          23.8036  -16.7779   -0.1695 H         1 UNL1        0.0000
     36 H          24.2880  -17.7672    1.9598 H         1 UNL1        0.0000
     37 H          24.6306  -18.4830    3.5701 H         1 UNL1        0.0000
     38 H          24.8290  -20.1763    3.9904 H         1 UNL1        0.0000
     39 H          24.3666  -17.0974    5.2185 H         1 UNL1        0.0000
     40 H          23.9845  -14.0725    9.1713 H         1 UNL1        0.0000
     41 H          25.6720  -14.2177    8.6522 H         1 UNL1        0.0000
     42 H          24.9608  -13.8647   11.1967 H         1 UNL1        0.0000
     43 H          26.4056  -14.7081   10.7090 H         1 UNL1        0.0000
     44 H          24.6478  -17.9806   11.0220 H         1 UNL1        0.0000
     45 H          26.2947  -17.3747   11.0247 H         1 UNL1        0.0000
     46 H          24.7686  -17.9957    8.8184 H         1 UNL1        0.0000
     47 H          26.2965  -17.0982    8.8614 H         1 UNL1        0.0000
     48 H          22.5446  -14.7060   12.3357 H         1 UNL1        0.0000
     49 H          24.2161  -12.7011   13.4847 H         1 UNL1        0.0000
     50 H          25.4299  -13.6039   13.4934 H         1 UNL1        0.0000
     51 H          22.7342  -14.0568   15.0241 H         1 UNL1        0.0000
     52 H          23.6948  -15.1981   15.2995 H         1 UNL1        0.0000
     53 H          22.0563  -20.2675    8.0120 H         1 UNL1        0.0000
     54 H          22.7934  -20.8916    5.8033 H         1 UNL1        0.0000
     55 H          20.7194  -21.9371    3.0627 H         1 UNL1        0.0000
@<TRIPOS>BOND
     1    1   18 1
     2    1   21 1
     3    1   17 am
     4    2   19 1
     5    2   20 1
     6    2   22 am
     7    3    4 1
     8    3   12 2
     9    4    5 am
    10    4   55 1
    11    5   29 2
    12    5    6 1
    13    6    7 ar
    14    6   11 ar
    15    7    8 ar
    16    7   33 1
    17    8   34 1
    18    8    9 ar
    19    9   10 ar
    20    9   35 1
    21   10   11 ar
    22   10   36 1
    23   11   12 1
    24   12   13 1
    25   13   37 1
    26   13   38 1
    27   13   14 1
    28   14   15 ar
    29   14   28 ar
    30   15   39 1
    31   15   16 ar
    32   16   26 ar
    33   16   17 1
    34   17   31 2
    35   18   19 1
    36   18   40 1
    37   18   41 1
    38   19   42 1
    39   19   43 1
    40   20   21 1
    41   20   45 1
    42   20   44 1
    43   21   46 1
    44   21   47 1
    45   22   30 2
    46   22   23 1
    47   23   25 1
    48   23   24 1
    49   23   48 1
    50   24   25 1
    51   24   49 1
    52   24   50 1
    53   25   51 1
    54   25   52 1
    55   26   27 ar
    56   26   32 1
    57   27   28 ar
    58   27   53 1
    59   28   54 1
@<TRIPOS>SUBSTRUCTURE
1 UNL1 1
@<TRIPOS>COMMENT
olaparib
PLANTSproteinTorsions
57
1 293.9962
19 55.4652
33 252.9456
53 26.6235
108 160.9174
228 87.4368
405 192.9778
438 188.8424
479 25.3435
492 211.1732
546 183.2067
641 264.3633
776 210.8531
836 63.3377
905 214.0953
919 217.8062
988 243.3549
1139 144.8293
1332 252.8800
1388 111.0354
1606 351.6705
1642 120.2366
1655 203.2591
1759 37.8187
1952 39.6131
1986 96.6772
2049 243.7778
2207 157.1051
2220 133.5361
2267 140.4333
2305 273.6340
2319 280.7815
2601 211.8129
2653 264.5180
2695 199.3831
2741 326.4670
2763 53.5612
2818 283.7030
2847 303.9559
2913 42.8814
2968 226.0209
2982 281.0144
2996 250.8097
3051 201.1036
3105 108.6750
3240 131.8713
3280 237.3343
3290 147.2689
3365 243.6886
3426 318.1212
3477 127.5555
3534 210.2794
3661 223.1039
3685 283.7384
3741 63.6486
3784 50.1976
3862 81.0207
PLANTSmolcadARTstart hb
PLANTSmolcadARTstart HB
LINES
PLANTSmolcadARTstart HBCH
LINES
PLANTSmolcadARTstart HB-CHO
LINES
PLANTSmolcadARTend
PLANTSmolcadARTstart HB_WATER
LINES
PLANTSmolcadARTend

PLANTSmolcadARTend

