@<TRIPOS>MOLECULE
olaparib_entry_00001_conf_80
55 59 1
SMALL
NO_CHARGES


@<TRIPOS>ATOM
      1 N          30.2914  -22.7340   10.0714 N.am      1 UNL1        0.0000
      2 N          32.2080  -21.0221    9.6919 N.am      1 UNL1        0.0000
      3 N          24.2594  -19.6199   10.1218 N.2       1 UNL1        0.0000
      4 N          23.0207  -19.3366    9.7989 N.am      1 UNL1        0.0000
      5 C          22.4242  -18.1794   10.1180 C.2       1 UNL1        0.0000
      6 C          23.1424  -17.2345   10.8214 C.ar      1 UNL1        0.0000
      7 C          22.5635  -16.0215   11.1965 C.ar      1 UNL1        0.0000
      8 C          23.2934  -15.1012   11.9175 C.ar      1 UNL1        0.0000
      9 C          24.5904  -15.4435   12.2367 C.ar      1 UNL1        0.0000
     10 C          25.1774  -16.6435   11.8715 C.ar      1 UNL1        0.0000
     11 C          24.4473  -17.5461   11.1559 C.ar      1 UNL1        0.0000
     12 C          25.0370  -18.7347   10.8182 C.2       1 UNL1        0.0000
     13 C          26.4150  -19.1445   11.0555 C.3       1 UNL1        0.0000
     14 C          26.5255  -20.6294   11.0650 C.ar      1 UNL1        0.0000
     15 C          27.6432  -21.1578   10.3948 C.ar      1 UNL1        0.0000
     16 C          27.8268  -22.5187   10.3399 C.ar      1 UNL1        0.0000
     17 C          28.9913  -23.1054    9.6391 C.2       1 UNL1        0.0000
     18 C          31.4386  -23.2826    9.4234 C.3       1 UNL1        0.0000
     19 C          32.6509  -22.3814    9.5208 C.3       1 UNL1        0.0000
     20 C          31.4430  -20.7196   10.9064 C.3       1 UNL1        0.0000
     21 C          30.4236  -21.7974   11.1719 C.3       1 UNL1        0.0000
     22 C          32.4817  -20.0199    8.7565 C.2       1 UNL1        0.0000
     23 C          33.2158  -20.1668    7.4969 C.3       1 UNL1        0.0000
     24 C          34.7146  -19.9822    7.5731 C.3       1 UNL1        0.0000
     25 C          33.8890  -19.0033    6.8623 C.3       1 UNL1        0.0000
     26 C          26.9631  -23.4201   10.9155 C.ar      1 UNL1        0.0000
     27 C          25.8693  -22.9018   11.5712 C.ar      1 UNL1        0.0000
     28 C          25.6784  -21.5137   11.6283 C.ar      1 UNL1        0.0000
     29 O          21.2382  -17.8891    9.8162 O.2       1 UNL1        0.0000
     30 O          32.0520  -18.8380    9.0087 O.2       1 UNL1        0.0000
     31 O          28.8626  -23.9102    8.6880 O.2       1 UNL1        0.0000
     32 F          27.1891  -24.7635   10.8326 F         1 UNL1        0.0000
     33 H          21.5878  -15.8126   10.9332 H         1 UNL1        0.0000
     34 H          22.8877  -14.1980   12.2055 H         1 UNL1        0.0000
     35 H          25.1538  -14.7693   12.7772 H         1 UNL1        0.0000
     36 H          26.1530  -16.8521   12.1362 H         1 UNL1        0.0000
     37 H          26.7387  -18.7612   12.0006 H         1 UNL1        0.0000
     38 H          27.0301  -18.7590   10.2691 H         1 UNL1        0.0000
     39 H          28.3234  -20.5255    9.9452 H         1 UNL1        0.0000
     40 H          31.2075  -23.4359    8.3897 H         1 UNL1        0.0000
     41 H          31.6789  -24.2023    9.9157 H         1 UNL1        0.0000
     42 H          33.2305  -22.4610    8.6253 H         1 UNL1        0.0000
     43 H          33.2544  -22.6744   10.3546 H         1 UNL1        0.0000
     44 H          30.9402  -19.7834   10.7826 H         1 UNL1        0.0000
     45 H          32.1163  -20.6702   11.7367 H         1 UNL1        0.0000
     46 H          29.4735  -21.3350   11.3411 H         1 UNL1        0.0000
     47 H          30.7557  -22.3501   12.0248 H         1 UNL1        0.0000
     48 H          32.5258  -20.9032    7.1421 H         1 UNL1        0.0000
     49 H          35.3627  -20.6343    7.0254 H         1 UNL1        0.0000
     50 H          35.4323  -19.9357    8.3654 H         1 UNL1        0.0000
     51 H          33.9436  -18.9381    5.7956 H         1 UNL1        0.0000
     52 H          33.7668  -17.9430    6.9269 H         1 UNL1        0.0000
     53 H          25.1897  -23.5356   12.0213 H         1 UNL1        0.0000
     54 H          24.8498  -21.1513   12.1260 H         1 UNL1        0.0000
     55 H          22.5033  -20.0072    9.2965 H         1 UNL1        0.0000
@<TRIPOS>BOND
     1    1   18 1
     2    1   21 1
     3    1   17 am
     4    2   19 1
     5    2   20 1
     6    2   22 am
     7    3    4 1
     8    3   12 2
     9    4    5 am
    10    4   55 1
    11    5   29 2
    12    5    6 1
    13    6    7 ar
    14    6   11 ar
    15    7    8 ar
    16    7   33 1
    17    8   34 1
    18    8    9 ar
    19    9   10 ar
    20    9   35 1
    21   10   11 ar
    22   10   36 1
    23   11   12 1
    24   12   13 1
    25   13   37 1
    26   13   38 1
    27   13   14 1
    28   14   15 ar
    29   14   28 ar
    30   15   39 1
    31   15   16 ar
    32   16   26 ar
    33   16   17 1
    34   17   31 2
    35   18   19 1
    36   18   40 1
    37   18   41 1
    38   19   42 1
    39   19   43 1
    40   20   21 1
    41   20   45 1
    42   20   44 1
    43   21   46 1
    44   21   47 1
    45   22   30 2
    46   22   23 1
    47   23   25 1
    48   23   24 1
    49   23   48 1
    50   24   25 1
    51   24   49 1
    52   24   50 1
    53   25   51 1
    54   25   52 1
    55   26   27 ar
    56   26   32 1
    57   27   28 ar
    58   27   53 1
    59   28   54 1
@<TRIPOS>SUBSTRUCTURE
1 UNL1 1
@<TRIPOS>COMMENT
olaparib
PLANTSproteinTorsions
57
1 16.0106
19 49.2941
33 27.9292
53 319.4104
108 262.5896
228 9.9957
405 93.5916
438 155.6054
479 276.0170
492 135.3685
546 113.6328
641 38.8175
776 116.3855
836 217.7463
905 110.3196
919 121.7563
988 93.5700
1139 187.2234
1332 87.1856
1388 190.0718
1606 279.1980
1642 176.0709
1655 240.0806
1759 267.4540
1952 157.9926
1986 146.0482
2049 210.0432
2207 192.2572
2220 227.9339
2267 93.9269
2305 91.9006
2319 162.2123
2601 222.6385
2653 90.7547
2695 275.6229
2741 20.3227
2763 17.2427
2818 285.4307
2847 227.6959
2913 47.7909
2968 92.8156
2982 198.8149
2996 184.8483
3051 227.8274
3105 92.3022
3240 325.9691
3280 90.1450
3290 345.8851
3365 141.4668
3426 196.1061
3477 236.7029
3534 164.1288
3661 201.9054
3685 228.3174
3741 248.2567
3784 100.1505
3862 91.0615
PLANTSmolcadARTstart hb
PLANTSmolcadARTstart HB
LINES
PLANTSmolcadARTstart HBCH
LINES
PLANTSmolcadARTstart HB-CHO
LINES
PLANTSmolcadARTend
PLANTSmolcadARTstart HB_WATER
LINES
PLANTSmolcadARTend

PLANTSmolcadARTend

