@<TRIPOS>MOLECULE
olaparib_entry_00001_conf_22
55 59 1
SMALL
NO_CHARGES


@<TRIPOS>ATOM
      1 N          23.8205  -12.2074   10.1690 N.am      1 UNL1        0.0000
      2 N          23.3806  -14.0499    8.3912 N.am      1 UNL1        0.0000
      3 N          26.3366   -6.9004    8.8673 N.2       1 UNL1        0.0000
      4 N          27.2935   -6.6589    8.0045 N.am      1 UNL1        0.0000
      5 C          28.2107   -5.6961    8.1743 C.2       1 UNL1        0.0000
      6 C          28.1513   -4.9161    9.3108 C.ar      1 UNL1        0.0000
      7 C          29.0689   -3.8875    9.5277 C.ar      1 UNL1        0.0000
      8 C          28.9773   -3.1071   10.6600 C.ar      1 UNL1        0.0000
      9 C          27.9535   -3.3960   11.5373 C.ar      1 UNL1        0.0000
     10 C          27.0359   -4.4132   11.3347 C.ar      1 UNL1        0.0000
     11 C          27.1369   -5.1812   10.2123 C.ar      1 UNL1        0.0000
     12 C          26.2112   -6.1711   10.0187 C.2       1 UNL1        0.0000
     13 C          25.1462   -6.5840   10.9234 C.3       1 UNL1        0.0000
     14 C          24.2257   -7.5394   10.2472 C.ar      1 UNL1        0.0000
     15 C          24.1419   -8.8159   10.8313 C.ar      1 UNL1        0.0000
     16 C          23.3263   -9.7708   10.2730 C.ar      1 UNL1        0.0000
     17 C          23.2193  -11.1245   10.8624 C.2       1 UNL1        0.0000
     18 C          23.7426  -13.5266   10.7083 C.3       1 UNL1        0.0000
     19 C          23.8312  -14.5988    9.6437 C.3       1 UNL1        0.0000
     20 C          24.1555  -12.9347    7.8365 C.3       1 UNL1        0.0000
     21 C          24.5062  -11.9447    8.9174 C.3       1 UNL1        0.0000
     22 C          22.2583  -14.5400    7.7171 C.2       1 UNL1        0.0000
     23 C          21.3793  -15.6310    8.1463 C.3       1 UNL1        0.0000
     24 C          19.9073  -15.4583    7.8470 C.3       1 UNL1        0.0000
     25 C          20.3836  -15.4307    9.2318 C.3       1 UNL1        0.0000
     26 C          22.5659   -9.5498    9.1492 C.ar      1 UNL1        0.0000
     27 C          22.6487   -8.2999    8.5783 C.ar      1 UNL1        0.0000
     28 C          23.4808   -7.3236    9.1447 C.ar      1 UNL1        0.0000
     29 O          29.1363   -5.4503    7.3591 O.2       1 UNL1        0.0000
     30 O          21.9472  -13.9887    6.6016 O.2       1 UNL1        0.0000
     31 O          22.6212  -11.3377   11.9420 O.2       1 UNL1        0.0000
     32 F          21.7714  -10.5317    8.6322 F         1 UNL1        0.0000
     33 H          29.8176   -3.7110    8.8397 H         1 UNL1        0.0000
     34 H          29.6438   -2.3417   10.8424 H         1 UNL1        0.0000
     35 H          27.8662   -2.8229   12.3907 H         1 UNL1        0.0000
     36 H          26.2866   -4.5884   12.0227 H         1 UNL1        0.0000
     37 H          24.5933   -5.7219   11.2333 H         1 UNL1        0.0000
     38 H          25.5825   -7.0690   11.7718 H         1 UNL1        0.0000
     39 H          24.6916   -9.0352   11.6765 H         1 UNL1        0.0000
     40 H          22.8105  -13.6313   11.2237 H         1 UNL1        0.0000
     41 H          24.5759  -13.6558   11.3678 H         1 UNL1        0.0000
     42 H          23.2128  -15.4279    9.9165 H         1 UNL1        0.0000
     43 H          24.8433  -14.9340    9.5502 H         1 UNL1        0.0000
     44 H          23.5761  -12.4424    7.0839 H         1 UNL1        0.0000
     45 H          25.0606  -13.3182    7.4138 H         1 UNL1        0.0000
     46 H          24.2389  -10.9641    8.5824 H         1 UNL1        0.0000
     47 H          25.5557  -12.0305    9.1029 H         1 UNL1        0.0000
     48 H          22.1427  -16.3595    7.9712 H         1 UNL1        0.0000
     49 H          19.3316  -16.2891    7.4954 H         1 UNL1        0.0000
     50 H          19.3323  -14.7998    7.2300 H         1 UNL1        0.0000
     51 H          20.1462  -16.2397    9.8907 H         1 UNL1        0.0000
     52 H          20.2889  -14.7368   10.0398 H         1 UNL1        0.0000
     53 H          22.0976   -8.0816    7.7328 H         1 UNL1        0.0000
     54 H          23.5248   -6.3947    8.6967 H         1 UNL1        0.0000
     55 H          27.3411   -7.2126    7.1915 H         1 UNL1        0.0000
@<TRIPOS>BOND
     1    1   18 1
     2    1   21 1
     3    1   17 am
     4    2   19 1
     5    2   20 1
     6    2   22 am
     7    3    4 1
     8    3   12 2
     9    4    5 am
    10    4   55 1
    11    5   29 2
    12    5    6 1
    13    6    7 ar
    14    6   11 ar
    15    7    8 ar
    16    7   33 1
    17    8   34 1
    18    8    9 ar
    19    9   10 ar
    20    9   35 1
    21   10   11 ar
    22   10   36 1
    23   11   12 1
    24   12   13 1
    25   13   37 1
    26   13   38 1
    27   13   14 1
    28   14   15 ar
    29   14   28 ar
    30   15   39 1
    31   15   16 ar
    32   16   26 ar
    33   16   17 1
    34   17   31 2
    35   18   19 1
    36   18   40 1
    37   18   41 1
    38   19   42 1
    39   19   43 1
    40   20   21 1
    41   20   45 1
    42   20   44 1
    43   21   46 1
    44   21   47 1
    45   22   30 2
    46   22   23 1
    47   23   25 1
    48   23   24 1
    49   23   48 1
    50   24   25 1
    51   24   49 1
    52   24   50 1
    53   25   51 1
    54   25   52 1
    55   26   27 ar
    56   26   32 1
    57   27   28 ar
    58   27   53 1
    59   28   54 1
@<TRIPOS>SUBSTRUCTURE
1 UNL1 1
@<TRIPOS>COMMENT
olaparib
PLANTSproteinTorsions
57
1 318.5144
19 320.3326
33 306.8247
53 26.2662
108 130.6515
228 68.8534
405 213.6244
438 268.1277
479 275.2333
492 27.8248
546 256.9400
641 150.1831
776 165.1239
836 236.4466
905 240.6156
919 118.9872
988 337.1601
1139 141.5370
1332 4.0229
1388 147.4534
1606 325.0740
1642 139.8210
1655 203.8155
1759 240.9117
1952 40.0971
1986 86.2574
2049 211.3117
2207 135.1824
2220 223.6649
2267 66.4743
2305 99.6170
2319 346.4935
2601 205.3973
2653 48.5257
2695 142.4900
2741 110.8305
2763 197.8243
2818 301.4241
2847 289.9361
2913 333.9077
2968 209.7448
2982 181.5553
2996 249.0435
3051 194.8869
3105 130.6651
3240 133.9798
3280 197.2475
3290 185.3451
3365 249.6068
3426 274.5408
3477 206.6590
3534 67.8965
3661 236.5723
3685 202.8499
3741 166.0343
3784 65.5682
3862 190.4025
PLANTSmolcadARTstart hb
PLANTSmolcadARTstart HB
LINES
PLANTSmolcadARTstart HBCH
LINES
PLANTSmolcadARTstart HB-CHO
LINES
PLANTSmolcadARTend
PLANTSmolcadARTstart HB_WATER
LINES
PLANTSmolcadARTend

PLANTSmolcadARTend

