@<TRIPOS>MOLECULE
olaparib_entry_00001_conf_13
55 59 1
SMALL
NO_CHARGES


@<TRIPOS>ATOM
      1 N          28.4648  -21.7251   12.2648 N.am      1 UNL1        0.0000
      2 N          29.9495  -20.7107   14.1397 N.am      1 UNL1        0.0000
      3 N          23.7151  -16.7822    9.7883 N.2       1 UNL1        0.0000
      4 N          22.5609  -16.2286    9.5055 N.am      1 UNL1        0.0000
      5 C          21.8438  -15.5283   10.3955 C.2       1 UNL1        0.0000
      6 C          22.3378  -15.3784   11.6750 C.ar      1 UNL1        0.0000
      7 C          21.6227  -14.6763   12.6460 C.ar      1 UNL1        0.0000
      8 C          22.1258  -14.5575   13.9236 C.ar      1 UNL1        0.0000
      9 C          23.3410  -15.1583   14.1755 C.ar      1 UNL1        0.0000
     10 C          24.0612  -15.8583   13.2220 C.ar      1 UNL1        0.0000
     11 C          23.5558  -15.9676   11.9600 C.ar      1 UNL1        0.0000
     12 C          24.2720  -16.6779   11.0342 C.2       1 UNL1        0.0000
     13 C          25.5878  -17.2819   11.1983 C.3       1 UNL1        0.0000
     14 C          25.5655  -18.7090   10.7737 C.ar      1 UNL1        0.0000
     15 C          26.7417  -19.4357   11.0308 C.ar      1 UNL1        0.0000
     16 C          26.8214  -20.7583   10.6658 C.ar      1 UNL1        0.0000
     17 C          28.0469  -21.5490   10.9197 C.2       1 UNL1        0.0000
     18 C          29.6387  -22.4853   12.5497 C.3       1 UNL1        0.0000
     19 C          30.2969  -22.0777   13.8503 C.3       1 UNL1        0.0000
     20 C          28.5284  -20.4166   14.3541 C.3       1 UNL1        0.0000
     21 C          27.6811  -21.1230   13.3273 C.3       1 UNL1        0.0000
     22 C          30.9052  -19.6934   14.2166 C.2       1 UNL1        0.0000
     23 C          32.3505  -19.8248   14.0145 C.3       1 UNL1        0.0000
     24 C          33.0694  -20.7790   14.9412 C.3       1 UNL1        0.0000
     25 C          33.3144  -19.3381   15.0361 C.3       1 UNL1        0.0000
     26 C          25.7951  -21.4337   10.0489 C.ar      1 UNL1        0.0000
     27 C          24.6443  -20.7213    9.7977 C.ar      1 UNL1        0.0000
     28 C          24.5600  -19.3714   10.1679 C.ar      1 UNL1        0.0000
     29 O          20.7360  -14.9890   10.1429 O.2       1 UNL1        0.0000
     30 O          30.4931  -18.5103   14.4917 O.2       1 UNL1        0.0000
     31 O          28.7160  -22.0603    9.9926 O.2       1 UNL1        0.0000
     32 F          25.9236  -22.7482    9.7052 F         1 UNL1        0.0000
     33 H          20.7163  -14.2446   12.4072 H         1 UNL1        0.0000
     34 H          21.6160  -14.0433   14.6578 H         1 UNL1        0.0000
     35 H          23.7348  -15.0825   15.1259 H         1 UNL1        0.0000
     36 H          24.9672  -16.2906   13.4619 H         1 UNL1        0.0000
     37 H          25.8756  -17.2251   12.2273 H         1 UNL1        0.0000
     38 H          26.2893  -16.7525   10.5877 H         1 UNL1        0.0000
     39 H          27.5427  -18.9772   11.4920 H         1 UNL1        0.0000
     40 H          30.3389  -22.3456   11.7525 H         1 UNL1        0.0000
     41 H          29.3450  -23.5106   12.6431 H         1 UNL1        0.0000
     42 H          31.3589  -22.1675   13.7591 H         1 UNL1        0.0000
     43 H          29.9595  -22.7137   14.6423 H         1 UNL1        0.0000
     44 H          28.3706  -19.3615   14.2741 H         1 UNL1        0.0000
     45 H          28.2469  -20.7593   15.3279 H         1 UNL1        0.0000
     46 H          27.0079  -20.4134   12.8932 H         1 UNL1        0.0000
     47 H          27.1609  -21.9116   13.8281 H         1 UNL1        0.0000
     48 H          32.2509  -19.6685   12.9609 H         1 UNL1        0.0000
     49 H          33.8295  -21.4272   14.5574 H         1 UNL1        0.0000
     50 H          32.7650  -21.5428   15.6260 H         1 UNL1        0.0000
     51 H          34.2583  -18.9392   14.7283 H         1 UNL1        0.0000
     52 H          33.2642  -18.6234   15.8297 H         1 UNL1        0.0000
     53 H          23.8432  -21.1815    9.3367 H         1 UNL1        0.0000
     54 H          23.6858  -18.8602    9.9677 H         1 UNL1        0.0000
     55 H          22.2035  -16.3319    8.5937 H         1 UNL1        0.0000
@<TRIPOS>BOND
     1    1   18 1
     2    1   21 1
     3    1   17 am
     4    2   19 1
     5    2   20 1
     6    2   22 am
     7    3    4 1
     8    3   12 2
     9    4    5 am
    10    4   55 1
    11    5   29 2
    12    5    6 1
    13    6    7 ar
    14    6   11 ar
    15    7    8 ar
    16    7   33 1
    17    8   34 1
    18    8    9 ar
    19    9   10 ar
    20    9   35 1
    21   10   11 ar
    22   10   36 1
    23   11   12 1
    24   12   13 1
    25   13   37 1
    26   13   38 1
    27   13   14 1
    28   14   15 ar
    29   14   28 ar
    30   15   39 1
    31   15   16 ar
    32   16   26 ar
    33   16   17 1
    34   17   31 2
    35   18   19 1
    36   18   40 1
    37   18   41 1
    38   19   42 1
    39   19   43 1
    40   20   21 1
    41   20   45 1
    42   20   44 1
    43   21   46 1
    44   21   47 1
    45   22   30 2
    46   22   23 1
    47   23   25 1
    48   23   24 1
    49   23   48 1
    50   24   25 1
    51   24   49 1
    52   24   50 1
    53   25   51 1
    54   25   52 1
    55   26   27 ar
    56   26   32 1
    57   27   28 ar
    58   27   53 1
    59   28   54 1
@<TRIPOS>SUBSTRUCTURE
1 UNL1 1
@<TRIPOS>COMMENT
olaparib
PLANTSproteinTorsions
57
1 32.1734
19 195.7556
33 26.5811
53 129.9000
108 17.7111
228 97.5040
405 30.5436
438 63.9470
479 62.6729
492 40.3376
546 175.8341
641 354.1613
776 47.3473
836 75.6579
905 53.4859
919 2.1337
988 25.8943
1139 142.2527
1332 114.4235
1388 103.6631
1606 242.4558
1642 346.1866
1655 38.6102
1759 216.0430
1952 227.9222
1986 28.5625
2049 86.3268
2207 228.8031
2220 208.1346
2267 115.7598
2305 309.9131
2319 135.4447
2601 158.0346
2653 125.4063
2695 330.8749
2741 7.5153
2763 19.1044
2818 129.5918
2847 249.7679
2913 227.6453
2968 157.4001
2982 158.0620
2996 226.3047
3051 139.6334
3105 227.4034
3240 88.6628
3280 232.6182
3290 153.0000
3365 174.5960
3426 269.0193
3477 268.4970
3534 143.4167
3661 46.4705
3685 262.2307
3741 262.6227
3784 258.8295
3862 140.5980
PLANTSmolcadARTstart hb
PLANTSmolcadARTstart HB
LINES
30.4931 -18.5103 14.4917 29.708 -17.145 13.691 0 255 0 5
PLANTSmolcadARTstart HBCH
LINES
PLANTSmolcadARTstart HB-CHO
LINES
PLANTSmolcadARTend
PLANTSmolcadARTstart HB_WATER
LINES
PLANTSmolcadARTend

PLANTSmolcadARTend

