@<TRIPOS>MOLECULE
olaparib_entry_00001_conf_93
55 59 1
SMALL
NO_CHARGES


@<TRIPOS>ATOM
      1 N          22.1377  -13.8513    8.5459 N.am      1 UNL1        0.0000
      2 N          21.8756  -15.1578    6.3159 N.am      1 UNL1        0.0000
      3 N          23.7621  -18.0182   10.0305 N.2       1 UNL1        0.0000
      4 N          23.0425  -18.9488    9.4519 N.am      1 UNL1        0.0000
      5 C          23.4263  -20.2306    9.3706 C.2       1 UNL1        0.0000
      6 C          24.6378  -20.5966    9.9202 C.ar      1 UNL1        0.0000
      7 C          25.0945  -21.9131    9.8460 C.ar      1 UNL1        0.0000
      8 C          26.3177  -22.2514   10.3834 C.ar      1 UNL1        0.0000
      9 C          27.0405  -21.2395   10.9790 C.ar      1 UNL1        0.0000
     10 C          26.5998  -19.9291   11.0595 C.ar      1 UNL1        0.0000
     11 C          25.3869  -19.6053   10.5269 C.ar      1 UNL1        0.0000
     12 C          24.9741  -18.3019   10.5995 C.2       1 UNL1        0.0000
     13 C          25.6416  -17.1921   11.2672 C.3       1 UNL1        0.0000
     14 C          24.6761  -16.0945   11.5510 C.ar      1 UNL1        0.0000
     15 C          24.3392  -15.2850   10.4515 C.ar      1 UNL1        0.0000
     16 C          23.4631  -14.2390   10.6160 C.ar      1 UNL1        0.0000
     17 C          23.0914  -13.3669    9.4790 C.2       1 UNL1        0.0000
     18 C          21.7505  -13.0374    7.4392 C.3       1 UNL1        0.0000
     19 C          21.2753  -13.8506    6.2544 C.3       1 UNL1        0.0000
     20 C          21.5386  -15.9907    7.4756 C.3       1 UNL1        0.0000
     21 C          21.5740  -15.1741    8.7417 C.3       1 UNL1        0.0000
     22 C          22.7437  -15.6327    5.3284 C.2       1 UNL1        0.0000
     23 C          23.1852  -14.9202    4.1265 C.3       1 UNL1        0.0000
     24 C          22.2253  -14.9246    2.9582 C.3       1 UNL1        0.0000
     25 C          23.4926  -15.6536    2.8706 C.3       1 UNL1        0.0000
     26 C          22.8791  -13.9266   11.8207 C.ar      1 UNL1        0.0000
     27 C          23.2097  -14.7196   12.8962 C.ar      1 UNL1        0.0000
     28 C          24.1041  -15.7871   12.7322 C.ar      1 UNL1        0.0000
     29 O          22.7497  -21.1373    8.8212 O.2       1 UNL1        0.0000
     30 O          23.2161  -16.8165    5.4714 O.2       1 UNL1        0.0000
     31 O          23.5886  -12.2284    9.3201 O.2       1 UNL1        0.0000
     32 F          22.0150  -12.8762   11.9330 F         1 UNL1        0.0000
     33 H          24.5154  -22.6346    9.3887 H         1 UNL1        0.0000
     34 H          26.6762  -23.2174   10.3412 H         1 UNL1        0.0000
     35 H          27.9594  -21.4712   11.3864 H         1 UNL1        0.0000
     36 H          27.1800  -19.2077   11.5160 H         1 UNL1        0.0000
     37 H          26.4224  -16.8201   10.6371 H         1 UNL1        0.0000
     38 H          26.0479  -17.5407   12.1939 H         1 UNL1        0.0000
     39 H          24.7489  -15.4756    9.5239 H         1 UNL1        0.0000
     40 H          22.5915  -12.4490    7.1361 H         1 UNL1        0.0000
     41 H          20.9334  -12.4242    7.7593 H         1 UNL1        0.0000
     42 H          21.5638  -13.3646    5.3462 H         1 UNL1        0.0000
     43 H          20.2090  -13.9391    6.2796 H         1 UNL1        0.0000
     44 H          22.2455  -16.7900    7.5532 H         1 UNL1        0.0000
     45 H          20.5513  -16.3822    7.3456 H         1 UNL1        0.0000
     46 H          22.1668  -15.6926    9.4663 H         1 UNL1        0.0000
     47 H          20.5644  -15.0467    9.0698 H         1 UNL1        0.0000
     48 H          23.7196  -14.1998    4.7094 H         1 UNL1        0.0000
     49 H          22.0788  -14.0344    2.3825 H         1 UNL1        0.0000
     50 H          21.1942  -15.1784    2.8265 H         1 UNL1        0.0000
     51 H          24.2661  -15.2969    2.2229 H         1 UNL1        0.0000
     52 H          23.7582  -16.6637    2.6413 H         1 UNL1        0.0000
     53 H          22.7985  -14.5282   13.8239 H         1 UNL1        0.0000
     54 H          24.3353  -16.3659   13.5550 H         1 UNL1        0.0000
     55 H          22.1767  -18.6935    9.0582 H         1 UNL1        0.0000
@<TRIPOS>BOND
     1    1   18 1
     2    1   21 1
     3    1   17 am
     4    2   19 1
     5    2   20 1
     6    2   22 am
     7    3    4 1
     8    3   12 2
     9    4    5 am
    10    4   55 1
    11    5   29 2
    12    5    6 1
    13    6    7 ar
    14    6   11 ar
    15    7    8 ar
    16    7   33 1
    17    8   34 1
    18    8    9 ar
    19    9   10 ar
    20    9   35 1
    21   10   11 ar
    22   10   36 1
    23   11   12 1
    24   12   13 1
    25   13   37 1
    26   13   38 1
    27   13   14 1
    28   14   15 ar
    29   14   28 ar
    30   15   39 1
    31   15   16 ar
    32   16   26 ar
    33   16   17 1
    34   17   31 2
    35   18   19 1
    36   18   40 1
    37   18   41 1
    38   19   42 1
    39   19   43 1
    40   20   21 1
    41   20   45 1
    42   20   44 1
    43   21   46 1
    44   21   47 1
    45   22   30 2
    46   22   23 1
    47   23   25 1
    48   23   24 1
    49   23   48 1
    50   24   25 1
    51   24   49 1
    52   24   50 1
    53   25   51 1
    54   25   52 1
    55   26   27 ar
    56   26   32 1
    57   27   28 ar
    58   27   53 1
    59   28   54 1
@<TRIPOS>SUBSTRUCTURE
1 UNL1 1
@<TRIPOS>COMMENT
olaparib
PLANTSproteinTorsions
57
1 57.0466
19 229.0180
33 113.5963
53 33.1992
108 153.1181
228 76.2964
405 205.4128
438 166.7297
479 211.2085
492 173.5252
546 145.2668
641 141.8333
776 327.5293
836 236.3317
905 129.8118
919 344.2430
988 357.9938
1139 47.5698
1332 99.3292
1388 191.5438
1606 250.5960
1642 336.6859
1655 250.8514
1759 151.7625
1952 97.5461
1986 109.2906
2049 284.2612
2207 32.5187
2220 190.8123
2267 59.5834
2305 22.4211
2319 164.4246
2601 98.2565
2653 39.2690
2695 30.7550
2741 68.7764
2763 257.2936
2818 246.7171
2847 52.5445
2913 117.9605
2968 197.3114
2982 103.0148
2996 156.5827
3051 288.0599
3105 170.5341
3240 231.5654
3280 336.1560
3290 105.7462
3365 274.5962
3426 149.7664
3477 142.5751
3534 240.9545
3661 95.1711
3685 101.4535
3741 119.5378
3784 132.9244
3862 259.6443
PLANTSmolcadARTstart hb
PLANTSmolcadARTstart HB
LINES
PLANTSmolcadARTstart HBCH
LINES
PLANTSmolcadARTstart HB-CHO
LINES
PLANTSmolcadARTend
PLANTSmolcadARTstart HB_WATER
LINES
PLANTSmolcadARTend

PLANTSmolcadARTend

