@<TRIPOS>MOLECULE
olaparib_entry_00001_conf_100
55 59 1
SMALL
NO_CHARGES


@<TRIPOS>ATOM
      1 N          42.1040  -17.7625   12.4145 N.am      1 UNL1        0.0000
      2 N          43.2359  -20.0662   12.0147 N.am      1 UNL1        0.0000
      3 N          39.9721  -16.9860    8.0832 N.2       1 UNL1        0.0000
      4 N          40.3763  -17.7515    7.0986 N.am      1 UNL1        0.0000
      5 C          40.0597  -17.5273    5.8155 C.2       1 UNL1        0.0000
      6 C          39.2693  -16.4391    5.5075 C.ar      1 UNL1        0.0000
      7 C          38.8936  -16.1711    4.1906 C.ar      1 UNL1        0.0000
      8 C          38.0857  -15.0906    3.9088 C.ar      1 UNL1        0.0000
      9 C          37.6829  -14.3159    4.9760 C.ar      1 UNL1        0.0000
     10 C          38.0478  -14.5703    6.2875 C.ar      1 UNL1        0.0000
     11 C          38.8496  -15.6405    6.5552 C.ar      1 UNL1        0.0000
     12 C          39.1864  -15.8880    7.8590 C.2       1 UNL1        0.0000
     13 C          38.8618  -15.0850    9.0306 C.3       1 UNL1        0.0000
     14 C          38.6872  -15.9526   10.2282 C.ar      1 UNL1        0.0000
     15 C          39.8360  -16.1309   11.0195 C.ar      1 UNL1        0.0000
     16 C          39.7773  -16.9235   12.1407 C.ar      1 UNL1        0.0000
     17 C          40.9701  -17.1334   12.9919 C.2       1 UNL1        0.0000
     18 C          43.2745  -17.9777   13.2023 C.3       1 UNL1        0.0000
     19 C          44.0981  -19.1508   12.7159 C.3       1 UNL1        0.0000
     20 C          42.5806  -19.5658   10.8014 C.3       1 UNL1        0.0000
     21 C          42.0453  -18.1748   11.0244 C.3       1 UNL1        0.0000
     22 C          43.0173  -21.3760   12.4517 C.2       1 UNL1        0.0000
     23 C          43.5838  -22.0135   13.6433 C.3       1 UNL1        0.0000
     24 C          44.9881  -22.5565   13.5052 C.3       1 UNL1        0.0000
     25 C          43.8590  -23.4740   13.6732 C.3       1 UNL1        0.0000
     26 C          38.6345  -17.5699   12.5485 C.ar      1 UNL1        0.0000
     27 C          37.5107  -17.3947   11.7731 C.ar      1 UNL1        0.0000
     28 C          37.5673  -16.5875   10.6279 C.ar      1 UNL1        0.0000
     29 O          40.4387  -18.2489    4.8577 O.2       1 UNL1        0.0000
     30 O          42.2398  -22.1152   11.7487 O.2       1 UNL1        0.0000
     31 O          41.0058  -16.7756   14.1917 O.2       1 UNL1        0.0000
     32 F          38.6274  -18.3472   13.6702 F         1 UNL1        0.0000
     33 H          39.2214  -16.7822    3.4264 H         1 UNL1        0.0000
     34 H          37.7952  -14.8721    2.9439 H         1 UNL1        0.0000
     35 H          37.0767  -13.5029    4.7871 H         1 UNL1        0.0000
     36 H          37.7185  -13.9593    7.0515 H         1 UNL1        0.0000
     37 H          37.9540  -14.5482    8.8493 H         1 UNL1        0.0000
     38 H          39.6652  -14.4024    9.2149 H         1 UNL1        0.0000
     39 H          40.7206  -15.6682   10.7588 H         1 UNL1        0.0000
     40 H          42.9772  -18.1633   14.2136 H         1 UNL1        0.0000
     41 H          43.8829  -17.1004   13.1235 H         1 UNL1        0.0000
     42 H          44.5458  -19.6465   13.5515 H         1 UNL1        0.0000
     43 H          44.8702  -18.8047   12.0605 H         1 UNL1        0.0000
     44 H          41.7714  -20.2165   10.5437 H         1 UNL1        0.0000
     45 H          43.2975  -19.5360   10.0076 H         1 UNL1        0.0000
     46 H          41.0247  -18.1459   10.7038 H         1 UNL1        0.0000
     47 H          42.6585  -17.5014   10.4643 H         1 UNL1        0.0000
     48 H          43.0517  -21.3499   14.2920 H         1 UNL1        0.0000
     49 H          45.6935  -22.4245   14.2991 H         1 UNL1        0.0000
     50 H          45.7753  -22.4465   12.7888 H         1 UNL1        0.0000
     51 H          43.7481  -24.0167   14.5887 H         1 UNL1        0.0000
     52 H          43.4923  -24.3146   13.1234 H         1 UNL1        0.0000
     53 H          36.6259  -17.8578   12.0354 H         1 UNL1        0.0000
     54 H          36.7103  -16.4731   10.0639 H         1 UNL1        0.0000
     55 H          40.9410  -18.5294    7.3124 H         1 UNL1        0.0000
@<TRIPOS>BOND
     1    1   18 1
     2    1   21 1
     3    1   17 am
     4    2   19 1
     5    2   20 1
     6    2   22 am
     7    3    4 1
     8    3   12 2
     9    4    5 am
    10    4   55 1
    11    5   29 2
    12    5    6 1
    13    6    7 ar
    14    6   11 ar
    15    7    8 ar
    16    7   33 1
    17    8   34 1
    18    8    9 ar
    19    9   10 ar
    20    9   35 1
    21   10   11 ar
    22   10   36 1
    23   11   12 1
    24   12   13 1
    25   13   37 1
    26   13   38 1
    27   13   14 1
    28   14   15 ar
    29   14   28 ar
    30   15   39 1
    31   15   16 ar
    32   16   26 ar
    33   16   17 1
    34   17   31 2
    35   18   19 1
    36   18   40 1
    37   18   41 1
    38   19   42 1
    39   19   43 1
    40   20   21 1
    41   20   45 1
    42   20   44 1
    43   21   46 1
    44   21   47 1
    45   22   30 2
    46   22   23 1
    47   23   25 1
    48   23   24 1
    49   23   48 1
    50   24   25 1
    51   24   49 1
    52   24   50 1
    53   25   51 1
    54   25   52 1
    55   26   27 ar
    56   26   32 1
    57   27   28 ar
    58   27   53 1
    59   28   54 1
@<TRIPOS>SUBSTRUCTURE
1 UNL1 1
@<TRIPOS>COMMENT
olaparib
PLANTSproteinTorsions
57
1 57.5435
19 256.1652
33 112.3562
53 126.8931
108 266.5270
228 63.4737
405 33.3874
438 51.9987
479 223.4334
492 148.1583
546 59.9590
641 146.1311
776 232.4261
836 29.0564
905 40.2084
919 173.7277
988 27.9517
1139 85.6371
1332 36.2391
1388 322.3993
1606 206.2846
1642 264.8257
1655 295.4316
1759 10.5419
1952 21.9077
1986 24.6264
2049 90.9595
2207 17.2721
2220 101.5824
2267 1.5473
2305 84.7441
2319 159.3906
2601 88.7672
2653 1.6731
2695 161.9883
2741 206.8370
2763 259.9258
2818 50.7091
2847 239.6466
2913 137.3331
2968 182.4444
2982 123.7277
2996 102.8995
3051 209.1836
3105 239.2879
3240 229.1309
3280 3.5467
3290 202.2262
3365 156.8466
3426 323.1599
3477 84.9274
3534 222.2377
3661 268.9793
3685 260.6669
3741 51.4808
3784 165.5653
3862 190.3206
PLANTSmolcadARTstart hb
PLANTSmolcadARTstart HB
LINES
PLANTSmolcadARTstart HBCH
LINES
PLANTSmolcadARTstart HB-CHO
LINES
PLANTSmolcadARTend
PLANTSmolcadARTstart HB_WATER
LINES
PLANTSmolcadARTend

PLANTSmolcadARTend

