@<TRIPOS>MOLECULE
olaparib_entry_00001_conf_67
55 59 1
SMALL
NO_CHARGES


@<TRIPOS>ATOM
      1 N          41.9149  -16.2969   12.0238 N.am      1 UNL1        0.0000
      2 N          42.2376  -18.1726   13.7918 N.am      1 UNL1        0.0000
      3 N          39.3167  -16.8693    6.2470 N.2       1 UNL1        0.0000
      4 N          39.1509  -17.8034    5.3423 N.am      1 UNL1        0.0000
      5 C          38.3992  -17.6386    4.2447 C.2       1 UNL1        0.0000
      6 C          37.7649  -16.4288    4.0504 C.ar      1 UNL1        0.0000
      7 C          36.9546  -16.2109    2.9355 C.ar      1 UNL1        0.0000
      8 C          36.3136  -15.0017    2.7729 C.ar      1 UNL1        0.0000
      9 C          36.5151  -14.0507    3.7508 C.ar      1 UNL1        0.0000
     10 C          37.3159  -14.2534    4.8623 C.ar      1 UNL1        0.0000
     11 C          37.9478  -15.4526    5.0124 C.ar      1 UNL1        0.0000
     12 C          38.7217  -15.6427    6.1257 C.2       1 UNL1        0.0000
     13 C          39.0400  -14.6728    7.1654 C.3       1 UNL1        0.0000
     14 C          38.9325  -15.2959    8.5135 C.ar      1 UNL1        0.0000
     15 C          39.9772  -14.9941    9.4052 C.ar      1 UNL1        0.0000
     16 C          39.9723  -15.5306   10.6705 C.ar      1 UNL1        0.0000
     17 C          41.0593  -15.2346   11.6307 C.2       1 UNL1        0.0000
     18 C          42.9773  -16.0494   12.9442 C.3       1 UNL1        0.0000
     19 C          43.3675  -17.2823   13.7308 C.3       1 UNL1        0.0000
     20 C          41.7419  -18.7066   12.5186 C.3       1 UNL1        0.0000
     21 C          41.6868  -17.6208   11.4750 C.3       1 UNL1        0.0000
     22 C          41.6240  -18.5254   14.9973 C.2       1 UNL1        0.0000
     23 C          41.9910  -18.0676   16.3400 C.3       1 UNL1        0.0000
     24 C          40.9210  -18.1882   17.4014 C.3       1 UNL1        0.0000
     25 C          41.3534  -16.8668   16.9410 C.3       1 UNL1        0.0000
     26 C          38.9826  -16.3660   11.1316 C.ar      1 UNL1        0.0000
     27 C          37.9605  -16.6607   10.2579 C.ar      1 UNL1        0.0000
     28 C          37.9630  -16.1159    8.9659 C.ar      1 UNL1        0.0000
     29 O          38.2293  -18.5217    3.3655 O.2       1 UNL1        0.0000
     30 O          40.6307  -19.3351   14.9441 O.2       1 UNL1        0.0000
     31 O          41.2427  -14.0877   12.0995 O.2       1 UNL1        0.0000
     32 F          39.0233  -16.8741   12.3977 F         1 UNL1        0.0000
     33 H          36.8355  -16.9557    2.2312 H         1 UNL1        0.0000
     34 H          35.7102  -14.8169    1.9574 H         1 UNL1        0.0000
     35 H          36.0433  -13.1390    3.6491 H         1 UNL1        0.0000
     36 H          37.4336  -13.5084    5.5669 H         1 UNL1        0.0000
     37 H          38.3573  -13.8513    7.1017 H         1 UNL1        0.0000
     38 H          40.0444  -14.3316    7.0235 H         1 UNL1        0.0000
     39 H          40.7456  -14.3718    9.1102 H         1 UNL1        0.0000
     40 H          42.6658  -15.2893   13.6302 H         1 UNL1        0.0000
     41 H          43.8320  -15.7438   12.3766 H         1 UNL1        0.0000
     42 H          43.6570  -16.9999   14.7211 H         1 UNL1        0.0000
     43 H          44.1903  -17.7720   13.2526 H         1 UNL1        0.0000
     44 H          40.7598  -19.1061   12.6621 H         1 UNL1        0.0000
     45 H          42.4073  -19.4742   12.1824 H         1 UNL1        0.0000
     46 H          40.7204  -17.6368   11.0158 H         1 UNL1        0.0000
     47 H          42.4667  -17.8139   10.7696 H         1 UNL1        0.0000
     48 H          43.0073  -18.3718   16.2021 H         1 UNL1        0.0000
     49 H          41.1779  -18.5230   18.3849 H         1 UNL1        0.0000
     50 H          39.9816  -18.6952   17.4752 H         1 UNL1        0.0000
     51 H          41.9190  -16.2361   17.5947 H         1 UNL1        0.0000
     52 H          40.8475  -16.0123   16.5444 H         1 UNL1        0.0000
     53 H          37.1919  -17.2831   10.5546 H         1 UNL1        0.0000
     54 H          37.1848  -16.3533    8.3305 H         1 UNL1        0.0000
     55 H          39.6015  -18.6689    5.4755 H         1 UNL1        0.0000
@<TRIPOS>BOND
     1    1   18 1
     2    1   21 1
     3    1   17 am
     4    2   19 1
     5    2   20 1
     6    2   22 am
     7    3    4 1
     8    3   12 2
     9    4    5 am
    10    4   55 1
    11    5   29 2
    12    5    6 1
    13    6    7 ar
    14    6   11 ar
    15    7    8 ar
    16    7   33 1
    17    8   34 1
    18    8    9 ar
    19    9   10 ar
    20    9   35 1
    21   10   11 ar
    22   10   36 1
    23   11   12 1
    24   12   13 1
    25   13   37 1
    26   13   38 1
    27   13   14 1
    28   14   15 ar
    29   14   28 ar
    30   15   39 1
    31   15   16 ar
    32   16   26 ar
    33   16   17 1
    34   17   31 2
    35   18   19 1
    36   18   40 1
    37   18   41 1
    38   19   42 1
    39   19   43 1
    40   20   21 1
    41   20   45 1
    42   20   44 1
    43   21   46 1
    44   21   47 1
    45   22   30 2
    46   22   23 1
    47   23   25 1
    48   23   24 1
    49   23   48 1
    50   24   25 1
    51   24   49 1
    52   24   50 1
    53   25   51 1
    54   25   52 1
    55   26   27 ar
    56   26   32 1
    57   27   28 ar
    58   27   53 1
    59   28   54 1
@<TRIPOS>SUBSTRUCTURE
1 UNL1 1
@<TRIPOS>COMMENT
olaparib
PLANTSproteinTorsions
57
1 358.4479
19 245.8567
33 40.6501
53 58.2679
108 205.5683
228 5.5158
405 25.9561
438 57.2401
479 308.9454
492 356.5913
546 330.0964
641 239.9548
776 109.4287
836 49.1789
905 341.2261
919 316.8446
988 208.0455
1139 286.0407
1332 256.6397
1388 27.8349
1606 43.7923
1642 59.3629
1655 277.1692
1759 85.8573
1952 29.9724
1986 3.6732
2049 355.0805
2207 248.9474
2220 294.8248
2267 285.4551
2305 321.8427
2319 267.5568
2601 55.7323
2653 24.5787
2695 255.7540
2741 140.9153
2763 304.6793
2818 97.4223
2847 45.3117
2913 195.2870
2968 166.8419
2982 142.0363
2996 299.7242
3051 250.6040
3105 133.8497
3240 282.3681
3280 217.0639
3290 158.7041
3365 274.8562
3426 45.0530
3477 105.9823
3534 21.7468
3661 162.5845
3685 270.3589
3741 181.4386
3784 162.6096
3862 292.0649
PLANTSmolcadARTstart hb
PLANTSmolcadARTstart HB
LINES
PLANTSmolcadARTstart HBCH
LINES
PLANTSmolcadARTstart HB-CHO
LINES
PLANTSmolcadARTend
PLANTSmolcadARTstart HB_WATER
LINES
PLANTSmolcadARTend

PLANTSmolcadARTend

