@<TRIPOS>MOLECULE
olaparib_entry_00001_conf_18
55 59 1
SMALL
NO_CHARGES


@<TRIPOS>ATOM
      1 N          27.0814   -7.0468    6.6928 N.am      1 UNL1        0.0000
      2 N          27.0259   -6.7716    9.2753 N.am      1 UNL1        0.0000
      3 N          20.7475   -9.6753    5.1174 N.2       1 UNL1        0.0000
      4 N          19.9754  -10.7256    4.9787 N.am      1 UNL1        0.0000
      5 C          19.1026  -10.8685    3.9714 C.2       1 UNL1        0.0000
      6 C          19.0056   -9.8646    3.0299 C.ar      1 UNL1        0.0000
      7 C          18.0995   -9.9534    1.9725 C.ar      1 UNL1        0.0000
      8 C          18.0049   -8.9286    1.0557 C.ar      1 UNL1        0.0000
      9 C          18.8343   -7.8432    1.2434 C.ar      1 UNL1        0.0000
     10 C          19.7377   -7.7417    2.2881 C.ar      1 UNL1        0.0000
     11 C          19.8253   -8.7624    3.1883 C.ar      1 UNL1        0.0000
     12 C          20.7109   -8.6382    4.2250 C.2       1 UNL1        0.0000
     13 C          21.6661   -7.5625    4.4564 C.3       1 UNL1        0.0000
     14 C          23.0582   -8.0909    4.4643 C.ar      1 UNL1        0.0000
     15 C          24.0383   -7.2080    4.9518 C.ar      1 UNL1        0.0000
     16 C          25.3547   -7.6012    4.9889 C.ar      1 UNL1        0.0000
     17 C          26.4098   -6.6936    5.4931 C.2       1 UNL1        0.0000
     18 C          28.1079   -6.1993    7.2076 C.3       1 UNL1        0.0000
     19 C          28.2711   -6.3245    8.7072 C.3       1 UNL1        0.0000
     20 C          26.5414   -8.0924    8.8599 C.3       1 UNL1        0.0000
     21 C          26.7050   -8.2723    7.3726 C.3       1 UNL1        0.0000
     22 C          26.2942   -5.9992   10.1821 C.2       1 UNL1        0.0000
     23 C          26.6365   -4.6642   10.6798 C.3       1 UNL1        0.0000
     24 C          26.9975   -4.5710   12.1450 C.3       1 UNL1        0.0000
     25 C          25.7599   -3.9614   11.6531 C.3       1 UNL1        0.0000
     26 C          25.7847   -8.8375    4.5685 C.ar      1 UNL1        0.0000
     27 C          24.8244   -9.7008    4.0916 C.ar      1 UNL1        0.0000
     28 C          23.4806   -9.3025    4.0514 C.ar      1 UNL1        0.0000
     29 O          18.3549  -11.8686    3.8209 O.2       1 UNL1        0.0000
     30 O          25.2024   -6.4939   10.6389 O.2       1 UNL1        0.0000
     31 O          26.7223   -5.6368    4.8980 O.2       1 UNL1        0.0000
     32 F          27.1045   -9.1806    4.6249 F         1 UNL1        0.0000
     33 H          17.4998  -10.7876    1.8761 H         1 UNL1        0.0000
     34 H          17.3434   -8.9716    0.2659 H         1 UNL1        0.0000
     35 H          18.7785   -7.0645    0.5691 H         1 UNL1        0.0000
     36 H          20.3364   -6.9064    2.3845 H         1 UNL1        0.0000
     37 H          21.4581   -7.1039    5.4006 H         1 UNL1        0.0000
     38 H          21.5754   -6.8446    3.6679 H         1 UNL1        0.0000
     39 H          23.7700   -6.2675    5.2803 H         1 UNL1        0.0000
     40 H          27.8636   -5.1841    6.9728 H         1 UNL1        0.0000
     41 H          29.0311   -6.4986    6.7556 H         1 UNL1        0.0000
     42 H          28.5344   -5.3737    9.1206 H         1 UNL1        0.0000
     43 H          29.0456   -7.0287    8.9300 H         1 UNL1        0.0000
     44 H          25.5060   -8.1839    9.1130 H         1 UNL1        0.0000
     45 H          27.1124   -8.8448    9.3628 H         1 UNL1        0.0000
     46 H          25.7767   -8.6157    6.9657 H         1 UNL1        0.0000
     47 H          27.4930   -8.9786    7.2195 H         1 UNL1        0.0000
     48 H          27.0650   -4.3873    9.7396 H         1 UNL1        0.0000
     49 H          27.8123   -3.9514   12.4572 H         1 UNL1        0.0000
     50 H          27.2423   -5.2771   12.9108 H         1 UNL1        0.0000
     51 H          25.6721   -2.8956   11.6156 H         1 UNL1        0.0000
     52 H          24.7288   -4.0429   11.9242 H         1 UNL1        0.0000
     53 H          25.0943  -10.6420    3.7636 H         1 UNL1        0.0000
     54 H          22.7807   -9.9690    3.6888 H         1 UNL1        0.0000
     55 H          20.0404  -11.4456    5.6475 H         1 UNL1        0.0000
@<TRIPOS>BOND
     1    1   18 1
     2    1   21 1
     3    1   17 am
     4    2   19 1
     5    2   20 1
     6    2   22 am
     7    3    4 1
     8    3   12 2
     9    4    5 am
    10    4   55 1
    11    5   29 2
    12    5    6 1
    13    6    7 ar
    14    6   11 ar
    15    7    8 ar
    16    7   33 1
    17    8   34 1
    18    8    9 ar
    19    9   10 ar
    20    9   35 1
    21   10   11 ar
    22   10   36 1
    23   11   12 1
    24   12   13 1
    25   13   37 1
    26   13   38 1
    27   13   14 1
    28   14   15 ar
    29   14   28 ar
    30   15   39 1
    31   15   16 ar
    32   16   26 ar
    33   16   17 1
    34   17   31 2
    35   18   19 1
    36   18   40 1
    37   18   41 1
    38   19   42 1
    39   19   43 1
    40   20   21 1
    41   20   45 1
    42   20   44 1
    43   21   46 1
    44   21   47 1
    45   22   30 2
    46   22   23 1
    47   23   25 1
    48   23   24 1
    49   23   48 1
    50   24   25 1
    51   24   49 1
    52   24   50 1
    53   25   51 1
    54   25   52 1
    55   26   27 ar
    56   26   32 1
    57   27   28 ar
    58   27   53 1
    59   28   54 1
@<TRIPOS>SUBSTRUCTURE
1 UNL1 1
@<TRIPOS>COMMENT
olaparib
PLANTSproteinTorsions
57
1 254.5567
19 137.7719
33 339.7932
53 223.1891
108 52.8614
228 8.4466
405 126.5651
438 86.7646
479 70.9863
492 174.9589
546 201.3106
641 18.0242
776 92.8685
836 190.3320
905 52.3921
919 84.5364
988 54.4004
1139 225.8289
1332 81.9545
1388 103.1348
1606 302.9892
1642 218.6770
1655 130.8317
1759 351.0255
1952 206.5632
1986 149.8550
2049 240.6558
2207 149.1804
2220 324.0167
2267 343.5034
2305 226.2312
2319 190.6534
2601 40.8536
2653 105.4269
2695 64.8050
2741 81.1643
2763 42.6302
2818 175.9422
2847 79.4918
2913 252.4123
2968 79.6812
2982 79.8617
2996 268.9587
3051 115.5121
3105 8.0913
3240 238.1423
3280 79.6656
3290 30.7350
3365 106.4896
3426 292.2410
3477 120.5698
3534 227.2609
3661 193.8870
3685 33.2702
3741 280.2280
3784 277.5107
3862 228.9652
PLANTSmolcadARTstart hb
PLANTSmolcadARTstart HB
LINES
26.7223 -5.63675 4.898 27.0858 -3.92182 5.77356 0 255 0 5
PLANTSmolcadARTstart HBCH
LINES
PLANTSmolcadARTstart HB-CHO
LINES
PLANTSmolcadARTend
PLANTSmolcadARTstart HB_WATER
LINES
PLANTSmolcadARTend

PLANTSmolcadARTend

