@<TRIPOS>MOLECULE
olaparib_entry_00001_conf_47
55 59 1
SMALL
NO_CHARGES


@<TRIPOS>ATOM
      1 N          28.1761  -22.0977   12.3540 N.am      1 UNL1        0.0000
      2 N          29.7320  -21.0646   14.1597 N.am      1 UNL1        0.0000
      3 N          22.9706  -17.3457   11.3707 N.2       1 UNL1        0.0000
      4 N          21.8070  -16.8447   11.0334 N.am      1 UNL1        0.0000
      5 C          21.6567  -15.9071   10.0874 C.2       1 UNL1        0.0000
      6 C          22.7773  -15.4404    9.4316 C.ar      1 UNL1        0.0000
      7 C          22.6797  -14.4507    8.4528 C.ar      1 UNL1        0.0000
      8 C          23.8152  -13.9845    7.8259 C.ar      1 UNL1        0.0000
      9 C          25.0164  -14.5383    8.2150 C.ar      1 UNL1        0.0000
     10 C          25.1281  -15.5205    9.1849 C.ar      1 UNL1        0.0000
     11 C          23.9982  -15.9768    9.7973 C.ar      1 UNL1        0.0000
     12 C          24.1280  -16.9354   10.7662 C.2       1 UNL1        0.0000
     13 C          25.3447  -17.6182   11.1863 C.3       1 UNL1        0.0000
     14 C          25.2738  -19.0676   10.8523 C.ar      1 UNL1        0.0000
     15 C          26.4521  -19.8002   11.0813 C.ar      1 UNL1        0.0000
     16 C          26.4883  -21.1436   10.7940 C.ar      1 UNL1        0.0000
     17 C          27.7146  -21.9412   11.0208 C.2       1 UNL1        0.0000
     18 C          29.3522  -22.8637   12.6129 C.3       1 UNL1        0.0000
     19 C          30.0574  -22.4396   13.8832 C.3       1 UNL1        0.0000
     20 C          28.3215  -20.7535   14.4164 C.3       1 UNL1        0.0000
     21 C          27.4339  -21.4697   13.4313 C.3       1 UNL1        0.0000
     22 C          30.6985  -20.0550   14.1864 C.2       1 UNL1        0.0000
     23 C          32.1350  -20.2035   13.9383 C.3       1 UNL1        0.0000
     24 C          32.9575  -20.7446   15.0858 C.3       1 UNL1        0.0000
     25 C          33.1272  -19.3564   14.6508 C.3       1 UNL1        0.0000
     26 C          25.4152  -21.8350   10.2836 C.ar      1 UNL1        0.0000
     27 C          24.2624  -21.1168   10.0598 C.ar      1 UNL1        0.0000
     28 C          24.2223  -19.7457   10.3509 C.ar      1 UNL1        0.0000
     29 O          20.5495  -15.4156    9.7492 O.2       1 UNL1        0.0000
     30 O          30.3063  -18.8634   14.4540 O.2       1 UNL1        0.0000
     31 O          28.3477  -22.4749   10.0810 O.2       1 UNL1        0.0000
     32 F          25.5015  -23.1701   10.0140 F         1 UNL1        0.0000
     33 H          21.7562  -14.0676    8.1973 H         1 UNL1        0.0000
     34 H          23.7683  -13.2542    7.0994 H         1 UNL1        0.0000
     35 H          25.8787  -14.2025    7.7592 H         1 UNL1        0.0000
     36 H          26.0523  -15.9024    9.4408 H         1 UNL1        0.0000
     37 H          25.4645  -17.5059   12.2437 H         1 UNL1        0.0000
     38 H          26.1779  -17.1871   10.6712 H         1 UNL1        0.0000
     39 H          27.2873  -19.3303   11.4637 H         1 UNL1        0.0000
     40 H          30.0264  -22.7446   11.7903 H         1 UNL1        0.0000
     41 H          29.0529  -23.8844   12.7343 H         1 UNL1        0.0000
     42 H          31.1149  -22.5409   13.7581 H         1 UNL1        0.0000
     43 H          29.7413  -23.0584   14.6973 H         1 UNL1        0.0000
     44 H          28.1704  -19.6985   14.3229 H         1 UNL1        0.0000
     45 H          28.0700  -21.0764   15.4050 H         1 UNL1        0.0000
     46 H          26.7527  -20.7616   13.0074 H         1 UNL1        0.0000
     47 H          26.9240  -22.2445   13.9632 H         1 UNL1        0.0000
     48 H          31.9670  -20.4334   12.9071 H         1 UNL1        0.0000
     49 H          33.7293  -21.4621   14.8995 H         1 UNL1        0.0000
     50 H          32.7356  -21.2258   16.0154 H         1 UNL1        0.0000
     51 H          34.0284  -19.0624   14.1545 H         1 UNL1        0.0000
     52 H          33.0828  -18.4089   15.1445 H         1 UNL1        0.0000
     53 H          23.4270  -21.5884    9.6777 H         1 UNL1        0.0000
     54 H          23.3455  -19.2307   10.1733 H         1 UNL1        0.0000
     55 H          21.0035  -17.1742   11.4979 H         1 UNL1        0.0000
@<TRIPOS>BOND
     1    1   18 1
     2    1   21 1
     3    1   17 am
     4    2   19 1
     5    2   20 1
     6    2   22 am
     7    3    4 1
     8    3   12 2
     9    4    5 am
    10    4   55 1
    11    5   29 2
    12    5    6 1
    13    6    7 ar
    14    6   11 ar
    15    7    8 ar
    16    7   33 1
    17    8   34 1
    18    8    9 ar
    19    9   10 ar
    20    9   35 1
    21   10   11 ar
    22   10   36 1
    23   11   12 1
    24   12   13 1
    25   13   37 1
    26   13   38 1
    27   13   14 1
    28   14   15 ar
    29   14   28 ar
    30   15   39 1
    31   15   16 ar
    32   16   26 ar
    33   16   17 1
    34   17   31 2
    35   18   19 1
    36   18   40 1
    37   18   41 1
    38   19   42 1
    39   19   43 1
    40   20   21 1
    41   20   45 1
    42   20   44 1
    43   21   46 1
    44   21   47 1
    45   22   30 2
    46   22   23 1
    47   23   25 1
    48   23   24 1
    49   23   48 1
    50   24   25 1
    51   24   49 1
    52   24   50 1
    53   25   51 1
    54   25   52 1
    55   26   27 ar
    56   26   32 1
    57   27   28 ar
    58   27   53 1
    59   28   54 1
@<TRIPOS>SUBSTRUCTURE
1 UNL1 1
@<TRIPOS>COMMENT
olaparib
PLANTSproteinTorsions
57
1 10.1803
19 237.5700
33 18.2035
53 147.1062
108 16.0511
228 89.1955
405 178.2724
438 20.4721
479 65.6141
492 54.5956
546 339.5821
641 219.8474
776 56.4365
836 122.7521
905 53.5880
919 309.5877
988 2.9786
1139 193.1765
1332 108.6070
1388 256.3156
1606 144.9221
1642 36.1429
1655 75.5753
1759 121.1746
1952 227.3217
1986 27.3083
2049 102.9803
2207 242.6031
2220 220.7862
2267 135.6948
2305 251.7086
2319 167.3893
2601 316.2015
2653 186.3114
2695 247.8662
2741 32.2065
2763 73.5698
2818 162.8620
2847 284.0902
2913 147.7542
2968 126.9973
2982 140.4049
2996 125.6102
3051 266.3537
3105 222.4442
3240 59.3176
3280 296.2007
3290 297.2066
3365 153.3813
3426 134.4189
3477 277.6703
3534 44.3674
3661 116.3743
3685 135.9163
3741 26.9931
3784 70.6456
3862 250.9329
PLANTSmolcadARTstart hb
PLANTSmolcadARTstart HB
LINES
30.3063 -18.8634 14.454 29.708 -17.145 13.691 0 255 0 5
PLANTSmolcadARTstart HBCH
LINES
PLANTSmolcadARTstart HB-CHO
LINES
PLANTSmolcadARTend
PLANTSmolcadARTstart HB_WATER
LINES
PLANTSmolcadARTend

PLANTSmolcadARTend

