@<TRIPOS>MOLECULE
olaparib_entry_00001_conf_79
55 59 1
SMALL
NO_CHARGES


@<TRIPOS>ATOM
      1 N          23.6017  -19.6262    9.1532 N.am      1 UNL1        0.0000
      2 N          25.3309  -20.9550   10.5647 N.am      1 UNL1        0.0000
      3 N          21.7402  -15.0107    9.9958 N.2       1 UNL1        0.0000
      4 N          20.6098  -15.2306   10.6222 N.am      1 UNL1        0.0000
      5 C          20.5139  -15.3196   11.9563 C.2       1 UNL1        0.0000
      6 C          21.6572  -15.1741   12.7149 C.ar      1 UNL1        0.0000
      7 C          21.6171  -15.2776   14.1059 C.ar      1 UNL1        0.0000
      8 C          22.7753  -15.1500   14.8420 C.ar      1 UNL1        0.0000
      9 C          23.9402  -14.9224   14.1403 C.ar      1 UNL1        0.0000
     10 C          23.9948  -14.8179   12.7604 C.ar      1 UNL1        0.0000
     11 C          22.8426  -14.9431   12.0416 C.ar      1 UNL1        0.0000
     12 C          22.9168  -14.8547   10.6774 C.2       1 UNL1        0.0000
     13 C          24.0887  -14.5499    9.8670 C.3       1 UNL1        0.0000
     14 C          24.1041  -15.3843    8.6338 C.ar      1 UNL1        0.0000
     15 C          23.7542  -16.7347    8.8119 C.ar      1 UNL1        0.0000
     16 C          23.7493  -17.5874    7.7341 C.ar      1 UNL1        0.0000
     17 C          23.3889  -19.0147    7.8899 C.2       1 UNL1        0.0000
     18 C          23.2621  -20.9993    9.3434 C.3       1 UNL1        0.0000
     19 C          24.0814  -21.6580   10.4323 C.3       1 UNL1        0.0000
     20 C          25.2625  -19.5481   10.9745 C.3       1 UNL1        0.0000
     21 C          24.1641  -18.8331   10.2304 C.3       1 UNL1        0.0000
     22 C          26.5648  -21.5640   10.3182 C.2       1 UNL1        0.0000
     23 C          26.7955  -22.9467    9.8913 C.3       1 UNL1        0.0000
     24 C          27.4263  -23.8640   10.9144 C.3       1 UNL1        0.0000
     25 C          28.1740  -23.4747    9.7167 C.3       1 UNL1        0.0000
     26 C          24.0733  -17.1917    6.4580 C.ar      1 UNL1        0.0000
     27 C          24.4157  -15.8697    6.2848 C.ar      1 UNL1        0.0000
     28 C          24.4227  -14.9973    7.3826 C.ar      1 UNL1        0.0000
     29 O          19.4391  -15.5286   12.5751 O.2       1 UNL1        0.0000
     30 O          27.6207  -20.8531   10.4761 O.2       1 UNL1        0.0000
     31 O          22.9075  -19.6885    6.9503 O.2       1 UNL1        0.0000
     32 F          24.0541  -18.0776    5.4199 F         1 UNL1        0.0000
     33 H          20.7190  -15.4492   14.5844 H         1 UNL1        0.0000
     34 H          22.7708  -15.2221   15.8706 H         1 UNL1        0.0000
     35 H          24.8188  -14.8251   14.6720 H         1 UNL1        0.0000
     36 H          24.8935  -14.6474   12.2824 H         1 UNL1        0.0000
     37 H          24.9724  -14.7477   10.4371 H         1 UNL1        0.0000
     38 H          24.0539  -13.5184    9.5837 H         1 UNL1        0.0000
     39 H          23.5021  -17.0845    9.7493 H         1 UNL1        0.0000
     40 H          23.4278  -21.5234    8.4250 H         1 UNL1        0.0000
     41 H          22.2348  -21.0398    9.6421 H         1 UNL1        0.0000
     42 H          24.2686  -22.6789   10.1733 H         1 UNL1        0.0000
     43 H          23.5463  -21.6253   11.3586 H         1 UNL1        0.0000
     44 H          26.1973  -19.0731   10.7624 H         1 UNL1        0.0000
     45 H          25.0546  -19.5025   12.0231 H         1 UNL1        0.0000
     46 H          24.5632  -17.9308    9.8161 H         1 UNL1        0.0000
     47 H          23.3781  -18.6378   10.9285 H         1 UNL1        0.0000
     48 H          25.9261  -22.9344    9.2682 H         1 UNL1        0.0000
     49 H          27.0734  -24.8686   11.0222 H         1 UNL1        0.0000
     50 H          27.6040  -23.8142   11.9684 H         1 UNL1        0.0000
     51 H          28.3724  -24.2006    8.9559 H         1 UNL1        0.0000
     52 H          29.1297  -23.0264    9.5465 H         1 UNL1        0.0000
     53 H          24.6672  -15.5209    5.3461 H         1 UNL1        0.0000
     54 H          24.6836  -14.0110    7.2253 H         1 UNL1        0.0000
     55 H          19.7904  -15.3350   10.0860 H         1 UNL1        0.0000
@<TRIPOS>BOND
     1    1   18 1
     2    1   21 1
     3    1   17 am
     4    2   19 1
     5    2   20 1
     6    2   22 am
     7    3    4 1
     8    3   12 2
     9    4    5 am
    10    4   55 1
    11    5   29 2
    12    5    6 1
    13    6    7 ar
    14    6   11 ar
    15    7    8 ar
    16    7   33 1
    17    8   34 1
    18    8    9 ar
    19    9   10 ar
    20    9   35 1
    21   10   11 ar
    22   10   36 1
    23   11   12 1
    24   12   13 1
    25   13   37 1
    26   13   38 1
    27   13   14 1
    28   14   15 ar
    29   14   28 ar
    30   15   39 1
    31   15   16 ar
    32   16   26 ar
    33   16   17 1
    34   17   31 2
    35   18   19 1
    36   18   40 1
    37   18   41 1
    38   19   42 1
    39   19   43 1
    40   20   21 1
    41   20   45 1
    42   20   44 1
    43   21   46 1
    44   21   47 1
    45   22   30 2
    46   22   23 1
    47   23   25 1
    48   23   24 1
    49   23   48 1
    50   24   25 1
    51   24   49 1
    52   24   50 1
    53   25   51 1
    54   25   52 1
    55   26   27 ar
    56   26   32 1
    57   27   28 ar
    58   27   53 1
    59   28   54 1
@<TRIPOS>SUBSTRUCTURE
1 UNL1 1
@<TRIPOS>COMMENT
olaparib
PLANTSproteinTorsions
57
1 318.8814
19 94.3882
33 250.0452
53 2.3949
108 11.1308
228 36.5760
405 197.5667
438 218.8805
479 26.4287
492 183.2513
546 30.1753
641 192.3490
776 175.6605
836 247.8088
905 103.6751
919 97.0389
988 233.5594
1139 109.2386
1332 106.7998
1388 87.7473
1606 11.4709
1642 42.5055
1655 175.1030
1759 34.7767
1952 11.4381
1986 196.0701
2049 38.8388
2207 138.3626
2220 207.7041
2267 126.7800
2305 119.3191
2319 10.3369
2601 211.0202
2653 253.9830
2695 95.6393
2741 315.2724
2763 51.0445
2818 265.2451
2847 28.4166
2913 348.8313
2968 96.5129
2982 250.8666
2996 269.6117
3051 46.5440
3105 203.6203
3240 129.0947
3280 231.6901
3290 209.6267
3365 271.0387
3426 319.4604
3477 161.9791
3534 212.3054
3661 38.7770
3685 71.2262
3741 131.8948
3784 83.7603
3862 187.7170
PLANTSmolcadARTstart hb
PLANTSmolcadARTstart HB
LINES
PLANTSmolcadARTstart HBCH
LINES
PLANTSmolcadARTstart HB-CHO
LINES
PLANTSmolcadARTend
PLANTSmolcadARTstart HB_WATER
LINES
PLANTSmolcadARTend

PLANTSmolcadARTend

