@<TRIPOS>MOLECULE
olaparib_entry_00001_conf_26
55 59 1
SMALL
NO_CHARGES


@<TRIPOS>ATOM
      1 N          24.7926   -9.9249    5.6803 N.am      1 UNL1        0.0000
      2 N          24.0248   -8.4512    3.6836 N.am      1 UNL1        0.0000
      3 N          25.8327   -5.4453   10.8214 N.2       1 UNL1        0.0000
      4 N          25.9029   -4.7705   11.9432 N.am      1 UNL1        0.0000
      5 C          26.8690   -3.8791   12.2056 C.2       1 UNL1        0.0000
      6 C          27.8419   -3.6553   11.2531 C.ar      1 UNL1        0.0000
      7 C          28.8813   -2.7531   11.4829 C.ar      1 UNL1        0.0000
      8 C          29.8541   -2.5614   10.5256 C.ar      1 UNL1        0.0000
      9 C          29.7409   -3.2947    9.3634 C.ar      1 UNL1        0.0000
     10 C          28.7152   -4.1934    9.1222 C.ar      1 UNL1        0.0000
     11 C          27.7563   -4.3738   10.0749 C.ar      1 UNL1        0.0000
     12 C          26.7591   -5.2789    9.8278 C.2       1 UNL1        0.0000
     13 C          26.5294   -6.0396    8.6065 C.3       1 UNL1        0.0000
     14 C          26.1783   -7.4508    8.9268 C.ar      1 UNL1        0.0000
     15 C          25.5478   -8.1674    7.8940 C.ar      1 UNL1        0.0000
     16 C          25.1757   -9.4746    8.0975 C.ar      1 UNL1        0.0000
     17 C          24.5073  -10.2542    7.0313 C.2       1 UNL1        0.0000
     18 C          24.1712  -10.6573    4.6246 C.3       1 UNL1        0.0000
     19 C          24.0470   -9.8515    3.3493 C.3       1 UNL1        0.0000
     20 C          25.2202   -7.9036    4.3340 C.3       1 UNL1        0.0000
     21 C          25.7181   -8.8422    5.4027 C.3       1 UNL1        0.0000
     22 C          22.9254   -7.6317    3.4115 C.2       1 UNL1        0.0000
     23 C          21.6626   -8.0308    2.7844 C.3       1 UNL1        0.0000
     24 C          21.5874   -7.8802    1.2818 C.3       1 UNL1        0.0000
     25 C          20.7721   -7.0252    2.1476 C.3       1 UNL1        0.0000
     26 C          25.3878  -10.1439    9.2795 C.ar      1 UNL1        0.0000
     27 C          26.0051   -9.4415   10.2897 C.ar      1 UNL1        0.0000
     28 C          26.3851   -8.1073   10.0858 C.ar      1 UNL1        0.0000
     29 O          26.9524   -3.2215   13.2745 O.2       1 UNL1        0.0000
     30 O          23.0108   -6.3945    3.7389 O.2       1 UNL1        0.0000
     31 O          23.7076  -11.1842    7.2851 O.2       1 UNL1        0.0000
     32 F          24.9989  -11.4432    9.4326 F         1 UNL1        0.0000
     33 H          28.9216   -2.2282   12.3705 H         1 UNL1        0.0000
     34 H          30.6316   -1.9000   10.6723 H         1 UNL1        0.0000
     35 H          30.4594   -3.1672    8.6343 H         1 UNL1        0.0000
     36 H          28.6762   -4.7189    8.2347 H         1 UNL1        0.0000
     37 H          27.4174   -6.0244    8.0097 H         1 UNL1        0.0000
     38 H          25.7157   -5.5960    8.0713 H         1 UNL1        0.0000
     39 H          25.3647   -7.7128    6.9860 H         1 UNL1        0.0000
     40 H          23.1919  -10.9506    4.9416 H         1 UNL1        0.0000
     41 H          24.7888  -11.5056    4.4125 H         1 UNL1        0.0000
     42 H          23.1417  -10.1154    2.8444 H         1 UNL1        0.0000
     43 H          24.8780  -10.0586    2.7074 H         1 UNL1        0.0000
     44 H          24.9791   -6.9609    4.7789 H         1 UNL1        0.0000
     45 H          25.9882   -7.7795    3.5993 H         1 UNL1        0.0000
     46 H          25.8695   -8.2848    6.3036 H         1 UNL1        0.0000
     47 H          26.6264   -9.2803    5.0474 H         1 UNL1        0.0000
     48 H          21.5057   -8.7991    3.5120 H         1 UNL1        0.0000
     49 H          21.1227   -8.6414    0.6903 H         1 UNL1        0.0000
     50 H          22.2993   -7.7096    0.5015 H         1 UNL1        0.0000
     51 H          19.7110   -7.1600    2.1789 H         1 UNL1        0.0000
     52 H          20.6469   -5.9682    2.2482 H         1 UNL1        0.0000
     53 H          26.1883   -9.8978   11.1977 H         1 UNL1        0.0000
     54 H          26.8459   -7.6033   10.8599 H         1 UNL1        0.0000
     55 H          25.2111   -4.9258   12.6266 H         1 UNL1        0.0000
@<TRIPOS>BOND
     1    1   18 1
     2    1   21 1
     3    1   17 am
     4    2   19 1
     5    2   20 1
     6    2   22 am
     7    3    4 1
     8    3   12 2
     9    4    5 am
    10    4   55 1
    11    5   29 2
    12    5    6 1
    13    6    7 ar
    14    6   11 ar
    15    7    8 ar
    16    7   33 1
    17    8   34 1
    18    8    9 ar
    19    9   10 ar
    20    9   35 1
    21   10   11 ar
    22   10   36 1
    23   11   12 1
    24   12   13 1
    25   13   37 1
    26   13   38 1
    27   13   14 1
    28   14   15 ar
    29   14   28 ar
    30   15   39 1
    31   15   16 ar
    32   16   26 ar
    33   16   17 1
    34   17   31 2
    35   18   19 1
    36   18   40 1
    37   18   41 1
    38   19   42 1
    39   19   43 1
    40   20   21 1
    41   20   45 1
    42   20   44 1
    43   21   46 1
    44   21   47 1
    45   22   30 2
    46   22   23 1
    47   23   25 1
    48   23   24 1
    49   23   48 1
    50   24   25 1
    51   24   49 1
    52   24   50 1
    53   25   51 1
    54   25   52 1
    55   26   27 ar
    56   26   32 1
    57   27   28 ar
    58   27   53 1
    59   28   54 1
@<TRIPOS>SUBSTRUCTURE
1 UNL1 1
@<TRIPOS>COMMENT
olaparib
PLANTSproteinTorsions
57
1 46.5488
19 207.9258
33 144.9085
53 62.1450
108 104.7541
228 356.4476
405 173.1013
438 56.5560
479 37.4698
492 125.7139
546 28.2213
641 44.9216
776 228.7392
836 137.5883
905 6.0004
919 48.0342
988 62.7329
1139 280.1227
1332 218.4682
1388 356.6190
1606 221.9455
1642 295.1658
1655 325.3125
1759 168.9761
1952 96.1495
1986 166.0768
2049 342.3570
2207 82.2459
2220 329.6298
2267 192.3298
2305 187.2654
2319 138.2020
2601 309.0138
2653 99.0308
2695 44.6861
2741 67.0648
2763 55.7155
2818 303.1098
2847 185.8171
2913 136.4030
2968 174.7371
2982 193.0907
2996 285.5274
3051 144.3759
3105 61.8350
3240 168.6466
3280 196.1994
3290 244.7228
3365 347.7203
3426 212.9382
3477 208.9611
3534 93.1677
3661 132.7086
3685 21.8409
3741 142.9861
3784 233.5655
3862 201.0530
PLANTSmolcadARTstart hb
PLANTSmolcadARTstart HB
LINES
PLANTSmolcadARTstart HBCH
LINES
PLANTSmolcadARTstart HB-CHO
LINES
PLANTSmolcadARTend
PLANTSmolcadARTstart HB_WATER
LINES
PLANTSmolcadARTend

PLANTSmolcadARTend

