@<TRIPOS>MOLECULE
olaparib_entry_00001_conf_63
55 59 1
SMALL
NO_CHARGES


@<TRIPOS>ATOM
      1 N          23.8003  -16.2775   11.7415 N.am      1 UNL1        0.0000
      2 N          22.5843  -14.1910   12.6986 N.am      1 UNL1        0.0000
      3 N          23.2395  -21.5435    7.4619 N.2       1 UNL1        0.0000
      4 N          23.9641  -22.6297    7.3448 N.am      1 UNL1        0.0000
      5 C          24.0400  -23.5690    8.2982 C.2       1 UNL1        0.0000
      6 C          23.3232  -23.3910    9.4636 C.ar      1 UNL1        0.0000
      7 C          23.3822  -24.3278   10.4962 C.ar      1 UNL1        0.0000
      8 C          22.6745  -24.1186   11.6602 C.ar      1 UNL1        0.0000
      9 C          21.9290  -22.9614   11.7394 C.ar      1 UNL1        0.0000
     10 C          21.8616  -22.0231   10.7230 C.ar      1 UNL1        0.0000
     11 C          22.5637  -22.2409    9.5742 C.ar      1 UNL1        0.0000
     12 C          22.5000  -21.2950    8.5864 C.2       1 UNL1        0.0000
     13 C          21.6879  -20.0855    8.5624 C.3       1 UNL1        0.0000
     14 C          22.5452  -18.8827    8.3741 C.ar      1 UNL1        0.0000
     15 C          23.1606  -18.3893    9.5384 C.ar      1 UNL1        0.0000
     16 C          23.9631  -17.2759    9.4679 C.ar      1 UNL1        0.0000
     17 C          24.6219  -16.7304   10.6761 C.2       1 UNL1        0.0000
     18 C          24.3990  -15.7497   12.9247 C.3       1 UNL1        0.0000
     19 C          23.4992  -14.7704   13.6474 C.3       1 UNL1        0.0000
     20 C          21.6505  -15.1048   12.0315 C.3       1 UNL1        0.0000
     21 C          22.3586  -16.3634   11.6006 C.3       1 UNL1        0.0000
     22 C          22.5690  -12.8234   12.4092 C.2       1 UNL1        0.0000
     23 C          23.4417  -11.7926   12.9775 C.3       1 UNL1        0.0000
     24 C          24.3307  -11.0582   11.9996 C.3       1 UNL1        0.0000
     25 C          24.9185  -11.9615   12.9915 C.3       1 UNL1        0.0000
     26 C          24.2091  -16.5963    8.2984 C.ar      1 UNL1        0.0000
     27 C          23.6062  -17.0801    7.1594 C.ar      1 UNL1        0.0000
     28 C          22.7860  -18.2154    7.2279 C.ar      1 UNL1        0.0000
     29 O          24.7280  -24.6176    8.2039 O.2       1 UNL1        0.0000
     30 O          21.7065  -12.4059   11.5566 O.2       1 UNL1        0.0000
     31 O          25.8678  -16.6588   10.7829 O.2       1 UNL1        0.0000
     32 F          25.0139  -15.4941    8.2804 F         1 UNL1        0.0000
     33 H          23.9559  -25.1788   10.3880 H         1 UNL1        0.0000
     34 H          22.7019  -24.7965   12.4367 H         1 UNL1        0.0000
     35 H          21.3928  -22.7848   12.6027 H         1 UNL1        0.0000
     36 H          21.2886  -21.1717   10.8323 H         1 UNL1        0.0000
     37 H          21.1578  -19.9987    9.4879 H         1 UNL1        0.0000
     38 H          20.9992  -20.1481    7.7456 H         1 UNL1        0.0000
     39 H          23.0097  -18.8617   10.4431 H         1 UNL1        0.0000
     40 H          25.3053  -15.2481   12.6553 H         1 UNL1        0.0000
     41 H          24.5829  -16.5700   13.5875 H         1 UNL1        0.0000
     42 H          24.0918  -13.9994   14.0929 H         1 UNL1        0.0000
     43 H          22.9530  -15.2785   14.4149 H         1 UNL1        0.0000
     44 H          21.2382  -14.6214   11.1707 H         1 UNL1        0.0000
     45 H          20.8714  -15.3653   12.7172 H         1 UNL1        0.0000
     46 H          22.1278  -16.5505   10.5726 H         1 UNL1        0.0000
     47 H          22.0213  -17.1548   12.2355 H         1 UNL1        0.0000
     48 H          22.7201  -11.5489   13.7287 H         1 UNL1        0.0000
     49 H          24.4678  -10.0008   12.0908 H         1 UNL1        0.0000
     50 H          24.3742  -10.9711   10.9340 H         1 UNL1        0.0000
     51 H          25.4914  -11.5598   13.8011 H         1 UNL1        0.0000
     52 H          25.5745  -12.8041   12.9373 H         1 UNL1        0.0000
     53 H          23.7585  -16.6068    6.2544 H         1 UNL1        0.0000
     54 H          22.3456  -18.5572    6.3591 H         1 UNL1        0.0000
     55 H          24.4775  -22.7624    6.5150 H         1 UNL1        0.0000
@<TRIPOS>BOND
     1    1   18 1
     2    1   21 1
     3    1   17 am
     4    2   19 1
     5    2   20 1
     6    2   22 am
     7    3    4 1
     8    3   12 2
     9    4    5 am
    10    4   55 1
    11    5   29 2
    12    5    6 1
    13    6    7 ar
    14    6   11 ar
    15    7    8 ar
    16    7   33 1
    17    8   34 1
    18    8    9 ar
    19    9   10 ar
    20    9   35 1
    21   10   11 ar
    22   10   36 1
    23   11   12 1
    24   12   13 1
    25   13   37 1
    26   13   38 1
    27   13   14 1
    28   14   15 ar
    29   14   28 ar
    30   15   39 1
    31   15   16 ar
    32   16   26 ar
    33   16   17 1
    34   17   31 2
    35   18   19 1
    36   18   40 1
    37   18   41 1
    38   19   42 1
    39   19   43 1
    40   20   21 1
    41   20   45 1
    42   20   44 1
    43   21   46 1
    44   21   47 1
    45   22   30 2
    46   22   23 1
    47   23   25 1
    48   23   24 1
    49   23   48 1
    50   24   25 1
    51   24   49 1
    52   24   50 1
    53   25   51 1
    54   25   52 1
    55   26   27 ar
    56   26   32 1
    57   27   28 ar
    58   27   53 1
    59   28   54 1
@<TRIPOS>SUBSTRUCTURE
1 UNL1 1
@<TRIPOS>COMMENT
olaparib
PLANTSproteinTorsions
57
1 114.0062
19 90.0467
33 264.2360
53 159.6562
108 132.0823
228 77.8814
405 111.2167
438 195.6437
479 13.7412
492 159.4762
546 107.8885
641 33.3758
776 251.2574
836 330.8989
905 315.6991
919 153.8518
988 87.4056
1139 237.7054
1332 261.7914
1388 191.5069
1606 270.9134
1642 100.4501
1655 242.1479
1759 97.1399
1952 221.3431
1986 84.2269
2049 221.0032
2207 75.3498
2220 130.3494
2267 58.9330
2305 102.2035
2319 235.0911
2601 324.8233
2653 280.4634
2695 169.4323
2741 148.2874
2763 266.2582
2818 313.0063
2847 171.4400
2913 342.7896
2968 357.6848
2982 19.8404
2996 83.1035
3051 188.8519
3105 116.7644
3240 80.0214
3280 85.5113
3290 193.9991
3365 283.4250
3426 84.9955
3477 193.3677
3534 186.0167
3661 59.8692
3685 213.2125
3741 238.3814
3784 186.1890
3862 324.3826
PLANTSmolcadARTstart hb
PLANTSmolcadARTstart HB
LINES
24.4775 -22.7624 6.51502 25.602 -23.635 5.084 0 255 0 5
PLANTSmolcadARTstart HBCH
LINES
PLANTSmolcadARTstart HB-CHO
LINES
PLANTSmolcadARTend
PLANTSmolcadARTstart HB_WATER
LINES
PLANTSmolcadARTend

PLANTSmolcadARTend

