@<TRIPOS>MOLECULE
olaparib_entry_00001_conf_66
55 59 1
SMALL
NO_CHARGES


@<TRIPOS>ATOM
      1 N          32.7990   -2.2288    2.3049 N.am      1 UNL1        0.0000
      2 N          33.3365    0.1229    1.3409 N.am      1 UNL1        0.0000
      3 N          29.3310   -2.8959    9.0519 N.2       1 UNL1        0.0000
      4 N          28.4296   -3.1794    9.9606 N.am      1 UNL1        0.0000
      5 C          27.7482   -4.3335    9.9851 C.2       1 UNL1        0.0000
      6 C          28.0021   -5.2749    9.0088 C.ar      1 UNL1        0.0000
      7 C          27.3072   -6.4844    8.9759 C.ar      1 UNL1        0.0000
      8 C          27.5622   -7.4010    7.9787 C.ar      1 UNL1        0.0000
      9 C          28.5159   -7.0585    7.0437 C.ar      1 UNL1        0.0000
     10 C          29.2128   -5.8619    7.0639 C.ar      1 UNL1        0.0000
     11 C          28.9547   -4.9629    8.0564 C.ar      1 UNL1        0.0000
     12 C          29.6398   -3.7776    8.0517 C.2       1 UNL1        0.0000
     13 C          30.7053   -3.3683    7.1460 C.3       1 UNL1        0.0000
     14 C          30.1957   -3.2645    5.7507 C.ar      1 UNL1        0.0000
     15 C          31.1757   -3.3084    4.7432 C.ar      1 UNL1        0.0000
     16 C          30.8044   -3.2096    3.4237 C.ar      1 UNL1        0.0000
     17 C          31.8127   -3.2489    2.3406 C.2       1 UNL1        0.0000
     18 C          33.7909   -2.2358    1.2786 C.3       1 UNL1        0.0000
     19 C          34.3304   -0.8538    0.9785 C.3       1 UNL1        0.0000
     20 C          32.9554    0.1906    2.7559 C.3       1 UNL1        0.0000
     21 C          32.7752   -1.1943    3.3223 C.3       1 UNL1        0.0000
     22 C          32.7471    0.9773    0.4046 C.2       1 UNL1        0.0000
     23 C          33.0098    1.0213   -1.0363 C.3       1 UNL1        0.0000
     24 C          34.0386    2.0293   -1.4961 C.3       1 UNL1        0.0000
     25 C          32.6281    2.2061   -1.8488 C.3       1 UNL1        0.0000
     26 C          29.4991   -3.0674    3.0161 C.ar      1 UNL1        0.0000
     27 C          28.5406   -3.0245    4.0033 C.ar      1 UNL1        0.0000
     28 C          28.9162   -3.1241    5.3506 C.ar      1 UNL1        0.0000
     29 O          26.8813   -4.6241   10.8487 O.2       1 UNL1        0.0000
     30 O          31.8800    1.8203    0.8322 O.2       1 UNL1        0.0000
     31 O          31.8194   -4.1460    1.4665 O.2       1 UNL1        0.0000
     32 F          29.1811   -2.9727    1.6923 F         1 UNL1        0.0000
     33 H          26.6017   -6.6936    9.6995 H         1 UNL1        0.0000
     34 H          27.0620   -8.3016    7.9338 H         1 UNL1        0.0000
     35 H          28.7212   -7.7299    6.2879 H         1 UNL1        0.0000
     36 H          29.9174   -5.6529    6.3392 H         1 UNL1        0.0000
     37 H          31.4936   -4.0910    7.1801 H         1 UNL1        0.0000
     38 H          31.0687   -2.4091    7.4514 H         1 UNL1        0.0000
     39 H          32.1710   -3.4141    4.9939 H         1 UNL1        0.0000
     40 H          33.3569   -2.6358    0.3858 H         1 UNL1        0.0000
     41 H          34.6086   -2.8345    1.6235 H         1 UNL1        0.0000
     42 H          34.5506   -0.7729   -0.0651 H         1 UNL1        0.0000
     43 H          35.2266   -0.6851    1.5386 H         1 UNL1        0.0000
     44 H          32.0362    0.7302    2.8482 H         1 UNL1        0.0000
     45 H          33.7313    0.6872    3.3003 H         1 UNL1        0.0000
     46 H          31.8333   -1.2366    3.8284 H         1 UNL1        0.0000
     47 H          33.5931   -1.3786    3.9858 H         1 UNL1        0.0000
     48 H          32.8311   -0.0288   -1.1346 H         1 UNL1        0.0000
     49 H          34.7496    1.7625   -2.2501 H         1 UNL1        0.0000
     50 H          34.7796    2.6298   -1.0111 H         1 UNL1        0.0000
     51 H          32.3147    2.0756   -2.8636 H         1 UNL1        0.0000
     52 H          31.9221    2.9998   -1.7265 H         1 UNL1        0.0000
     53 H          27.5449   -2.9193    3.7510 H         1 UNL1        0.0000
     54 H          28.1776   -3.0888    6.0709 H         1 UNL1        0.0000
     55 H          28.2444   -2.5115   10.6602 H         1 UNL1        0.0000
@<TRIPOS>BOND
     1    1   18 1
     2    1   21 1
     3    1   17 am
     4    2   19 1
     5    2   20 1
     6    2   22 am
     7    3    4 1
     8    3   12 2
     9    4    5 am
    10    4   55 1
    11    5   29 2
    12    5    6 1
    13    6    7 ar
    14    6   11 ar
    15    7    8 ar
    16    7   33 1
    17    8   34 1
    18    8    9 ar
    19    9   10 ar
    20    9   35 1
    21   10   11 ar
    22   10   36 1
    23   11   12 1
    24   12   13 1
    25   13   37 1
    26   13   38 1
    27   13   14 1
    28   14   15 ar
    29   14   28 ar
    30   15   39 1
    31   15   16 ar
    32   16   26 ar
    33   16   17 1
    34   17   31 2
    35   18   19 1
    36   18   40 1
    37   18   41 1
    38   19   42 1
    39   19   43 1
    40   20   21 1
    41   20   45 1
    42   20   44 1
    43   21   46 1
    44   21   47 1
    45   22   30 2
    46   22   23 1
    47   23   25 1
    48   23   24 1
    49   23   48 1
    50   24   25 1
    51   24   49 1
    52   24   50 1
    53   25   51 1
    54   25   52 1
    55   26   27 ar
    56   26   32 1
    57   27   28 ar
    58   27   53 1
    59   28   54 1
@<TRIPOS>SUBSTRUCTURE
1 UNL1 1
@<TRIPOS>COMMENT
olaparib
PLANTSproteinTorsions
57
1 328.8103
19 312.6154
33 111.9745
53 225.3230
108 273.8180
228 108.5293
405 345.0788
438 145.8716
479 72.0513
492 41.0963
546 138.2918
641 200.4220
776 46.0407
836 169.7465
905 247.2442
919 355.4653
988 128.4691
1139 350.7279
1332 270.9152
1388 165.4955
1606 333.0825
1642 318.8897
1655 65.0501
1759 110.5447
1952 347.4484
1986 88.7814
2049 152.2426
2207 182.5405
2220 268.7997
2267 337.3585
2305 199.7413
2319 346.5416
2601 200.7957
2653 88.9421
2695 316.3229
2741 290.3943
2763 178.6552
2818 282.9343
2847 315.5261
2913 126.9718
2968 167.3728
2982 268.4242
2996 104.5475
3051 106.7893
3105 55.5200
3240 144.1149
3280 193.6037
3290 15.6678
3365 155.4709
3426 195.2970
3477 99.1397
3534 211.9467
3661 158.5485
3685 317.9438
3741 264.1529
3784 77.5583
3862 66.8722
PLANTSmolcadARTstart hb
PLANTSmolcadARTstart HB
LINES
PLANTSmolcadARTstart HBCH
LINES
PLANTSmolcadARTstart HB-CHO
LINES
PLANTSmolcadARTend
PLANTSmolcadARTstart HB_WATER
LINES
PLANTSmolcadARTend

PLANTSmolcadARTend

