@<TRIPOS>MOLECULE
olaparib_entry_00001_conf_64
55 59 1
SMALL
NO_CHARGES


@<TRIPOS>ATOM
      1 N          27.3175  -22.7047   12.2155 N.am      1 UNL1        0.0000
      2 N          27.4138  -23.2214   14.7595 N.am      1 UNL1        0.0000
      3 N          23.8308  -16.4439    9.7539 N.2       1 UNL1        0.0000
      4 N          22.7354  -15.7818    9.4703 N.am      1 UNL1        0.0000
      5 C          22.0528  -15.0676   10.3764 C.2       1 UNL1        0.0000
      6 C          22.5193  -15.0225   11.6740 C.ar      1 UNL1        0.0000
      7 C          21.8364  -14.3107   12.6610 C.ar      1 UNL1        0.0000
      8 C          22.3094  -14.2972   13.9555 C.ar      1 UNL1        0.0000
      9 C          23.4626  -15.0099   14.2073 C.ar      1 UNL1        0.0000
     10 C          24.1502  -15.7208   13.2379 C.ar      1 UNL1        0.0000
     11 C          23.6752  -15.7256   11.9596 C.ar      1 UNL1        0.0000
     12 C          24.3571  -16.4477   11.0173 C.2       1 UNL1        0.0000
     13 C          25.6128  -17.1679   11.1838 C.3       1 UNL1        0.0000
     14 C          25.4446  -18.6035   10.8261 C.ar      1 UNL1        0.0000
     15 C          26.5125  -19.4459   11.1833 C.ar      1 UNL1        0.0000
     16 C          26.4547  -20.7863   10.8859 C.ar      1 UNL1        0.0000
     17 C          27.5642  -21.6979   11.2457 C.2       1 UNL1        0.0000
     18 C          28.3610  -23.6055   12.5849 C.3       1 UNL1        0.0000
     19 C          28.1901  -24.1545   13.9851 C.3       1 UNL1        0.0000
     20 C          26.0415  -22.9634   14.3099 C.3       1 UNL1        0.0000
     21 C          25.9981  -22.7947   12.8129 C.3       1 UNL1        0.0000
     22 C          27.9236  -22.5779   15.8910 C.2       1 UNL1        0.0000
     23 C          29.2693  -22.7187   16.4536 C.3       1 UNL1        0.0000
     24 C          29.4732  -23.8678   17.4149 C.3       1 UNL1        0.0000
     25 C          29.5233  -22.4866   17.8997 C.3       1 UNL1        0.0000
     26 C          25.3889  -21.3712   10.2441 C.ar      1 UNL1        0.0000
     27 C          24.3441  -20.5458    9.8949 C.ar      1 UNL1        0.0000
     28 C          24.4003  -19.1774   10.1960 C.ar      1 UNL1        0.0000
     29 O          21.0016  -14.4252   10.1234 O.2       1 UNL1        0.0000
     30 O          27.1462  -21.7730   16.5179 O.2       1 UNL1        0.0000
     31 O          28.6995  -21.6066   10.7246 O.2       1 UNL1        0.0000
     32 F          25.3792  -22.7082    9.9702 F         1 UNL1        0.0000
     33 H          20.9764  -13.7930   12.4215 H         1 UNL1        0.0000
     34 H          21.8225  -13.7782   14.7017 H         1 UNL1        0.0000
     35 H          23.8330  -15.0140   15.1701 H         1 UNL1        0.0000
     36 H          25.0097  -16.2393   13.4785 H         1 UNL1        0.0000
     37 H          25.9289  -17.0938   12.2035 H         1 UNL1        0.0000
     38 H          26.3471  -16.7360   10.5361 H         1 UNL1        0.0000
     39 H          27.3374  -19.0585   11.6672 H         1 UNL1        0.0000
     40 H          29.2958  -23.0870   12.5317 H         1 UNL1        0.0000
     41 H          28.3287  -24.4332   11.9067 H         1 UNL1        0.0000
     42 H          29.1497  -24.2877   14.4384 H         1 UNL1        0.0000
     43 H          27.6886  -25.0992   13.9453 H         1 UNL1        0.0000
     44 H          25.6801  -22.0701   14.7747 H         1 UNL1        0.0000
     45 H          25.4259  -23.7956   14.5808 H         1 UNL1        0.0000
     46 H          25.4598  -21.8983   12.5855 H         1 UNL1        0.0000
     47 H          25.5206  -23.6606   12.4062 H         1 UNL1        0.0000
     48 H          29.7191  -22.3472   15.5569 H         1 UNL1        0.0000
     49 H          30.3689  -24.4517   17.3687 H         1 UNL1        0.0000
     50 H          28.9169  -24.7434   17.6771 H         1 UNL1        0.0000
     51 H          30.4565  -22.0684   18.2146 H         1 UNL1        0.0000
     52 H          29.0147  -21.9473   18.6702 H         1 UNL1        0.0000
     53 H          23.5189  -20.9348    9.4112 H         1 UNL1        0.0000
     54 H          23.6036  -18.5805    9.9227 H         1 UNL1        0.0000
     55 H          22.3979  -15.8100    8.5456 H         1 UNL1        0.0000
@<TRIPOS>BOND
     1    1   18 1
     2    1   21 1
     3    1   17 am
     4    2   19 1
     5    2   20 1
     6    2   22 am
     7    3    4 1
     8    3   12 2
     9    4    5 am
    10    4   55 1
    11    5   29 2
    12    5    6 1
    13    6    7 ar
    14    6   11 ar
    15    7    8 ar
    16    7   33 1
    17    8   34 1
    18    8    9 ar
    19    9   10 ar
    20    9   35 1
    21   10   11 ar
    22   10   36 1
    23   11   12 1
    24   12   13 1
    25   13   37 1
    26   13   38 1
    27   13   14 1
    28   14   15 ar
    29   14   28 ar
    30   15   39 1
    31   15   16 ar
    32   16   26 ar
    33   16   17 1
    34   17   31 2
    35   18   19 1
    36   18   40 1
    37   18   41 1
    38   19   42 1
    39   19   43 1
    40   20   21 1
    41   20   45 1
    42   20   44 1
    43   21   46 1
    44   21   47 1
    45   22   30 2
    46   22   23 1
    47   23   25 1
    48   23   24 1
    49   23   48 1
    50   24   25 1
    51   24   49 1
    52   24   50 1
    53   25   51 1
    54   25   52 1
    55   26   27 ar
    56   26   32 1
    57   27   28 ar
    58   27   53 1
    59   28   54 1
@<TRIPOS>SUBSTRUCTURE
1 UNL1 1
@<TRIPOS>COMMENT
olaparib
PLANTSproteinTorsions
57
1 351.3764
19 205.2095
33 348.1666
53 141.7357
108 14.3429
228 108.3154
405 180.7722
438 330.3053
479 58.9659
492 142.9550
546 346.5598
641 6.6032
776 45.8534
836 241.3137
905 269.3965
919 194.3304
988 52.4600
1139 104.3694
1332 61.4649
1388 194.8524
1606 333.9088
1642 15.5473
1655 195.7646
1759 250.9883
1952 15.0275
1986 49.5290
2049 314.4290
2207 243.1262
2220 335.3437
2267 204.3201
2305 263.9614
2319 222.5668
2601 248.6698
2653 170.1273
2695 292.4169
2741 57.5520
2763 61.9961
2818 247.9905
2847 280.9230
2913 157.4645
2968 265.8412
2982 213.3806
2996 200.6754
3051 307.2289
3105 99.1940
3240 326.5049
3280 149.2590
3290 135.7674
3365 357.9964
3426 229.1128
3477 242.8112
3534 164.9672
3661 56.0000
3685 239.6453
3741 176.9555
3784 246.6568
3862 203.0095
PLANTSmolcadARTstart hb
PLANTSmolcadARTstart HB
LINES
PLANTSmolcadARTstart HBCH
LINES
PLANTSmolcadARTstart HB-CHO
LINES
PLANTSmolcadARTend
PLANTSmolcadARTstart HB_WATER
LINES
PLANTSmolcadARTend

PLANTSmolcadARTend

