@<TRIPOS>MOLECULE
olaparib_entry_00001_conf_74
55 59 1
SMALL
NO_CHARGES


@<TRIPOS>ATOM
      1 N          24.1756  -11.9079    4.6573 N.am      1 UNL1        0.0000
      2 N          24.3594  -12.7635    2.2113 N.am      1 UNL1        0.0000
      3 N          24.3404   -8.7984    9.5329 N.2       1 UNL1        0.0000
      4 N          23.4009   -9.3097   10.2909 N.am      1 UNL1        0.0000
      5 C          23.6345  -10.2494   11.2179 C.2       1 UNL1        0.0000
      6 C          24.9249  -10.7067   11.3887 C.ar      1 UNL1        0.0000
      7 C          25.2202  -11.6980   12.3254 C.ar      1 UNL1        0.0000
      8 C          26.5131  -12.1548   12.4639 C.ar      1 UNL1        0.0000
      9 C          27.4669  -11.5902   11.6437 C.ar      1 UNL1        0.0000
     10 C          27.1882  -10.6063   10.7098 C.ar      1 UNL1        0.0000
     11 C          25.9060  -10.1595   10.5826 C.ar      1 UNL1        0.0000
     12 C          25.6445   -9.1991    9.6425 C.2       1 UNL1        0.0000
     13 C          26.5997   -8.5054    8.7883 C.3       1 UNL1        0.0000
     14 C          26.2007   -8.6173    7.3580 C.ar      1 UNL1        0.0000
     15 C          25.2279   -9.5926    7.0751 C.ar      1 UNL1        0.0000
     16 C          24.8022   -9.7783    5.7817 C.ar      1 UNL1        0.0000
     17 C          23.7823  -10.7991    5.4515 C.2       1 UNL1        0.0000
     18 C          23.2215  -12.9151    4.3222 C.3       1 UNL1        0.0000
     19 C          23.5588  -13.6333    3.0333 C.3       1 UNL1        0.0000
     20 C          25.6651  -12.3602    2.7447 C.3       1 UNL1        0.0000
     21 C          25.5507  -11.9915    4.2015 C.3       1 UNL1        0.0000
     22 C          23.9324  -12.3103    0.9597 C.2       1 UNL1        0.0000
     23 C          22.6584  -12.6110    0.3013 C.3       1 UNL1        0.0000
     24 C          22.4669  -14.0380   -0.1605 C.3       1 UNL1        0.0000
     25 C          22.6060  -12.9604   -1.1427 C.3       1 UNL1        0.0000
     26 C          25.2804   -9.0498    4.7184 C.ar      1 UNL1        0.0000
     27 C          26.2326   -8.0954    4.9965 C.ar      1 UNL1        0.0000
     28 C          26.6699   -7.9040    6.3149 C.ar      1 UNL1        0.0000
     29 O          22.7472  -10.7507   11.9550 O.2       1 UNL1        0.0000
     30 O          24.7260  -11.5476    0.3012 O.2       1 UNL1        0.0000
     31 O          22.5976  -10.7126    5.8487 O.2       1 UNL1        0.0000
     32 F          24.8258   -9.2726    3.4509 F         1 UNL1        0.0000
     33 H          24.4697  -12.0892   12.9159 H         1 UNL1        0.0000
     34 H          26.7558  -12.8860   13.1493 H         1 UNL1        0.0000
     35 H          28.4409  -11.9189   11.7303 H         1 UNL1        0.0000
     36 H          27.9391  -10.2163   10.1188 H         1 UNL1        0.0000
     37 H          27.5689   -8.9397    8.9185 H         1 UNL1        0.0000
     38 H          26.6179   -7.4705    9.0602 H         1 UNL1        0.0000
     39 H          24.8351  -10.1675    7.8365 H         1 UNL1        0.0000
     40 H          22.2607  -12.4553    4.2172 H         1 UNL1        0.0000
     41 H          23.2286  -13.6414    5.1087 H         1 UNL1        0.0000
     42 H          22.6571  -13.8870    2.5167 H         1 UNL1        0.0000
     43 H          24.1017  -14.5300    3.2493 H         1 UNL1        0.0000
     44 H          26.0247  -11.5153    2.1957 H         1 UNL1        0.0000
     45 H          26.3465  -13.1797    2.6492 H         1 UNL1        0.0000
     46 H          26.0170  -11.0400    4.3508 H         1 UNL1        0.0000
     47 H          26.0291  -12.7631    4.7663 H         1 UNL1        0.0000
     48 H          22.1391  -11.8983    0.9068 H         1 UNL1        0.0000
     49 H          21.5216  -14.5215   -0.0266 H         1 UNL1        0.0000
     50 H          22.9667  -14.9663    0.0221 H         1 UNL1        0.0000
     51 H          21.7615  -12.6658   -1.7301 H         1 UNL1        0.0000
     52 H          23.2532  -12.7897   -1.9764 H         1 UNL1        0.0000
     53 H          26.6245   -7.5203    4.2336 H         1 UNL1        0.0000
     54 H          27.3851   -7.1820    6.4960 H         1 UNL1        0.0000
     55 H          22.4779   -8.9869   10.1737 H         1 UNL1        0.0000
@<TRIPOS>BOND
     1    1   18 1
     2    1   21 1
     3    1   17 am
     4    2   19 1
     5    2   20 1
     6    2   22 am
     7    3    4 1
     8    3   12 2
     9    4    5 am
    10    4   55 1
    11    5   29 2
    12    5    6 1
    13    6    7 ar
    14    6   11 ar
    15    7    8 ar
    16    7   33 1
    17    8   34 1
    18    8    9 ar
    19    9   10 ar
    20    9   35 1
    21   10   11 ar
    22   10   36 1
    23   11   12 1
    24   12   13 1
    25   13   37 1
    26   13   38 1
    27   13   14 1
    28   14   15 ar
    29   14   28 ar
    30   15   39 1
    31   15   16 ar
    32   16   26 ar
    33   16   17 1
    34   17   31 2
    35   18   19 1
    36   18   40 1
    37   18   41 1
    38   19   42 1
    39   19   43 1
    40   20   21 1
    41   20   45 1
    42   20   44 1
    43   21   46 1
    44   21   47 1
    45   22   30 2
    46   22   23 1
    47   23   25 1
    48   23   24 1
    49   23   48 1
    50   24   25 1
    51   24   49 1
    52   24   50 1
    53   25   51 1
    54   25   52 1
    55   26   27 ar
    56   26   32 1
    57   27   28 ar
    58   27   53 1
    59   28   54 1
@<TRIPOS>SUBSTRUCTURE
1 UNL1 1
@<TRIPOS>COMMENT
olaparib
PLANTSproteinTorsions
57
1 138.5472
19 25.5054
33 64.4142
53 235.0752
108 48.1858
228 156.1171
405 156.7744
438 231.9105
479 179.3440
492 15.5794
546 143.0048
641 169.1223
776 39.9873
836 224.9720
905 75.6357
919 45.1066
988 252.0335
1139 30.4765
1332 82.3499
1388 77.6358
1606 117.8166
1642 339.1920
1655 133.0145
1759 208.6914
1952 244.7204
1986 348.9489
2049 154.2321
2207 294.3477
2220 44.9947
2267 351.3821
2305 352.8982
2319 56.7191
2601 141.9105
2653 93.4482
2695 187.7719
2741 157.6063
2763 80.4372
2818 210.3640
2847 67.4971
2913 122.0468
2968 107.3304
2982 350.4407
2996 173.3389
3051 82.4354
3105 223.0846
3240 121.0215
3280 180.2206
3290 276.9204
3365 141.5084
3426 134.4136
3477 25.2271
3534 265.3304
3661 199.3752
3685 154.7326
3741 280.1837
3784 346.6183
3862 212.1071
PLANTSmolcadARTstart hb
PLANTSmolcadARTstart HB
LINES
22.7472 -10.7507 11.955 20.8028 -10.3998 12.5501 0 255 0 5
PLANTSmolcadARTstart HBCH
LINES
PLANTSmolcadARTstart HB-CHO
LINES
PLANTSmolcadARTend
PLANTSmolcadARTstart HB_WATER
LINES
PLANTSmolcadARTend

PLANTSmolcadARTend

