@<TRIPOS>MOLECULE
olaparib_entry_00001_conf_32
55 59 1
SMALL
NO_CHARGES


@<TRIPOS>ATOM
      1 N          35.8114  -19.1033   10.5534 N.am      1 UNL1        0.0000
      2 N          37.3700  -17.1639   11.3003 N.am      1 UNL1        0.0000
      3 N          36.4636  -17.2330    5.9967 N.2       1 UNL1        0.0000
      4 N          37.0617  -16.0798    6.1731 N.am      1 UNL1        0.0000
      5 C          37.0760  -15.1100    5.2478 C.2       1 UNL1        0.0000
      6 C          36.4319  -15.3287    4.0473 C.ar      1 UNL1        0.0000
      7 C          36.4330  -14.3609    3.0422 C.ar      1 UNL1        0.0000
      8 C          35.8011  -14.6096    1.8428 C.ar      1 UNL1        0.0000
      9 C          35.1883  -15.8366    1.7015 C.ar      1 UNL1        0.0000
     10 C          35.1797  -16.8064    2.6902 C.ar      1 UNL1        0.0000
     11 C          35.8056  -16.5492    3.8742 C.ar      1 UNL1        0.0000
     12 C          35.8028  -17.5253    4.8343 C.2       1 UNL1        0.0000
     13 C          35.1250  -18.8145    4.7919 C.3       1 UNL1        0.0000
     14 C          34.4391  -19.0884    6.0848 C.ar      1 UNL1        0.0000
     15 C          35.2824  -19.4280    7.1577 C.ar      1 UNL1        0.0000
     16 C          34.7418  -19.7087    8.3897 C.ar      1 UNL1        0.0000
     17 C          35.6028  -20.0726    9.5375 C.2       1 UNL1        0.0000
     18 C          36.6314  -19.4190   11.6782 C.3       1 UNL1        0.0000
     19 C          37.2649  -18.1936   12.3011 C.3       1 UNL1        0.0000
     20 C          36.1160  -16.6624   10.7276 C.3       1 UNL1        0.0000
     21 C          35.1798  -17.8034   10.4229 C.3       1 UNL1        0.0000
     22 C          38.5997  -16.6511   10.8770 C.2       1 UNL1        0.0000
     23 C          39.9297  -17.0559   11.3399 C.3       1 UNL1        0.0000
     24 C          40.4721  -16.3145   12.5408 C.3       1 UNL1        0.0000
     25 C          41.0929  -16.1374   11.2261 C.3       1 UNL1        0.0000
     26 C          33.3915  -19.6766    8.6458 C.ar      1 UNL1        0.0000
     27 C          32.5669  -19.3442    7.5948 C.ar      1 UNL1        0.0000
     28 C          33.1152  -19.0582    6.3362 C.ar      1 UNL1        0.0000
     29 O          37.6428  -13.9975    5.3989 O.2       1 UNL1        0.0000
     30 O          38.5839  -15.7267    9.9879 O.2       1 UNL1        0.0000
     31 O          36.1448  -21.1975    9.6358 O.2       1 UNL1        0.0000
     32 F          32.9032  -19.9644    9.8873 F         1 UNL1        0.0000
     33 H          36.9068  -13.4573    3.1970 H         1 UNL1        0.0000
     34 H          35.7880  -13.9099    1.0854 H         1 UNL1        0.0000
     35 H          34.7107  -16.0436    0.8109 H         1 UNL1        0.0000
     36 H          34.7066  -17.7103    2.5342 H         1 UNL1        0.0000
     37 H          35.8441  -19.5845    4.6046 H         1 UNL1        0.0000
     38 H          34.3926  -18.7940    4.0118 H         1 UNL1        0.0000
     39 H          36.3043  -19.4666    7.0203 H         1 UNL1        0.0000
     40 H          37.4085  -20.0825   11.3599 H         1 UNL1        0.0000
     41 H          36.0042  -19.8709   12.4187 H         1 UNL1        0.0000
     42 H          38.2392  -18.4399   12.6677 H         1 UNL1        0.0000
     43 H          36.6624  -17.8484   13.1155 H         1 UNL1        0.0000
     44 H          36.3287  -16.1314    9.8235 H         1 UNL1        0.0000
     45 H          35.6473  -16.0120   11.4363 H         1 UNL1        0.0000
     46 H          34.8262  -17.6964    9.4186 H         1 UNL1        0.0000
     47 H          34.3818  -17.7622   11.1332 H         1 UNL1        0.0000
     48 H          39.7596  -18.0703   11.0461 H         1 UNL1        0.0000
     49 H          40.9904  -16.8482   13.3101 H         1 UNL1        0.0000
     50 H          40.0561  -15.6589   13.2771 H         1 UNL1        0.0000
     51 H          42.0687  -16.5363   11.0422 H         1 UNL1        0.0000
     52 H          41.3179  -15.2891   10.6153 H         1 UNL1        0.0000
     53 H          31.5445  -19.3053    7.7338 H         1 UNL1        0.0000
     54 H          32.4745  -18.8120    5.5651 H         1 UNL1        0.0000
     55 H          37.5228  -15.9179    7.0281 H         1 UNL1        0.0000
@<TRIPOS>BOND
     1    1   18 1
     2    1   21 1
     3    1   17 am
     4    2   19 1
     5    2   20 1
     6    2   22 am
     7    3    4 1
     8    3   12 2
     9    4    5 am
    10    4   55 1
    11    5   29 2
    12    5    6 1
    13    6    7 ar
    14    6   11 ar
    15    7    8 ar
    16    7   33 1
    17    8   34 1
    18    8    9 ar
    19    9   10 ar
    20    9   35 1
    21   10   11 ar
    22   10   36 1
    23   11   12 1
    24   12   13 1
    25   13   37 1
    26   13   38 1
    27   13   14 1
    28   14   15 ar
    29   14   28 ar
    30   15   39 1
    31   15   16 ar
    32   16   26 ar
    33   16   17 1
    34   17   31 2
    35   18   19 1
    36   18   40 1
    37   18   41 1
    38   19   42 1
    39   19   43 1
    40   20   21 1
    41   20   45 1
    42   20   44 1
    43   21   46 1
    44   21   47 1
    45   22   30 2
    46   22   23 1
    47   23   25 1
    48   23   24 1
    49   23   48 1
    50   24   25 1
    51   24   49 1
    52   24   50 1
    53   25   51 1
    54   25   52 1
    55   26   27 ar
    56   26   32 1
    57   27   28 ar
    58   27   53 1
    59   28   54 1
@<TRIPOS>SUBSTRUCTURE
1 UNL1 1
@<TRIPOS>COMMENT
olaparib
PLANTSproteinTorsions
57
1 87.4613
19 223.2609
33 151.7617
53 70.0882
108 36.5302
228 182.1113
405 253.8448
438 296.4650
479 180.3935
492 289.5178
546 96.0146
641 276.4286
776 335.7770
836 189.7910
905 99.8399
919 130.6219
988 223.6814
1139 207.4883
1332 355.8344
1388 172.8830
1606 157.8717
1642 121.0268
1655 333.0849
1759 115.4708
1952 200.5319
1986 150.2891
2049 273.6759
2207 221.1571
2220 217.5886
2267 106.8944
2305 304.0927
2319 245.2628
2601 162.2109
2653 246.5421
2695 223.7166
2741 106.7606
2763 264.0720
2818 129.4886
2847 289.6397
2913 351.9835
2968 88.3600
2982 133.8798
2996 17.7910
3051 138.2314
3105 163.0286
3240 68.3283
3280 100.5330
3290 247.4111
3365 15.4182
3426 157.7835
3477 164.4674
3534 11.0923
3661 94.4027
3685 136.1346
3741 112.9170
3784 86.4404
3862 248.9120
PLANTSmolcadARTstart hb
PLANTSmolcadARTstart HB
LINES
PLANTSmolcadARTstart HBCH
LINES
PLANTSmolcadARTstart HB-CHO
LINES
PLANTSmolcadARTend
PLANTSmolcadARTstart HB_WATER
LINES
PLANTSmolcadARTend

PLANTSmolcadARTend

