@<TRIPOS>MOLECULE
olaparib_entry_00001_conf_77_protein
164 107 56
SMALL
NO_CHARGES


@<TRIPOS>ATOM
      1 H          -1.1616  -17.6281   30.3358 H       764 LYS764      0.0000
      2 N          -1.8090  -17.0210   30.7870 N.4     764 LYS764      1.0000
      3 HZ1        -5.2387  -12.2609   33.0256 H       764 LYS764      0.0000
      4 NZ         -4.6160  -11.9740   33.7550 N.4     764 LYS764      1.0000
      5 HZ2        -4.9348  -12.3426   34.6284 H       764 LYS764      0.0000
      6 HZ3        -4.5980  -10.9750   33.8025 H       764 LYS764      0.0000
      7 H2         -1.8946  -17.2689   31.7479 H       764 LYS764      0.0000
      8 H3         -2.6971  -17.0793   30.3402 H       764 LYS764      0.0000
      9 HG          4.2063  -12.4079   30.7349 H       765 SER765      0.0000
     10 OG          4.1840  -13.1860   30.1070 O.3     765 SER765      0.0000
     11 HZ1         1.7987  -14.9273   39.1263 H       766 LYS766      0.0000
     12 NZ          1.4050  -15.2360   38.2610 N.4     766 LYS766      1.0000
     13 HZ2         1.4779  -14.5087   37.5802 H       766 LYS766      0.0000
     14 HZ3         0.4438  -15.4738   38.3960 H       766 LYS766      0.0000
     15 HZ1         1.3599   -4.4294   25.0439 H       769 LYS769      0.0000
     16 NZ          1.4680   -4.0750   25.9730 N.4     769 LYS769      1.0000
     17 HZ2         0.9777   -3.2068   26.0566 H       769 LYS769      0.0000
     18 HZ3         2.4393   -3.9278   26.1614 H       769 LYS769      0.0000
     19 HZ1        -0.7177   -9.7968   22.6381 H       776 LYS776      0.0000
     20 NZ          0.1170   -9.7850   23.1900 N.4     776 LYS776      1.0000
     21 HZ2        -0.1016  -10.0504   24.1294 H       776 LYS776      0.0000
     22 HZ3         0.5042   -8.8619   23.1866 H       776 LYS776      0.0000
     23 HH         14.8777  -14.1731   30.7259 H       794 TYR794      0.0000
     24 OH         13.9770  -13.7890   30.9260 O.3     794 TYR794      0.0000
     25 HZ1         8.4718  -22.4469   19.5124 H       796 LYS796      0.0000
     26 NZ          8.2050  -22.0980   20.4120 N.4     796 LYS796      1.0000
     27 HZ2         7.3114  -22.4726   20.6616 H       796 LYS796      0.0000
     28 HZ3         8.1492  -21.0996   20.3791 H       796 LYS796      0.0000
     29 HZ1        16.3827  -24.4059   27.7883 H       798 LYS798      0.0000
     30 NZ         16.9690  -24.6940   27.0300 N.4     798 LYS798      1.0000
     31 HZ2        16.6177  -25.5477   26.6440 H       798 LYS798      0.0000
     32 HZ3        17.9002  -24.8411   27.3670 H       798 LYS798      0.0000
     33 HG1        18.5173  -15.7704   24.8438 H       799 THR799      0.0000
     34 OG1        19.0880  -15.1290   25.3720 O.3     799 THR799      0.0000
     35 HZ1        18.9045   -8.0854   37.3303 H       802 LYS802      0.0000
     36 NZ         18.9140   -9.0730   37.1700 N.4     802 LYS802      1.0000
     37 HZ2        18.5332   -9.5430   37.9672 H       802 LYS802      0.0000
     38 HZ3        19.8554   -9.3775   37.0233 H       802 LYS802      0.0000
     39 HG         19.4735    3.6845   33.5053 H       808 SER808      0.0000
     40 OG         18.8290    3.0870   33.9750 O.3     808 SER808      0.0000
     41 HZ1        28.0804   13.7133   27.5223 H       816 LYS816      0.0000
     42 NZ         27.0940   13.5620   27.6020 N.4     816 LYS816      1.0000
     43 HZ2        26.6274   14.4445   27.6813 H       816 LYS816      0.0000
     44 HZ3        26.9072   13.0132   28.4175 H       816 LYS816      0.0000
     45 HZ1        20.6866   17.1832   22.7859 H       819 LYS819      0.0000
     46 NZ         20.4900   16.2240   22.9930 N.4     819 LYS819      1.0000
     47 HZ2        19.5067   16.1127   23.1422 H       819 LYS819      0.0000
     48 HZ3        20.9824   15.9571   23.8230 H       819 LYS819      0.0000
     49 HG1        27.1174   14.0745    7.2794 H       824 THR824      0.0000
     50 OG1        27.0480   13.5740    8.1490 O.3     824 THR824      0.0000
     51 HG1        27.1082    8.5883    5.4610 H       825 THR825      0.0000
     52 OG1        26.3170    9.0170    5.9110 O.3     825 THR825      0.0000
     53 HH         20.5099    4.5294    9.7760 H       829 TYR829      0.0000
     54 OH         19.7890    4.1170   10.3320 O.3     829 TYR829      0.0000
     55 HZ1        24.5619   -5.0385   34.5986 H       838 LYS838      0.0000
     56 NZ         23.9540   -4.4680   34.0450 N.4     838 LYS838      1.0000
     57 HZ2        24.4633   -3.6800   33.6978 H       838 LYS838      0.0000
     58 HZ3        23.1930   -4.1478   34.6103 H       838 LYS838      0.0000
     59 HZ1        34.9636  -19.4062   35.8520 H       849 LYS849      0.0000
     60 NZ         35.3740  -19.7320   34.9990 N.4     849 LYS849      1.0000
     61 HZ2        34.9171  -20.5743   34.7105 H       849 LYS849      0.0000
     62 HZ3        36.3466  -19.9154   35.1466 H       849 LYS849      0.0000
     63 HZ1        33.4801   -8.1902   30.6711 H       852 LYS852      0.0000
     64 NZ         34.3540   -8.6150   30.9110 N.4     852 LYS852      1.0000
     65 HZ2        35.1044   -8.0240   30.6110 H       852 LYS852      0.0000
     66 HZ3        34.4278   -9.5028   30.4560 H       852 LYS852      0.0000
     67 HG         19.8724   -9.4176   11.2536 H       864 SER864      0.0000
     68 OG         20.4070   -9.6170   12.0730 O.3     864 SER864      0.0000
     69 HG1        13.5452   -6.4714   14.3751 H       866 THR866      0.0000
     70 OG1        12.7710   -6.5990   13.7440 O.3     866 THR866      0.0000
     71 HG1        14.3308  -12.6810    9.1622 H       867 THR867      0.0000
     72 OG1        13.8710  -11.9580    9.6910 O.3     867 THR867      0.0000
     73 HG         18.1850  -18.4476   19.1071 H       874 SER874      0.0000
     74 OG         18.3140  -19.3790   19.4500 O.3     874 SER874      0.0000
     75 HG1        28.3473  -10.7380   -3.1226 H       887 THR887      0.0000
     76 OG1        28.7570  -10.8640   -2.2110 O.3     887 THR887      0.0000
     77 HH         26.9158  -11.2510    7.8493 H       889 TYR889      0.0000
     78 OH         27.4610  -11.9710    7.4180 O.3     889 TYR889      0.0000
     79 HZ1        31.4238  -18.0815    3.8796 H       893 LYS893      0.0000
     80 NZ         31.0380  -17.4100    3.2450 N.4     893 LYS893      1.0000
     81 HZ2        30.0710  -17.6159    3.0905 H       893 LYS893      0.0000
     82 HZ3        31.5297  -17.4555    2.3746 H       893 LYS893      0.0000
     83 HZ1        31.8770    0.3419    8.7585 H       903 LYS903      0.0000
     84 NZ         31.2940    1.1550    8.7570 N.4     903 LYS903      1.0000
     85 HZ2        31.3639    1.6124    7.8693 H       903 LYS903      0.0000
     86 HZ3        31.5957    1.7809    9.4772 H       903 LYS903      0.0000
     87 HG         25.8324   -2.0560   14.9261 H       904 SER904      0.0000
     88 OG         25.7970   -1.4170   14.1610 O.3     904 SER904      0.0000
     89 HH         27.0964   -2.1091    6.2875 H       907 TYR907      0.0000
     90 OH         26.8550   -3.0780    6.2560 O.3     907 TYR907      0.0000
     91 HG1        13.8458    1.1509    9.1978 H       910 THR910      0.0000
     92 OG1        14.0450    0.5090    9.9470 O.3     910 THR910      0.0000
     93 HG          8.3935   -1.0158    5.3483 H       911 SER911      0.0000
     94 OG          9.2550   -1.1060    5.8440 O.3     911 SER911      0.0000
     95 HH         47.1571   -6.4125    7.0994 H       930 TYR930      0.0000
     96 OH         47.6330   -6.7930    7.8910 O.3     930 TYR930      0.0000
     97 HZ1        46.2894    5.4219    4.7926 H       933 LYS933      0.0000
     98 NZ         45.5450    5.4620    5.4640 N.4     933 LYS933      1.0000
     99 HZ2        44.8380    6.0899    5.1277 H       933 LYS933      0.0000
    100 HZ3        45.9080    5.8143    6.3306 H       933 LYS933      0.0000
    101 HG         42.9432   -8.6753    3.4919 H       936 SER936      0.0000
    102 OG         43.3320   -7.7720    3.3190 O.3     936 SER936      0.0000
    103 HG         46.5107  -15.7226    5.0424 H       939 SER939      0.0000
    104 OG         45.8480  -15.5290    5.7620 O.3     939 SER939      0.0000
    105 HZ1        48.2088  -19.6906   13.3983 H       940 LYS940      0.0000
    106 NZ         48.4430  -19.1590   12.5840 N.4     940 LYS940      1.0000
    107 HZ2        48.1926  -19.6766   11.7653 H       940 LYS940      0.0000
    108 HZ3        49.4267  -18.9787   12.5760 H       940 LYS940      0.0000
    109 HZ1        55.4240  -15.9931   14.8200 H       943 LYS943      0.0000
    110 NZ         54.8780  -16.3930   14.0810 N.4     943 LYS943      1.0000
    111 HZ2        54.9445  -17.3918   14.1260 H       943 LYS943      0.0000
    112 HZ3        55.2374  -16.0789   13.1997 H       943 LYS943      0.0000
    113 HZ1        48.5156   -3.9975   16.7661 H       945 LYS945      0.0000
    114 NZ         47.9660   -3.9500   15.9300 N.4     945 LYS945      1.0000
    115 HZ2        48.3294   -3.2282   15.3381 H       945 LYS945      0.0000
    116 HZ3        47.0178   -3.7323   16.1698 H       945 LYS945      0.0000
    117 HZ1        39.5938    2.9854   16.7263 H       949 LYS949      0.0000
    118 NZ         39.0210    3.4460   16.0470 N.4     949 LYS949      1.0000
    119 HZ2        39.5799    4.0947   15.5282 H       949 LYS949      0.0000
    120 HZ3        38.2861    3.9399   16.5130 H       949 LYS949      0.0000
    121 HZ1        39.8679   11.0338    4.0720 H       953 LYS953      0.0000
    122 NZ         39.3720   11.7790    4.5190 N.4     953 LYS953      1.0000
    123 HZ2        39.3589   12.5779    3.9174 H       953 LYS953      0.0000
    124 HZ3        39.8291   12.0151    5.3767 H       953 LYS953      0.0000
    125 HG1        32.1070   12.1781    9.7331 H       954 THR954      0.0000
    126 OG1        32.8150   11.4890    9.5420 O.3     954 THR954      0.0000
    127 HG1        37.1788    7.7283   16.3456 H       955 THR955      0.0000
    128 OG1        36.2440    7.7040   15.9730 O.3     955 THR955      0.0000
    129 HG         36.3753   15.3713   24.6671 H       959 SER959      0.0000
    130 OG         36.7030   14.9300   23.8350 O.3     959 SER959      0.0000
    131 HG         35.3284    2.1721   33.1342 H       963 SER963      0.0000
    132 OG         34.6240    2.2350   32.4300 O.3     963 SER963      0.0000
    133 HG1        30.7976   15.1034   19.2716 H       973 THR973      0.0000
    134 OG1        29.9090   15.5570   19.1430 O.3     973 THR973      0.0000
    135 HG         38.7839   15.4865    9.4769 H       976 SER976      0.0000
    136 OG         38.2040   14.7390    9.8050 O.3     976 SER976      0.0000
    137 HG         40.0606    9.5828   10.3025 H       977 SER977      0.0000
    138 OG         39.0840    9.7360   10.4400 O.3     977 SER977      0.0000
    139 HG         38.0098    1.0120   -0.2292 H       983 SER983      0.0000
    140 OG         38.3060    1.7120    0.4210 O.3     983 SER983      0.0000
    141 HH         28.6445    9.7547    6.8800 H       986 TYR986      0.0000
    142 OH         28.1490    9.4530    7.6940 O.3     986 TYR986      0.0000
    143 HH         36.5510    2.4260   17.1592 H       989 TYR989      0.0000
    144 OH         35.5890    2.1920   17.2870 O.3     989 TYR989      0.0000
    145 HH         39.5010   -9.4945    9.5997 H       992 TYR992      0.0000
    146 OH         38.5210   -9.6720    9.6920 O.3     992 TYR992      0.0000
    147 HZ1        29.5116   -4.7075   30.2847 H      1000 LYS1000     0.0000
    148 NZ         28.7270   -4.9670   30.8480 N.4    1000 LYS1000     1.0000
    149 HZ2        28.5721   -4.2693   31.5478 H      1000 LYS1000     0.0000
    150 HZ3        28.9078   -5.8464   31.2869 H      1000 LYS1000     0.0000
    151 HH         24.8414   -0.8757   30.7539 H      1001 TYR1001     0.0000
    152 OH         24.3090   -1.7060   30.9120 O.3    1001 TYR1001     0.0000
    153 HZ1         7.1574   -3.1443   21.0559 H      1004 LYS1004     0.0000
    154 NZ          7.6740   -2.8190   21.8480 N.4    1004 LYS1004     1.0000
    155 HZ2         8.0444   -3.6010   22.3487 H      1004 LYS1004     0.0000
    156 HZ3         7.0692   -2.2953   22.4482 H      1004 LYS1004     0.0000
    157 HZ1         5.7397    6.0212   15.0036 H      1006 LYS1006     0.0000
    158 NZ          6.7120    6.1960   15.1620 N.4    1006 LYS1006     1.0000
    159 HZ2         6.9026    6.1517   16.1433 H      1006 LYS1006     0.0000
    160 HZ3         6.9470    7.1056   14.8182 H      1006 LYS1006     0.0000
    161 HZ1        16.4046   14.0850    9.8452 H      1010 LYS1010     0.0000
    162 NZ         16.4710   13.2710    9.2670 N.4    1010 LYS1010     1.0000
    163 HZ2        17.1313   12.6334    9.6641 H      1010 LYS1010     0.0000
    164 HZ3        16.7748   13.5374    8.3513 H      1010 LYS1010     0.0000
@<TRIPOS>BOND
     1    2    7 1
     2    2    8 1
     3    2    1 1
     4    4    3 1
     5    4    5 1
     6    4    6 1
     7   10    9 1
     8   12   11 1
     9   12   13 1
    10   12   14 1
    11   16   18 1
    12   16   15 1
    13   16   17 1
    14   20   19 1
    15   20   21 1
    16   20   22 1
    17   24   23 1
    18   26   28 1
    19   26   25 1
    20   26   27 1
    21   30   31 1
    22   30   32 1
    23   30   29 1
    24   34   33 1
    25   36   35 1
    26   36   37 1
    27   36   38 1
    28   40   39 1
    29   42   43 1
    30   42   44 1
    31   42   41 1
    32   46   45 1
    33   46   47 1
    34   46   48 1
    35   50   49 1
    36   52   51 1
    37   54   53 1
    38   56   55 1
    39   56   58 1
    40   56   57 1
    41   60   59 1
    42   60   61 1
    43   60   62 1
    44   64   63 1
    45   64   65 1
    46   64   66 1
    47   68   67 1
    48   70   69 1
    49   72   71 1
    50   74   73 1
    51   76   75 1
    52   78   77 1
    53   80   79 1
    54   80   81 1
    55   80   82 1
    56   84   83 1
    57   84   85 1
    58   84   86 1
    59   88   87 1
    60   90   89 1
    61   92   91 1
    62   94   93 1
    63   96   95 1
    64   98   97 1
    65   98   99 1
    66   98  100 1
    67  102  101 1
    68  104  103 1
    69  106  105 1
    70  106  107 1
    71  106  108 1
    72  110  112 1
    73  110  109 1
    74  110  111 1
    75  114  116 1
    76  114  113 1
    77  114  115 1
    78  118  117 1
    79  118  119 1
    80  118  120 1
    81  122  121 1
    82  122  123 1
    83  122  124 1
    84  126  125 1
    85  128  127 1
    86  130  129 1
    87  132  131 1
    88  134  133 1
    89  136  135 1
    90  138  137 1
    91  140  139 1
    92  142  141 1
    93  144  143 1
    94  146  145 1
    95  148  147 1
    96  148  149 1
    97  148  150 1
    98  152  151 1
    99  154  153 1
   100  154  156 1
   101  154  155 1
   102  158  157 1
   103  158  159 1
   104  158  160 1
   105  162  164 1
   106  162  161 1
   107  162  163 1
@<TRIPOS>SUBSTRUCTURE
764 LYS764 1
765 SER765 9
766 LYS766 11
769 LYS769 15
776 LYS776 19
794 TYR794 23
796 LYS796 25
798 LYS798 29
799 THR799 33
802 LYS802 35
808 SER808 39
816 LYS816 41
819 LYS819 45
824 THR824 49
825 THR825 51
829 TYR829 53
838 LYS838 55
849 LYS849 59
852 LYS852 63
864 SER864 67
866 THR866 69
867 THR867 71
874 SER874 73
887 THR887 75
889 TYR889 77
893 LYS893 79
903 LYS903 83
904 SER904 87
907 TYR907 89
910 THR910 91
911 SER911 93
930 TYR930 95
933 LYS933 97
936 SER936 101
939 SER939 103
940 LYS940 105
943 LYS943 109
945 LYS945 113
949 LYS949 117
953 LYS953 121
954 THR954 125
955 THR955 127
959 SER959 129
963 SER963 131
973 THR973 133
976 SER976 135
977 SER977 137
983 SER983 139
986 TYR986 141
989 TYR989 143
992 TYR992 145
1000 LYS1000 147
1001 TYR1001 151
1004 LYS1004 153
1006 LYS1006 157
1010 LYS1010 161
@<TRIPOS>COMMENT
