@<TRIPOS>MOLECULE
olaparib_entry_00001_conf_36
55 59 1
SMALL
NO_CHARGES


@<TRIPOS>ATOM
      1 N          31.4937  -21.4334   10.3519 N.am      1 UNL1        0.0000
      2 N          33.4750  -20.4092    9.0200 N.am      1 UNL1        0.0000
      3 N          32.2221  -21.0269   16.3094 N.2       1 UNL1        0.0000
      4 N          32.6100  -21.8606   17.2437 N.am      1 UNL1        0.0000
      5 C          33.8330  -21.8332   17.7918 C.2       1 UNL1        0.0000
      6 C          34.7343  -20.8837   17.3562 C.ar      1 UNL1        0.0000
      7 C          36.0268  -20.8237   17.8786 C.ar      1 UNL1        0.0000
      8 C          36.9172  -19.8804   17.4130 C.ar      1 UNL1        0.0000
      9 C          36.4660  -19.0270   16.4284 C.ar      1 UNL1        0.0000
     10 C          35.1866  -19.0754   15.9007 C.ar      1 UNL1        0.0000
     11 C          34.3125  -20.0110   16.3701 C.ar      1 UNL1        0.0000
     12 C          33.0573  -20.0566   15.8253 C.2       1 UNL1        0.0000
     13 C          32.4822  -19.1540   14.8366 C.3       1 UNL1        0.0000
     14 C          31.2251  -19.7228   14.2766 C.ar      1 UNL1        0.0000
     15 C          31.2972  -20.1507   12.9390 C.ar      1 UNL1        0.0000
     16 C          30.1850  -20.6808   12.3301 C.ar      1 UNL1        0.0000
     17 C          30.2282  -21.1369   10.9224 C.2       1 UNL1        0.0000
     18 C          31.5753  -21.8805    8.9990 C.3       1 UNL1        0.0000
     19 C          32.9048  -21.5517    8.3545 C.3       1 UNL1        0.0000
     20 C          33.7985  -20.5610   10.4427 C.3       1 UNL1        0.0000
     21 C          32.6846  -21.2737   11.1656 C.3       1 UNL1        0.0000
     22 C          33.7171  -19.2001    8.3614 C.2       1 UNL1        0.0000
     23 C          33.4372  -18.8904    6.9568 C.3       1 UNL1        0.0000
     24 C          34.0438  -19.8244    5.9342 C.3       1 UNL1        0.0000
     25 C          34.5190  -18.4431    6.0406 C.3       1 UNL1        0.0000
     26 C          28.9737  -20.8234   12.9645 C.ar      1 UNL1        0.0000
     27 C          28.9043  -20.4042   14.2738 C.ar      1 UNL1        0.0000
     28 C          30.0369  -19.8619   14.8978 C.ar      1 UNL1        0.0000
     29 O          34.2228  -22.6232   18.6895 O.2       1 UNL1        0.0000
     30 O          34.2390  -18.2465    9.0421 O.2       1 UNL1        0.0000
     31 O          29.1924  -21.2669   10.2303 O.2       1 UNL1        0.0000
     32 F          27.8973  -21.3556   12.3156 F         1 UNL1        0.0000
     33 H          36.3164  -21.4861   18.6151 H         1 UNL1        0.0000
     34 H          37.8772  -19.8162   17.7839 H         1 UNL1        0.0000
     35 H          37.1171  -18.3142   16.0650 H         1 UNL1        0.0000
     36 H          34.8980  -18.4133   15.1633 H         1 UNL1        0.0000
     37 H          33.1853  -19.0057   14.0437 H         1 UNL1        0.0000
     38 H          32.2562  -18.2214   15.3105 H         1 UNL1        0.0000
     39 H          32.1826  -20.0667   12.4160 H         1 UNL1        0.0000
     40 H          30.7958  -21.4109    8.4356 H         1 UNL1        0.0000
     41 H          31.4730  -22.9461    9.0040 H         1 UNL1        0.0000
     42 H          32.7567  -21.3280    7.3190 H         1 UNL1        0.0000
     43 H          33.5660  -22.3890    8.4398 H         1 UNL1        0.0000
     44 H          33.9374  -19.5937   10.8781 H         1 UNL1        0.0000
     45 H          34.6942  -21.1393   10.5345 H         1 UNL1        0.0000
     46 H          32.4275  -20.7097   12.0379 H         1 UNL1        0.0000
     47 H          33.0371  -22.2523   11.4130 H         1 UNL1        0.0000
     48 H          32.4701  -18.5033    7.2003 H         1 UNL1        0.0000
     49 H          33.4721  -20.1298    5.0827 H         1 UNL1        0.0000
     50 H          34.5048  -20.7894    5.9697 H         1 UNL1        0.0000
     51 H          34.2992  -17.7449    5.2601 H         1 UNL1        0.0000
     52 H          35.4785  -17.9928    6.1815 H         1 UNL1        0.0000
     53 H          28.0177  -20.4894   14.7963 H         1 UNL1        0.0000
     54 H          29.9576  -19.5549   15.8802 H         1 UNL1        0.0000
     55 H          31.9708  -22.5403   17.5589 H         1 UNL1        0.0000
@<TRIPOS>BOND
     1    1   18 1
     2    1   21 1
     3    1   17 am
     4    2   19 1
     5    2   20 1
     6    2   22 am
     7    3    4 1
     8    3   12 2
     9    4    5 am
    10    4   55 1
    11    5   29 2
    12    5    6 1
    13    6    7 ar
    14    6   11 ar
    15    7    8 ar
    16    7   33 1
    17    8   34 1
    18    8    9 ar
    19    9   10 ar
    20    9   35 1
    21   10   11 ar
    22   10   36 1
    23   11   12 1
    24   12   13 1
    25   13   37 1
    26   13   38 1
    27   13   14 1
    28   14   15 ar
    29   14   28 ar
    30   15   39 1
    31   15   16 ar
    32   16   26 ar
    33   16   17 1
    34   17   31 2
    35   18   19 1
    36   18   40 1
    37   18   41 1
    38   19   42 1
    39   19   43 1
    40   20   21 1
    41   20   45 1
    42   20   44 1
    43   21   46 1
    44   21   47 1
    45   22   30 2
    46   22   23 1
    47   23   25 1
    48   23   24 1
    49   23   48 1
    50   24   25 1
    51   24   49 1
    52   24   50 1
    53   25   51 1
    54   25   52 1
    55   26   27 ar
    56   26   32 1
    57   27   28 ar
    58   27   53 1
    59   28   54 1
@<TRIPOS>SUBSTRUCTURE
1 UNL1 1
@<TRIPOS>COMMENT
olaparib
PLANTSproteinTorsions
57
1 341.9721
19 269.3533
33 163.4939
53 107.2100
108 226.7064
228 172.0448
405 30.5804
438 306.6792
479 21.4695
492 90.5628
546 252.1926
641 257.9130
776 6.8108
836 4.8200
905 10.1954
919 204.8052
988 233.0726
1139 82.7122
1332 277.6830
1388 67.9587
1606 105.0195
1642 123.8232
1655 323.9823
1759 334.5733
1952 287.8576
1986 85.5678
2049 12.5490
2207 306.6950
2220 299.3257
2267 90.5758
2305 51.7786
2319 258.6194
2601 305.5638
2653 126.2720
2695 275.5860
2741 144.8669
2763 281.0987
2818 105.2632
2847 280.8592
2913 344.4514
2968 166.8368
2982 74.0876
2996 79.3223
3051 239.4823
3105 146.3506
3240 266.5369
3280 60.5426
3290 34.2141
3365 258.2676
3426 23.8890
3477 210.9612
3534 333.2204
3661 315.5896
3685 281.9577
3741 224.7081
3784 8.0693
3862 227.2743
PLANTSmolcadARTstart hb
PLANTSmolcadARTstart HB
LINES
PLANTSmolcadARTstart HBCH
LINES
PLANTSmolcadARTstart HB-CHO
LINES
PLANTSmolcadARTend
PLANTSmolcadARTstart HB_WATER
LINES
PLANTSmolcadARTend

PLANTSmolcadARTend

