@<TRIPOS>MOLECULE
olaparib_entry_00001_conf_92
55 59 1
SMALL
NO_CHARGES


@<TRIPOS>ATOM
      1 N          22.4137  -21.9463    8.3745 N.am      1 UNL1        0.0000
      2 N          22.0412  -24.5030    8.1048 N.am      1 UNL1        0.0000
      3 N          29.1032  -22.0762    9.8763 N.2       1 UNL1        0.0000
      4 N          30.3629  -21.7560    9.7053 N.am      1 UNL1        0.0000
      5 C          31.0850  -21.0969   10.6224 C.2       1 UNL1        0.0000
      6 C          30.4795  -20.7335   11.8077 C.ar      1 UNL1        0.0000
      7 C          31.1793  -20.0287   12.7879 C.ar      1 UNL1        0.0000
      8 C          30.5479  -19.6574   13.9554 C.ar      1 UNL1        0.0000
      9 C          29.2225  -20.0131   14.0899 C.ar      1 UNL1        0.0000
     10 C          28.5158  -20.7120   13.1255 C.ar      1 UNL1        0.0000
     11 C          29.1506  -21.0769   11.9750 C.ar      1 UNL1        0.0000
     12 C          28.4326  -21.7518   11.0245 C.2       1 UNL1        0.0000
     13 C          27.0570  -22.2233   11.1155 C.3       1 UNL1        0.0000
     14 C          26.1077  -21.1509   10.7079 C.ar      1 UNL1        0.0000
     15 C          25.2095  -21.4950    9.6820 C.ar      1 UNL1        0.0000
     16 C          24.3011  -20.5682    9.2297 C.ar      1 UNL1        0.0000
     17 C          23.3450  -20.8990    8.1490 C.2       1 UNL1        0.0000
     18 C          21.4730  -22.2909    7.3580 C.3       1 UNL1        0.0000
     19 C          21.0182  -23.7318    7.4476 C.3       1 UNL1        0.0000
     20 C          22.3571  -24.1441    9.4916 C.3       1 UNL1        0.0000
     21 C          22.4405  -22.6472    9.6449 C.3       1 UNL1        0.0000
     22 C          22.7167  -25.5495    7.4701 C.2       1 UNL1        0.0000
     23 C          22.5258  -26.0154    6.0941 C.3       1 UNL1        0.0000
     24 C          21.1757  -26.6166    5.7748 C.3       1 UNL1        0.0000
     25 C          22.3715  -27.4622    5.7895 C.3       1 UNL1        0.0000
     26 C          24.2127  -19.2914    9.7316 C.ar      1 UNL1        0.0000
     27 C          25.0924  -18.9557   10.7358 C.ar      1 UNL1        0.0000
     28 C          26.0213  -19.8985   11.1989 C.ar      1 UNL1        0.0000
     29 O          32.2940  -20.7823   10.4772 O.2       1 UNL1        0.0000
     30 O          23.6034  -26.1820    8.1476 O.2       1 UNL1        0.0000
     31 O          23.3353  -20.2881    7.0556 O.2       1 UNL1        0.0000
     32 F          23.2928  -18.4068    9.2479 F         1 UNL1        0.0000
     33 H          32.1711  -19.7856   12.6390 H         1 UNL1        0.0000
     34 H          31.0441  -19.1367   14.6943 H         1 UNL1        0.0000
     35 H          28.7307  -19.7437   14.9557 H         1 UNL1        0.0000
     36 H          27.5235  -20.9537   13.2747 H         1 UNL1        0.0000
     37 H          26.8496  -22.5122   12.1248 H         1 UNL1        0.0000
     38 H          26.9342  -23.0591   10.4584 H         1 UNL1        0.0000
     39 H          25.2327  -22.4405    9.2697 H         1 UNL1        0.0000
     40 H          21.9287  -22.1340    6.4024 H         1 UNL1        0.0000
     41 H          20.6108  -21.6706    7.4918 H         1 UNL1        0.0000
     42 H          20.8525  -24.1181    6.4639 H         1 UNL1        0.0000
     43 H          20.1057  -23.7900    8.0039 H         1 UNL1        0.0000
     44 H          23.2966  -24.5779    9.7630 H         1 UNL1        0.0000
     45 H          21.5818  -24.5131   10.1301 H         1 UNL1        0.0000
     46 H          23.3539  -22.4055   10.1475 H         1 UNL1        0.0000
     47 H          21.5836  -22.3334   10.2021 H         1 UNL1        0.0000
     48 H          23.1601  -25.2445    5.7098 H         1 UNL1        0.0000
     49 H          20.6935  -26.3873    4.8474 H         1 UNL1        0.0000
     50 H          20.2237  -26.6417    6.2626 H         1 UNL1        0.0000
     51 H          22.7545  -27.8554    4.8710 H         1 UNL1        0.0000
     52 H          22.6410  -28.3648    6.2953 H         1 UNL1        0.0000
     53 H          25.0678  -18.0093   11.1479 H         1 UNL1        0.0000
     54 H          26.6699  -19.6209   11.9525 H         1 UNL1        0.0000
     55 H          30.8005  -22.0132    8.8613 H         1 UNL1        0.0000
@<TRIPOS>BOND
     1    1   18 1
     2    1   21 1
     3    1   17 am
     4    2   19 1
     5    2   20 1
     6    2   22 am
     7    3    4 1
     8    3   12 2
     9    4    5 am
    10    4   55 1
    11    5   29 2
    12    5    6 1
    13    6    7 ar
    14    6   11 ar
    15    7    8 ar
    16    7   33 1
    17    8   34 1
    18    8    9 ar
    19    9   10 ar
    20    9   35 1
    21   10   11 ar
    22   10   36 1
    23   11   12 1
    24   12   13 1
    25   13   37 1
    26   13   38 1
    27   13   14 1
    28   14   15 ar
    29   14   28 ar
    30   15   39 1
    31   15   16 ar
    32   16   26 ar
    33   16   17 1
    34   17   31 2
    35   18   19 1
    36   18   40 1
    37   18   41 1
    38   19   42 1
    39   19   43 1
    40   20   21 1
    41   20   45 1
    42   20   44 1
    43   21   46 1
    44   21   47 1
    45   22   30 2
    46   22   23 1
    47   23   25 1
    48   23   24 1
    49   23   48 1
    50   24   25 1
    51   24   49 1
    52   24   50 1
    53   25   51 1
    54   25   52 1
    55   26   27 ar
    56   26   32 1
    57   27   28 ar
    58   27   53 1
    59   28   54 1
@<TRIPOS>SUBSTRUCTURE
1 UNL1 1
@<TRIPOS>COMMENT
olaparib
PLANTSproteinTorsions
57
1 43.0814
19 84.7553
33 357.8091
53 14.5898
108 6.9305
228 112.9576
405 173.4366
438 50.5547
479 8.9324
492 81.6493
546 322.6237
641 262.8923
776 15.7951
836 121.3888
905 0.8581
919 202.2779
988 244.1654
1139 139.7341
1332 93.6767
1388 168.3757
1606 228.9133
1642 20.1298
1655 182.5946
1759 147.0585
1952 293.7249
1986 198.9890
2049 277.7254
2207 159.7318
2220 355.0591
2267 118.2271
2305 247.8517
2319 172.9390
2601 326.1835
2653 133.1667
2695 35.4411
2741 18.6974
2763 32.3412
2818 170.2005
2847 358.5434
2913 153.2803
2968 208.3986
2982 217.4461
2996 31.8069
3051 204.2719
3105 205.4223
3240 335.9055
3280 128.2643
3290 254.4171
3365 148.0895
3426 205.9511
3477 280.3430
3534 135.9557
3661 262.7843
3685 59.6176
3741 136.1891
3784 190.1737
3862 124.4791
PLANTSmolcadARTstart hb
PLANTSmolcadARTstart HB
LINES
PLANTSmolcadARTstart HBCH
LINES
PLANTSmolcadARTstart HB-CHO
LINES
PLANTSmolcadARTend
PLANTSmolcadARTstart HB_WATER
LINES
PLANTSmolcadARTend

PLANTSmolcadARTend

