@<TRIPOS>MOLECULE
olaparib_entry_00001_conf_98
55 59 1
SMALL
NO_CHARGES


@<TRIPOS>ATOM
      1 N          35.4744  -19.1836   10.0871 N.am      1 UNL1        0.0000
      2 N          36.9807  -17.3570   11.1564 N.am      1 UNL1        0.0000
      3 N          34.8897  -17.9585    2.7400 N.2       1 UNL1        0.0000
      4 N          34.7285  -16.9056    1.9758 N.am      1 UNL1        0.0000
      5 C          35.6432  -15.9323    1.8628 C.2       1 UNL1        0.0000
      6 C          36.8151  -16.0361    2.5836 C.ar      1 UNL1        0.0000
      7 C          37.7918  -15.0417    2.5182 C.ar      1 UNL1        0.0000
      8 C          38.9455  -15.1561    3.2635 C.ar      1 UNL1        0.0000
      9 C          39.0700  -16.2786    4.0546 C.ar      1 UNL1        0.0000
     10 C          38.1089  -17.2729    4.1294 C.ar      1 UNL1        0.0000
     11 C          36.9721  -17.1512    3.3859 C.ar      1 UNL1        0.0000
     12 C          36.0244  -18.1343    3.4850 C.2       1 UNL1        0.0000
     13 C          36.1067  -19.3780    4.2395 C.3       1 UNL1        0.0000
     14 C          35.1534  -19.3608    5.3833 C.ar      1 UNL1        0.0000
     15 C          35.6916  -19.7399    6.6260 C.ar      1 UNL1        0.0000
     16 C          34.8872  -19.7654    7.7400 C.ar      1 UNL1        0.0000
     17 C          35.4232  -20.1633    9.0612 C.2       1 UNL1        0.0000
     18 C          35.9804  -19.5308   11.3757 C.3       1 UNL1        0.0000
     19 C          36.5567  -18.3431   12.1161 C.3       1 UNL1        0.0000
     20 C          35.9425  -16.7718   10.3010 C.3       1 UNL1        0.0000
     21 C          35.0065  -17.8407    9.7983 C.3       1 UNL1        0.0000
     22 C          38.3149  -16.9606   11.0267 C.2       1 UNL1        0.0000
     23 C          39.4607  -17.4592   11.7920 C.3       1 UNL1        0.0000
     24 C          39.8782  -16.6289   12.9846 C.3       1 UNL1        0.0000
     25 C          40.7498  -16.7192   11.8111 C.3       1 UNL1        0.0000
     26 C          33.5533  -19.4337    7.7148 C.ar      1 UNL1        0.0000
     27 C          33.0275  -19.0628    6.4979 C.ar      1 UNL1        0.0000
     28 C          33.8453  -19.0367    5.3590 C.ar      1 UNL1        0.0000
     29 O          35.5073  -14.9160    1.1344 O.2       1 UNL1        0.0000
     30 O          38.5867  -16.0661   10.1485 O.2       1 UNL1        0.0000
     31 O          35.8272  -21.3255    9.2957 O.2       1 UNL1        0.0000
     32 F          32.7958  -19.4755    8.8493 F         1 UNL1        0.0000
     33 H          37.6508  -14.2196    1.9104 H         1 UNL1        0.0000
     34 H          39.6816  -14.4348    3.2314 H         1 UNL1        0.0000
     35 H          39.9254  -16.3832    4.6216 H         1 UNL1        0.0000
     36 H          38.2501  -18.0942    4.7384 H         1 UNL1        0.0000
     37 H          37.1023  -19.4984    4.6127 H         1 UNL1        0.0000
     38 H          35.8527  -20.1919    3.5925 H         1 UNL1        0.0000
     39 H          36.6876  -19.9986    6.7011 H         1 UNL1        0.0000
     40 H          36.7491  -20.2656   11.2551 H         1 UNL1        0.0000
     41 H          35.1615  -19.9062   11.9540 H         1 UNL1        0.0000
     42 H          37.3940  -18.6574   12.7029 H         1 UNL1        0.0000
     43 H          35.8143  -17.9242   12.7633 H         1 UNL1        0.0000
     44 H          36.4046  -16.2884    9.4659 H         1 UNL1        0.0000
     45 H          35.3808  -16.0634   10.8734 H         1 UNL1        0.0000
     46 H          34.9062  -17.7360    8.7381 H         1 UNL1        0.0000
     47 H          34.0722  -17.7118   10.3020 H         1 UNL1        0.0000
     48 H          39.1969  -18.4757   11.5883 H         1 UNL1        0.0000
     49 H          40.1597  -17.1088   13.8988 H         1 UNL1        0.0000
     50 H          39.4374  -15.8286   13.5416 H         1 UNL1        0.0000
     51 H          41.6714  -17.2592   11.8750 H         1 UNL1        0.0000
     52 H          41.2084  -16.0011   11.1651 H         1 UNL1        0.0000
     53 H          32.0308  -18.8036    6.4241 H         1 UNL1        0.0000
     54 H          33.4259  -18.7552    4.4588 H         1 UNL1        0.0000
     55 H          33.8941  -16.8263    1.4587 H         1 UNL1        0.0000
@<TRIPOS>BOND
     1    1   18 1
     2    1   21 1
     3    1   17 am
     4    2   19 1
     5    2   20 1
     6    2   22 am
     7    3    4 1
     8    3   12 2
     9    4    5 am
    10    4   55 1
    11    5   29 2
    12    5    6 1
    13    6    7 ar
    14    6   11 ar
    15    7    8 ar
    16    7   33 1
    17    8   34 1
    18    8    9 ar
    19    9   10 ar
    20    9   35 1
    21   10   11 ar
    22   10   36 1
    23   11   12 1
    24   12   13 1
    25   13   37 1
    26   13   38 1
    27   13   14 1
    28   14   15 ar
    29   14   28 ar
    30   15   39 1
    31   15   16 ar
    32   16   26 ar
    33   16   17 1
    34   17   31 2
    35   18   19 1
    36   18   40 1
    37   18   41 1
    38   19   42 1
    39   19   43 1
    40   20   21 1
    41   20   45 1
    42   20   44 1
    43   21   46 1
    44   21   47 1
    45   22   30 2
    46   22   23 1
    47   23   25 1
    48   23   24 1
    49   23   48 1
    50   24   25 1
    51   24   49 1
    52   24   50 1
    53   25   51 1
    54   25   52 1
    55   26   27 ar
    56   26   32 1
    57   27   28 ar
    58   27   53 1
    59   28   54 1
@<TRIPOS>SUBSTRUCTURE
1 UNL1 1
@<TRIPOS>COMMENT
olaparib
PLANTSproteinTorsions
57
1 107.0286
19 277.2915
33 67.4401
53 63.3384
108 5.8445
228 42.5158
405 114.0021
438 45.3882
479 354.8795
492 88.7645
546 79.1950
641 156.2659
776 112.1267
836 152.0491
905 162.0889
919 79.4842
988 81.8523
1139 205.0122
1332 71.6808
1388 229.1144
1606 298.4612
1642 148.8661
1655 75.1995
1759 353.3568
1952 229.5444
1986 26.9572
2049 221.2867
2207 306.6506
2220 109.1314
2267 136.5584
2305 304.0924
2319 13.4114
2601 228.4167
2653 227.8688
2695 329.0578
2741 291.0279
2763 47.4375
2818 253.4431
2847 207.8794
2913 54.5860
2968 344.6689
2982 242.9628
2996 231.5919
3051 128.2167
3105 227.9743
3240 254.5171
3280 136.5168
3290 77.4304
3365 150.5723
3426 232.1024
3477 276.0488
3534 238.9696
3661 33.3905
3685 34.6238
3741 177.6434
3784 113.9119
3862 259.0001
PLANTSmolcadARTstart hb
PLANTSmolcadARTstart HB
LINES
PLANTSmolcadARTstart HBCH
LINES
PLANTSmolcadARTstart HB-CHO
LINES
PLANTSmolcadARTend
PLANTSmolcadARTstart HB_WATER
LINES
PLANTSmolcadARTend

PLANTSmolcadARTend

