@<TRIPOS>MOLECULE
olaparib_entry_00001_conf_07
55 59 1
SMALL
NO_CHARGES


@<TRIPOS>ATOM
      1 N          24.4670   -6.5221    3.3976 N.am      1 UNL1        0.0000
      2 N          23.7937   -4.1894    2.4736 N.am      1 UNL1        0.0000
      3 N          25.1476   -6.8958   10.3231 N.2       1 UNL1        0.0000
      4 N          24.9468   -6.0425   11.2979 N.am      1 UNL1        0.0000
      5 C          25.7162   -4.9638   11.5008 C.2       1 UNL1        0.0000
      6 C          26.7743   -4.7332   10.6458 C.ar      1 UNL1        0.0000
      7 C          27.6186   -3.6365   10.8235 C.ar      1 UNL1        0.0000
      8 C          28.6823   -3.4378    9.9699 C.ar      1 UNL1        0.0000
      9 C          28.8559   -4.3621    8.9615 C.ar      1 UNL1        0.0000
     10 C          28.0262   -5.4549    8.7736 C.ar      1 UNL1        0.0000
     11 C          26.9751   -5.6410    9.6224 C.ar      1 UNL1        0.0000
     12 C          26.1751   -6.7359    9.4333 C.2       1 UNL1        0.0000
     13 C          26.2478   -7.7172    8.3586 C.3       1 UNL1        0.0000
     14 C          24.9513   -7.7933    7.6304 C.ar      1 UNL1        0.0000
     15 C          25.0392   -7.7258    6.2285 C.ar      1 UNL1        0.0000
     16 C          23.8952   -7.7775    5.4686 C.ar      1 UNL1        0.0000
     17 C          23.9546   -7.7053    3.9913 C.2       1 UNL1        0.0000
     18 C          24.5445   -6.4171    1.9763 C.3       1 UNL1        0.0000
     19 C          24.4859   -4.9841    1.4926 C.3       1 UNL1        0.0000
     20 C          24.4071   -4.0903    3.8024 C.3       1 UNL1        0.0000
     21 C          24.9039   -5.4382    4.2579 C.3       1 UNL1        0.0000
     22 C          22.5904   -3.5343    2.1958 C.2       1 UNL1        0.0000
     23 C          21.8509   -3.5484    0.9309 C.3       1 UNL1        0.0000
     24 C          20.4791   -4.1832    0.9675 C.3       1 UNL1        0.0000
     25 C          21.5659   -4.8248    0.2243 C.3       1 UNL1        0.0000
     26 C          22.6361   -7.8951    6.0081 C.ar      1 UNL1        0.0000
     27 C          22.5513   -7.9611    7.3804 C.ar      1 UNL1        0.0000
     28 C          23.7165   -7.9075    8.1588 C.ar      1 UNL1        0.0000
     29 O          25.5388   -4.1337   12.4289 O.2       1 UNL1        0.0000
     30 O          22.0598   -2.8417    3.1360 O.2       1 UNL1        0.0000
     31 O          23.5706   -8.6472    3.2604 O.2       1 UNL1        0.0000
     32 F          21.5298   -7.9416    5.2103 F         1 UNL1        0.0000
     33 H          27.4462   -2.9728   11.5947 H         1 UNL1        0.0000
     34 H          29.3195   -2.6347   10.0807 H         1 UNL1        0.0000
     35 H          29.6469   -4.2327    8.3122 H         1 UNL1        0.0000
     36 H          28.1999   -6.1190    8.0028 H         1 UNL1        0.0000
     37 H          26.4760   -8.6770    8.7729 H         1 UNL1        0.0000
     38 H          27.0116   -7.4197    7.6705 H         1 UNL1        0.0000
     39 H          25.9600   -7.6373    5.7716 H         1 UNL1        0.0000
     40 H          23.7259   -6.9574    1.5479 H         1 UNL1        0.0000
     41 H          25.4878   -6.8226    1.6732 H         1 UNL1        0.0000
     42 H          23.9630   -4.9407    0.5604 H         1 UNL1        0.0000
     43 H          25.4780   -4.6073    1.3544 H         1 UNL1        0.0000
     44 H          23.6808   -3.7294    4.5002 H         1 UNL1        0.0000
     45 H          25.2369   -3.4165    3.7515 H         1 UNL1        0.0000
     46 H          24.5387   -5.6207    5.2470 H         1 UNL1        0.0000
     47 H          25.9723   -5.4142    4.2254 H         1 UNL1        0.0000
     48 H          22.2855   -2.6190    0.6281 H         1 UNL1        0.0000
     49 H          19.6653   -3.7296    0.4409 H         1 UNL1        0.0000
     50 H          19.8067   -4.4887    1.7417 H         1 UNL1        0.0000
     51 H          21.5375   -4.8450   -0.8452 H         1 UNL1        0.0000
     52 H          22.0047   -5.7998    0.2371 H         1 UNL1        0.0000
     53 H          21.6291   -8.0502    7.8364 H         1 UNL1        0.0000
     54 H          23.6247   -7.9587    9.1857 H         1 UNL1        0.0000
     55 H          24.1929   -6.2018   11.9111 H         1 UNL1        0.0000
@<TRIPOS>BOND
     1    1   18 1
     2    1   21 1
     3    1   17 am
     4    2   19 1
     5    2   20 1
     6    2   22 am
     7    3    4 1
     8    3   12 2
     9    4    5 am
    10    4   55 1
    11    5   29 2
    12    5    6 1
    13    6    7 ar
    14    6   11 ar
    15    7    8 ar
    16    7   33 1
    17    8   34 1
    18    8    9 ar
    19    9   10 ar
    20    9   35 1
    21   10   11 ar
    22   10   36 1
    23   11   12 1
    24   12   13 1
    25   13   37 1
    26   13   38 1
    27   13   14 1
    28   14   15 ar
    29   14   28 ar
    30   15   39 1
    31   15   16 ar
    32   16   26 ar
    33   16   17 1
    34   17   31 2
    35   18   19 1
    36   18   40 1
    37   18   41 1
    38   19   42 1
    39   19   43 1
    40   20   21 1
    41   20   45 1
    42   20   44 1
    43   21   46 1
    44   21   47 1
    45   22   30 2
    46   22   23 1
    47   23   25 1
    48   23   24 1
    49   23   48 1
    50   24   25 1
    51   24   49 1
    52   24   50 1
    53   25   51 1
    54   25   52 1
    55   26   27 ar
    56   26   32 1
    57   27   28 ar
    58   27   53 1
    59   28   54 1
@<TRIPOS>SUBSTRUCTURE
1 UNL1 1
@<TRIPOS>COMMENT
olaparib
PLANTSproteinTorsions
57
1 308.5358
19 296.9373
33 80.3514
53 37.8117
108 102.6409
228 69.2963
405 252.4947
438 41.5457
479 267.9016
492 157.4174
546 156.9373
641 126.7700
776 37.9326
836 223.5534
905 178.9724
919 251.4911
988 52.0263
1139 176.5867
1332 80.8165
1388 182.8894
1606 273.1908
1642 196.0190
1655 310.8584
1759 42.8744
1952 48.7256
1986 260.7487
2049 149.0403
2207 253.4038
2220 14.7789
2267 252.1185
2305 17.0219
2319 306.8559
2601 226.5539
2653 134.8345
2695 59.4312
2741 248.6712
2763 25.0901
2818 25.0929
2847 29.3407
2913 264.2399
2968 325.2562
2982 23.8021
2996 311.9590
3051 65.7146
3105 166.3412
3240 33.1555
3280 336.7098
3290 324.3687
3365 285.1457
3426 217.2232
3477 240.0228
3534 134.8169
3661 104.1088
3685 339.5757
3741 202.1246
3784 49.6090
3862 196.2990
PLANTSmolcadARTstart hb
PLANTSmolcadARTstart HB
LINES
24.1929 -6.20181 11.9111 22.481 -6.115 12.416 0 255 0 5
25.5388 -4.13372 12.4289 23.968 -3.983 13.835 0 255 0 5
PLANTSmolcadARTstart HBCH
LINES
PLANTSmolcadARTstart HB-CHO
LINES
22.0598 -2.84168 3.13605 19.86 -3.79 3.736 0 255 255 5
PLANTSmolcadARTend
PLANTSmolcadARTstart HB_WATER
LINES
PLANTSmolcadARTend

PLANTSmolcadARTend

