@<TRIPOS>MOLECULE
olaparib_entry_00001_conf_96
55 59 1
SMALL
NO_CHARGES


@<TRIPOS>ATOM
      1 N          22.4821   -8.5554    6.4532 N.am      1 UNL1        0.0000
      2 N          24.0512   -8.1137    4.4305 N.am      1 UNL1        0.0000
      3 N          22.6868  -12.9405   12.1514 N.2       1 UNL1        0.0000
      4 N          23.0570  -13.4683   13.2929 N.am      1 UNL1        0.0000
      5 C          23.7501  -14.6121   13.3834 C.2       1 UNL1        0.0000
      6 C          24.0944  -15.2730   12.2222 C.ar      1 UNL1        0.0000
      7 C          24.7980  -16.4774   12.2600 C.ar      1 UNL1        0.0000
      8 C          25.1126  -17.1310   11.0881 C.ar      1 UNL1        0.0000
      9 C          24.7004  -16.5401    9.9125 C.ar      1 UNL1        0.0000
     10 C          24.0014  -15.3457    9.8601 C.ar      1 UNL1        0.0000
     11 C          23.6974  -14.7057   11.0254 C.ar      1 UNL1        0.0000
     12 C          22.9907  -13.5351   10.9567 C.2       1 UNL1        0.0000
     13 C          22.5787  -12.8122    9.7605 C.3       1 UNL1        0.0000
     14 C          23.0620  -11.4045    9.8068 C.ar      1 UNL1        0.0000
     15 C          22.4882  -10.5358    8.8614 C.ar      1 UNL1        0.0000
     16 C          22.8777   -9.2186    8.8188 C.ar      1 UNL1        0.0000
     17 C          22.2948   -8.2804    7.8331 C.2       1 UNL1        0.0000
     18 C          21.9309   -7.6765    5.4730 C.3       1 UNL1        0.0000
     19 C          22.6961   -7.7045    4.1674 C.3       1 UNL1        0.0000
     20 C          24.2445   -9.4585    4.9836 C.3       1 UNL1        0.0000
     21 C          23.2360   -9.7343    6.0690 C.3       1 UNL1        0.0000
     22 C          25.1481   -7.2841    4.1796 C.2       1 UNL1        0.0000
     23 C          25.1174   -5.9198    3.6460 C.3       1 UNL1        0.0000
     24 C          23.9398   -5.0674    4.0620 C.3       1 UNL1        0.0000
     25 C          24.0768   -5.5021    2.6701 C.3       1 UNL1        0.0000
     26 C          23.8183   -8.6824    9.6660 C.ar      1 UNL1        0.0000
     27 C          24.3793   -9.5336   10.5910 C.ar      1 UNL1        0.0000
     28 C          23.9849  -10.8785   10.6366 C.ar      1 UNL1        0.0000
     29 O          24.1152  -15.1331   14.4683 O.2       1 UNL1        0.0000
     30 O          26.3157   -7.7480    4.4382 O.2       1 UNL1        0.0000
     31 O          21.6492   -7.2643    8.1788 O.2       1 UNL1        0.0000
     32 F          24.1720   -7.3668    9.5833 F         1 UNL1        0.0000
     33 H          25.0839  -16.8792   13.1666 H         1 UNL1        0.0000
     34 H          25.6321  -18.0218   11.0906 H         1 UNL1        0.0000
     35 H          24.9245  -17.0137    9.0239 H         1 UNL1        0.0000
     36 H          23.7148  -14.9451    8.9531 H         1 UNL1        0.0000
     37 H          21.5106  -12.8159    9.6970 H         1 UNL1        0.0000
     38 H          23.0024  -13.2931    8.9034 H         1 UNL1        0.0000
     39 H          21.7769  -10.8865    8.2014 H         1 UNL1        0.0000
     40 H          21.9483   -6.6786    5.8594 H         1 UNL1        0.0000
     41 H          20.9323   -8.0046    5.2698 H         1 UNL1        0.0000
     42 H          22.6935   -6.7290    3.7284 H         1 UNL1        0.0000
     43 H          22.2337   -8.3930    3.4908 H         1 UNL1        0.0000
     44 H          25.2302   -9.5333    5.3928 H         1 UNL1        0.0000
     45 H          24.1140  -10.1769    4.2014 H         1 UNL1        0.0000
     46 H          23.7530  -10.1031    6.9303 H         1 UNL1        0.0000
     47 H          22.5394  -10.4491    5.6856 H         1 UNL1        0.0000
     48 H          26.1851   -5.8553    3.6585 H         1 UNL1        0.0000
     49 H          24.0877   -4.0391    4.3188 H         1 UNL1        0.0000
     50 H          23.1765   -5.1431    4.8081 H         1 UNL1        0.0000
     51 H          24.3166   -4.7860    1.9119 H         1 UNL1        0.0000
     52 H          23.4426   -6.0237    1.9853 H         1 UNL1        0.0000
     53 H          25.0906   -9.1812   11.2513 H         1 UNL1        0.0000
     54 H          24.4215  -11.4955   11.3396 H         1 UNL1        0.0000
     55 H          22.8144  -13.0008   14.1250 H         1 UNL1        0.0000
@<TRIPOS>BOND
     1    1   18 1
     2    1   21 1
     3    1   17 am
     4    2   19 1
     5    2   20 1
     6    2   22 am
     7    3    4 1
     8    3   12 2
     9    4    5 am
    10    4   55 1
    11    5   29 2
    12    5    6 1
    13    6    7 ar
    14    6   11 ar
    15    7    8 ar
    16    7   33 1
    17    8   34 1
    18    8    9 ar
    19    9   10 ar
    20    9   35 1
    21   10   11 ar
    22   10   36 1
    23   11   12 1
    24   12   13 1
    25   13   37 1
    26   13   38 1
    27   13   14 1
    28   14   15 ar
    29   14   28 ar
    30   15   39 1
    31   15   16 ar
    32   16   26 ar
    33   16   17 1
    34   17   31 2
    35   18   19 1
    36   18   40 1
    37   18   41 1
    38   19   42 1
    39   19   43 1
    40   20   21 1
    41   20   45 1
    42   20   44 1
    43   21   46 1
    44   21   47 1
    45   22   30 2
    46   22   23 1
    47   23   25 1
    48   23   24 1
    49   23   48 1
    50   24   25 1
    51   24   49 1
    52   24   50 1
    53   25   51 1
    54   25   52 1
    55   26   27 ar
    56   26   32 1
    57   27   28 ar
    58   27   53 1
    59   28   54 1
@<TRIPOS>SUBSTRUCTURE
1 UNL1 1
@<TRIPOS>COMMENT
olaparib
PLANTSproteinTorsions
57
1 12.3293
19 1.0655
33 343.4533
53 28.8850
108 23.5338
228 101.6771
405 91.3618
438 126.1470
479 78.2972
492 142.3971
546 92.0150
641 13.7554
776 24.5708
836 171.3831
905 151.0498
919 238.1311
988 99.6896
1139 154.9053
1332 191.7449
1388 103.3979
1606 227.0645
1642 150.4093
1655 58.9453
1759 201.8811
1952 179.3871
1986 217.0848
2049 13.4316
2207 216.6252
2220 141.4024
2267 56.7163
2305 352.4610
2319 139.1732
2601 183.9765
2653 189.1136
2695 284.3517
2741 356.9884
2763 60.2586
2818 17.6557
2847 229.7679
2913 246.1749
2968 98.7965
2982 270.9845
2996 85.2889
3051 191.7812
3105 125.5829
3240 85.0801
3280 186.0947
3290 278.4571
3365 209.3396
3426 197.5086
3477 168.1684
3534 208.7218
3661 278.1356
3685 196.3917
3741 131.3275
3784 53.3980
3862 199.2517
PLANTSmolcadARTstart hb
PLANTSmolcadARTstart HB
LINES
24.1152 -15.1331 14.4683 26.134 -14.737 14.795 0 255 0 5
PLANTSmolcadARTstart HBCH
LINES
PLANTSmolcadARTstart HB-CHO
LINES
PLANTSmolcadARTend
PLANTSmolcadARTstart HB_WATER
LINES
PLANTSmolcadARTend

PLANTSmolcadARTend

