@<TRIPOS>MOLECULE
olaparib_entry_00001_conf_48
55 59 1
SMALL
NO_CHARGES


@<TRIPOS>ATOM
      1 N          35.2622  -19.4802    5.8522 N.am      1 UNL1        0.0000
      2 N          35.4522  -21.9598    5.1013 N.am      1 UNL1        0.0000
      3 N          39.7044  -16.3511    9.1426 N.2       1 UNL1        0.0000
      4 N          40.3389  -15.2089    9.0361 N.am      1 UNL1        0.0000
      5 C          40.8949  -14.5768   10.0794 C.2       1 UNL1        0.0000
      6 C          40.7985  -15.1500   11.3307 C.ar      1 UNL1        0.0000
      7 C          41.3418  -14.5247   12.4536 C.ar      1 UNL1        0.0000
      8 C          41.2148  -15.1054   13.6971 C.ar      1 UNL1        0.0000
      9 C          40.5372  -16.3046   13.7609 C.ar      1 UNL1        0.0000
     10 C          39.9928  -16.9361   12.6551 C.ar      1 UNL1        0.0000
     11 C          40.1263  -16.3544   11.4289 C.ar      1 UNL1        0.0000
     12 C          39.5670  -16.9830   10.3488 C.2       1 UNL1        0.0000
     13 C          38.8983  -18.2772   10.3193 C.3       1 UNL1        0.0000
     14 C          37.5199  -18.1422    9.7726 C.ar      1 UNL1        0.0000
     15 C          37.4005  -18.3137    8.3819 C.ar      1 UNL1        0.0000
     16 C          36.1694  -18.1977    7.7822 C.ar      1 UNL1        0.0000
     17 C          36.0118  -18.3693    6.3203 C.2       1 UNL1        0.0000
     18 C          35.0844  -19.6763    4.4497 C.3       1 UNL1        0.0000
     19 C          34.8573  -21.1283    4.0874 C.3       1 UNL1        0.0000
     20 C          34.9095  -21.8442    6.4592 C.3       1 UNL1        0.0000
     21 C          34.6894  -20.3975    6.8197 C.3       1 UNL1        0.0000
     22 C          36.5005  -22.8432    4.8278 C.2       1 UNL1        0.0000
     23 C          37.1555  -23.0604    3.5352 C.3       1 UNL1        0.0000
     24 C          36.3879  -23.8883    2.5294 C.3       1 UNL1        0.0000
     25 C          37.6172  -24.4134    3.1280 C.3       1 UNL1        0.0000
     26 C          35.0159  -17.9175    8.4758 C.ar      1 UNL1        0.0000
     27 C          35.1340  -17.7497    9.8370 C.ar      1 UNL1        0.0000
     28 C          36.3888  -17.8664   10.4520 C.ar      1 UNL1        0.0000
     29 O          41.5083  -13.4819    9.9970 O.2       1 UNL1        0.0000
     30 O          36.9526  -23.5481    5.7994 O.2       1 UNL1        0.0000
     31 O          36.5148  -17.5716    5.4960 O.2       1 UNL1        0.0000
     32 F          33.8163  -17.8116    7.8336 F         1 UNL1        0.0000
     33 H          41.8399  -13.6266   12.3531 H         1 UNL1        0.0000
     34 H          41.6081  -14.6628   14.5412 H         1 UNL1        0.0000
     35 H          40.4298  -16.7556   14.6824 H         1 UNL1        0.0000
     36 H          39.4937  -17.8338   12.7566 H         1 UNL1        0.0000
     37 H          38.8459  -18.6694   11.3135 H         1 UNL1        0.0000
     38 H          39.4549  -18.9392    9.6889 H         1 UNL1        0.0000
     39 H          38.2349  -18.5258    7.8133 H         1 UNL1        0.0000
     40 H          35.9600  -19.3290    3.9417 H         1 UNL1        0.0000
     41 H          34.2128  -19.1292    4.1549 H         1 UNL1        0.0000
     42 H          35.3086  -21.3371    3.1403 H         1 UNL1        0.0000
     43 H          33.8074  -21.3265    4.0252 H         1 UNL1        0.0000
     44 H          35.5990  -22.2780    7.1527 H         1 UNL1        0.0000
     45 H          33.9711  -22.3565    6.5020 H         1 UNL1        0.0000
     46 H          35.1385  -20.2107    7.7729 H         1 UNL1        0.0000
     47 H          33.6339  -20.2279    6.8361 H         1 UNL1        0.0000
     48 H          37.6276  -22.1013    3.5757 H         1 UNL1        0.0000
     49 H          36.3746  -23.6011    1.4986 H         1 UNL1        0.0000
     50 H          35.3784  -24.2330    2.4455 H         1 UNL1        0.0000
     51 H          38.4974  -24.5160    2.5282 H         1 UNL1        0.0000
     52 H          37.8662  -25.3084    3.6573 H         1 UNL1        0.0000
     53 H          34.2980  -17.5382   10.4049 H         1 UNL1        0.0000
     54 H          36.4496  -17.7356   11.4741 H         1 UNL1        0.0000
     55 H          40.4112  -14.7951    8.1454 H         1 UNL1        0.0000
@<TRIPOS>BOND
     1    1   18 1
     2    1   21 1
     3    1   17 am
     4    2   19 1
     5    2   20 1
     6    2   22 am
     7    3    4 1
     8    3   12 2
     9    4    5 am
    10    4   55 1
    11    5   29 2
    12    5    6 1
    13    6    7 ar
    14    6   11 ar
    15    7    8 ar
    16    7   33 1
    17    8   34 1
    18    8    9 ar
    19    9   10 ar
    20    9   35 1
    21   10   11 ar
    22   10   36 1
    23   11   12 1
    24   12   13 1
    25   13   37 1
    26   13   38 1
    27   13   14 1
    28   14   15 ar
    29   14   28 ar
    30   15   39 1
    31   15   16 ar
    32   16   26 ar
    33   16   17 1
    34   17   31 2
    35   18   19 1
    36   18   40 1
    37   18   41 1
    38   19   42 1
    39   19   43 1
    40   20   21 1
    41   20   45 1
    42   20   44 1
    43   21   46 1
    44   21   47 1
    45   22   30 2
    46   22   23 1
    47   23   25 1
    48   23   24 1
    49   23   48 1
    50   24   25 1
    51   24   49 1
    52   24   50 1
    53   25   51 1
    54   25   52 1
    55   26   27 ar
    56   26   32 1
    57   27   28 ar
    58   27   53 1
    59   28   54 1
@<TRIPOS>SUBSTRUCTURE
1 UNL1 1
@<TRIPOS>COMMENT
olaparib
PLANTSproteinTorsions
57
1 292.9443
19 10.7549
33 90.2695
53 88.3702
108 24.7542
228 188.4737
405 111.9820
438 112.3723
479 19.5202
492 349.7294
546 89.9223
641 245.9353
776 257.6672
836 31.9966
905 205.8841
919 155.3793
988 250.0804
1139 140.8289
1332 42.7192
1388 346.9092
1606 75.3840
1642 181.1644
1655 193.2352
1759 204.0482
1952 165.9594
1986 154.5531
2049 97.6192
2207 295.0536
2220 262.3155
2267 103.8645
2305 268.6904
2319 169.3324
2601 305.1930
2653 205.0665
2695 305.8936
2741 199.9017
2763 82.6695
2818 282.5017
2847 222.0058
2913 272.3441
2968 149.6235
2982 221.0314
2996 215.4523
3051 163.0461
3105 120.6959
3240 280.6595
3280 81.7643
3290 343.9094
3365 94.5116
3426 134.6099
3477 207.9708
3534 31.7970
3661 14.2710
3685 162.6759
3741 228.4718
3784 204.8244
3862 333.7489
PLANTSmolcadARTstart hb
PLANTSmolcadARTstart HB
LINES
40.4112 -14.7951 8.1454 41.384 -13.55 6.787 0 255 0 5
PLANTSmolcadARTstart HBCH
LINES
PLANTSmolcadARTstart HB-CHO
LINES
PLANTSmolcadARTend
PLANTSmolcadARTstart HB_WATER
LINES
PLANTSmolcadARTend

PLANTSmolcadARTend

