@<TRIPOS>MOLECULE
olaparib_entry_00001_conf_05
55 59 1
SMALL
NO_CHARGES


@<TRIPOS>ATOM
      1 N          23.1260   -9.5467    5.7839 N.am      1 UNL1        0.0000
      2 N          23.6113  -12.0613    5.3488 N.am      1 UNL1        0.0000
      3 N          25.8982   -5.6607   11.8323 N.2       1 UNL1        0.0000
      4 N          26.1181   -4.4176   12.1857 N.am      1 UNL1        0.0000
      5 C          26.9559   -3.6036   11.5282 C.2       1 UNL1        0.0000
      6 C          27.6241   -4.0908   10.4237 C.ar      1 UNL1        0.0000
      7 C          28.5225   -3.2924    9.7148 C.ar      1 UNL1        0.0000
      8 C          29.1949   -3.8070    8.6273 C.ar      1 UNL1        0.0000
      9 C          28.9340   -5.1194    8.2946 C.ar      1 UNL1        0.0000
     10 C          28.0455   -5.9232    8.9891 C.ar      1 UNL1        0.0000
     11 C          27.3834   -5.4035   10.0621 C.ar      1 UNL1        0.0000
     12 C          26.5219   -6.2168   10.7483 C.2       1 UNL1        0.0000
     13 C          26.1401   -7.5851   10.4242 C.3       1 UNL1        0.0000
     14 C          24.8244   -7.6106    9.7272 C.ar      1 UNL1        0.0000
     15 C          24.8691   -7.9419    8.3612 C.ar      1 UNL1        0.0000
     16 C          23.7066   -7.9815    7.6292 C.ar      1 UNL1        0.0000
     17 C          23.7212   -8.3233    6.1890 C.2       1 UNL1        0.0000
     18 C          23.1163   -9.9085    4.4033 C.3       1 UNL1        0.0000
     19 C          23.0572  -11.4062    4.1926 C.3       1 UNL1        0.0000
     20 C          22.9191  -11.8553    6.6257 C.3       1 UNL1        0.0000
     21 C          22.5360  -10.4073    6.7923 C.3       1 UNL1        0.0000
     22 C          24.7561  -12.8608    5.2821 C.2       1 UNL1        0.0000
     23 C          25.5615  -13.1492    4.0924 C.3       1 UNL1        0.0000
     24 C          25.7902  -11.9928    3.1456 C.3       1 UNL1        0.0000
     25 C          24.9577  -13.1254    2.7343 C.3       1 UNL1        0.0000
     26 C          22.4692   -7.7108    8.1636 C.ar      1 UNL1        0.0000
     27 C          22.4267   -7.3866    9.5008 C.ar      1 UNL1        0.0000
     28 C          23.6110   -7.3443   10.2504 C.ar      1 UNL1        0.0000
     29 O          27.1787   -2.4086   11.8509 O.2       1 UNL1        0.0000
     30 O          25.1622  -13.4094    6.3681 O.2       1 UNL1        0.0000
     31 O          24.2373   -7.5726    5.3294 O.2       1 UNL1        0.0000
     32 F          21.3432   -7.7628    7.3942 F         1 UNL1        0.0000
     33 H          28.6834   -2.3151   10.0046 H         1 UNL1        0.0000
     34 H          29.8631   -3.2365    8.0876 H         1 UNL1        0.0000
     35 H          29.4278   -5.5245    7.4845 H         1 UNL1        0.0000
     36 H          27.8860   -6.9009    8.6994 H         1 UNL1        0.0000
     37 H          26.0712   -8.1550   11.3273 H         1 UNL1        0.0000
     38 H          26.8806   -8.0060    9.7762 H         1 UNL1        0.0000
     39 H          25.7721   -8.1543    7.9097 H         1 UNL1        0.0000
     40 H          24.0072   -9.5326    3.9445 H         1 UNL1        0.0000
     41 H          22.2364   -9.4851    3.9644 H         1 UNL1        0.0000
     42 H          23.6233  -11.6695    3.3240 H         1 UNL1        0.0000
     43 H          22.0413  -11.7129    4.0535 H         1 UNL1        0.0000
     44 H          23.5662  -12.1420    7.4280 H         1 UNL1        0.0000
     45 H          22.0300  -12.4506    6.6377 H         1 UNL1        0.0000
     46 H          22.8629  -10.0760    7.7559 H         1 UNL1        0.0000
     47 H          21.4739  -10.3423    6.6874 H         1 UNL1        0.0000
     48 H          26.1516  -13.8653    4.6247 H         1 UNL1        0.0000
     49 H          26.7529  -11.8469    2.7016 H         1 UNL1        0.0000
     50 H          25.6551  -10.9326    3.1988 H         1 UNL1        0.0000
     51 H          25.3129  -13.7997    1.9832 H         1 UNL1        0.0000
     52 H          23.9615  -13.2215    2.3579 H         1 UNL1        0.0000
     53 H          21.5222   -7.1749    9.9516 H         1 UNL1        0.0000
     54 H          23.5512   -7.0981   11.2511 H         1 UNL1        0.0000
     55 H          25.6437   -4.0643   12.9731 H         1 UNL1        0.0000
@<TRIPOS>BOND
     1    1   18 1
     2    1   21 1
     3    1   17 am
     4    2   19 1
     5    2   20 1
     6    2   22 am
     7    3    4 1
     8    3   12 2
     9    4    5 am
    10    4   55 1
    11    5   29 2
    12    5    6 1
    13    6    7 ar
    14    6   11 ar
    15    7    8 ar
    16    7   33 1
    17    8   34 1
    18    8    9 ar
    19    9   10 ar
    20    9   35 1
    21   10   11 ar
    22   10   36 1
    23   11   12 1
    24   12   13 1
    25   13   37 1
    26   13   38 1
    27   13   14 1
    28   14   15 ar
    29   14   28 ar
    30   15   39 1
    31   15   16 ar
    32   16   26 ar
    33   16   17 1
    34   17   31 2
    35   18   19 1
    36   18   40 1
    37   18   41 1
    38   19   42 1
    39   19   43 1
    40   20   21 1
    41   20   45 1
    42   20   44 1
    43   21   46 1
    44   21   47 1
    45   22   30 2
    46   22   23 1
    47   23   25 1
    48   23   24 1
    49   23   48 1
    50   24   25 1
    51   24   49 1
    52   24   50 1
    53   25   51 1
    54   25   52 1
    55   26   27 ar
    56   26   32 1
    57   27   28 ar
    58   27   53 1
    59   28   54 1
@<TRIPOS>SUBSTRUCTURE
1 UNL1 1
@<TRIPOS>COMMENT
olaparib
PLANTSproteinTorsions
57
1 290.0557
19 267.4147
33 338.7365
53 27.8849
108 69.2009
228 9.9684
405 239.4167
438 59.0814
479 241.2157
492 154.6817
546 246.4959
641 79.7056
776 228.2909
836 170.0988
905 187.7413
919 206.2352
988 133.2296
1139 96.7252
1332 20.1527
1388 182.5614
1606 84.1482
1642 26.8672
1655 212.4898
1759 28.8124
1952 194.2705
1986 216.0575
2049 121.3686
2207 272.7032
2220 225.5876
2267 296.4228
2305 44.3688
2319 340.2800
2601 181.6863
2653 240.9904
2695 345.4128
2741 238.9558
2763 31.2960
2818 107.3180
2847 116.1896
2913 244.4728
2968 346.2807
2982 24.3025
2996 177.1682
3051 73.3411
3105 87.1596
3240 160.8555
3280 311.7062
3290 276.0010
3365 177.1781
3426 130.0407
3477 148.4875
3534 115.8158
3661 108.2550
3685 239.8213
3741 189.5769
3784 261.6125
3862 299.8331
PLANTSmolcadARTstart hb
PLANTSmolcadARTstart HB
LINES
27.1787 -2.40863 11.8509 25.9447 -2.21887 13.5864 0 255 0 5
25.1622 -13.4094 6.36809 26.632 -11.7929 6.88624 0 255 0 5
PLANTSmolcadARTstart HBCH
LINES
PLANTSmolcadARTstart HB-CHO
LINES
PLANTSmolcadARTend
PLANTSmolcadARTstart HB_WATER
LINES
PLANTSmolcadARTend

PLANTSmolcadARTend

