@<TRIPOS>MOLECULE
olaparib_entry_00001_conf_57
55 59 1
SMALL
NO_CHARGES


@<TRIPOS>ATOM
      1 N          37.1563  -16.6221    8.4288 N.am      1 UNL1        0.0000
      2 N          39.6422  -17.0814    9.0267 N.am      1 UNL1        0.0000
      3 N          31.9542  -20.2993    9.6131 N.2       1 UNL1        0.0000
      4 N          30.7069  -20.1897   10.0015 N.am      1 UNL1        0.0000
      5 C          29.8473  -21.2182   10.0124 C.2       1 UNL1        0.0000
      6 C          30.2893  -22.4569    9.5953 C.ar      1 UNL1        0.0000
      7 C          29.4308  -23.5566    9.5677 C.ar      1 UNL1        0.0000
      8 C          29.8886  -24.7796    9.1270 C.ar      1 UNL1        0.0000
      9 C          31.2061  -24.8466    8.7259 C.ar      1 UNL1        0.0000
     10 C          32.0689  -23.7636    8.7476 C.ar      1 UNL1        0.0000
     11 C          31.6067  -22.5585    9.1879 C.ar      1 UNL1        0.0000
     12 C          32.4678  -21.4940    9.1864 C.2       1 UNL1        0.0000
     13 C          33.8844  -21.4949    8.8456 C.3       1 UNL1        0.0000
     14 C          34.2271  -20.2985    8.0280 C.ar      1 UNL1        0.0000
     15 C          34.8363  -19.2414    8.7273 C.ar      1 UNL1        0.0000
     16 C          35.1807  -18.0898    8.0609 C.ar      1 UNL1        0.0000
     17 C          35.8200  -16.9584    8.7698 C.2       1 UNL1        0.0000
     18 C          37.8046  -15.5343    9.0871 C.3       1 UNL1        0.0000
     19 C          39.3107  -15.6831    9.1155 C.3       1 UNL1        0.0000
     20 C          39.2396  -17.7842    7.8036 C.3       1 UNL1        0.0000
     21 C          37.8367  -17.3993    7.4096 C.3       1 UNL1        0.0000
     22 C          40.3154  -17.7597   10.0471 C.2       1 UNL1        0.0000
     23 C          40.7677  -17.2042   11.3253 C.3       1 UNL1        0.0000
     24 C          41.4113  -15.8372   11.2679 C.3       1 UNL1        0.0000
     25 C          42.2144  -17.0136   11.6088 C.3       1 UNL1        0.0000
     26 C          34.9615  -17.9019    6.7168 C.ar      1 UNL1        0.0000
     27 C          34.3651  -18.9373    6.0333 C.ar      1 UNL1        0.0000
     28 C          34.0115  -20.1133    6.7104 C.ar      1 UNL1        0.0000
     29 O          28.6482  -21.1330   10.3824 O.2       1 UNL1        0.0000
     30 O          40.5737  -19.0028    9.8647 O.2       1 UNL1        0.0000
     31 O          35.2220  -16.2981    9.6502 O.2       1 UNL1        0.0000
     32 F          35.3212  -16.7385    6.1006 F         1 UNL1        0.0000
     33 H          28.4520  -23.4545    9.8783 H         1 UNL1        0.0000
     34 H          29.2734  -25.6067    9.0980 H         1 UNL1        0.0000
     35 H          31.5685  -25.7526    8.3912 H         1 UNL1        0.0000
     36 H          33.0474  -23.8662    8.4357 H         1 UNL1        0.0000
     37 H          34.1121  -22.3794    8.2880 H         1 UNL1        0.0000
     38 H          34.4570  -21.4692    9.7493 H         1 UNL1        0.0000
     39 H          35.0240  -19.3300    9.7380 H         1 UNL1        0.0000
     40 H          37.4463  -15.4809   10.0941 H         1 UNL1        0.0000
     41 H          37.5779  -14.6433    8.5387 H         1 UNL1        0.0000
     42 H          39.6943  -15.2796   10.0289 H         1 UNL1        0.0000
     43 H          39.7428  -15.1544    8.2914 H         1 UNL1        0.0000
     44 H          39.2796  -18.8397    7.9739 H         1 UNL1        0.0000
     45 H          39.9066  -17.5123    7.0123 H         1 UNL1        0.0000
     46 H          37.2748  -18.2923    7.2311 H         1 UNL1        0.0000
     47 H          37.9052  -16.7894    6.5341 H         1 UNL1        0.0000
     48 H          39.9694  -17.6819   11.8534 H         1 UNL1        0.0000
     49 H          41.1856  -15.1075   12.0175 H         1 UNL1        0.0000
     50 H          41.4768  -15.0615   10.5338 H         1 UNL1        0.0000
     51 H          42.5805  -17.1348   12.6069 H         1 UNL1        0.0000
     52 H          43.1143  -17.4408   11.2203 H         1 UNL1        0.0000
     53 H          34.1784  -18.8476    5.0217 H         1 UNL1        0.0000
     54 H          33.5653  -20.8743    6.1742 H         1 UNL1        0.0000
     55 H          30.3859  -19.3080   10.3006 H         1 UNL1        0.0000
@<TRIPOS>BOND
     1    1   18 1
     2    1   21 1
     3    1   17 am
     4    2   19 1
     5    2   20 1
     6    2   22 am
     7    3    4 1
     8    3   12 2
     9    4    5 am
    10    4   55 1
    11    5   29 2
    12    5    6 1
    13    6    7 ar
    14    6   11 ar
    15    7    8 ar
    16    7   33 1
    17    8   34 1
    18    8    9 ar
    19    9   10 ar
    20    9   35 1
    21   10   11 ar
    22   10   36 1
    23   11   12 1
    24   12   13 1
    25   13   37 1
    26   13   38 1
    27   13   14 1
    28   14   15 ar
    29   14   28 ar
    30   15   39 1
    31   15   16 ar
    32   16   26 ar
    33   16   17 1
    34   17   31 2
    35   18   19 1
    36   18   40 1
    37   18   41 1
    38   19   42 1
    39   19   43 1
    40   20   21 1
    41   20   45 1
    42   20   44 1
    43   21   46 1
    44   21   47 1
    45   22   30 2
    46   22   23 1
    47   23   25 1
    48   23   24 1
    49   23   48 1
    50   24   25 1
    51   24   49 1
    52   24   50 1
    53   25   51 1
    54   25   52 1
    55   26   27 ar
    56   26   32 1
    57   27   28 ar
    58   27   53 1
    59   28   54 1
@<TRIPOS>SUBSTRUCTURE
1 UNL1 1
@<TRIPOS>COMMENT
olaparib
PLANTSproteinTorsions
57
1 2.4103
19 5.9164
33 115.2866
53 1.2476
108 354.7159
228 160.7549
405 140.6728
438 125.3368
479 308.7690
492 40.9950
546 98.4239
641 233.7457
776 263.3621
836 119.5074
905 223.8475
919 97.4217
988 259.5121
1139 327.4214
1332 96.5200
1388 64.9932
1606 328.3324
1642 168.0519
1655 187.1692
1759 135.7727
1952 11.1001
1986 205.9500
2049 229.8954
2207 211.4584
2220 5.3903
2267 226.6341
2305 139.5366
2319 212.3937
2601 257.7894
2653 117.5883
2695 261.7981
2741 235.4290
2763 319.6395
2818 240.2805
2847 215.8441
2913 232.9301
2968 152.6783
2982 204.6770
2996 13.9697
3051 148.1965
3105 125.8532
3240 332.4414
3280 159.9040
3290 263.3864
3365 33.6780
3426 25.0697
3477 38.9126
3534 113.2466
3661 254.9190
3685 215.8704
3741 73.3674
3784 120.4802
3862 258.4489
PLANTSmolcadARTstart hb
PLANTSmolcadARTstart HB
LINES
30.3859 -19.308 10.3006 28.83 -17.972 10.752 0 255 0 5
PLANTSmolcadARTstart HBCH
LINES
PLANTSmolcadARTstart HB-CHO
LINES
PLANTSmolcadARTend
PLANTSmolcadARTstart HB_WATER
LINES
PLANTSmolcadARTend

PLANTSmolcadARTend

