@<TRIPOS>MOLECULE
olaparib_entry_00001_conf_08
55 59 1
SMALL
NO_CHARGES


@<TRIPOS>ATOM
      1 N          23.3085   -7.5429    5.0289 N.am      1 UNL1        0.0000
      2 N          24.8772   -6.1716    3.4776 N.am      1 UNL1        0.0000
      3 N          27.2189   -7.3490    8.5275 N.2       1 UNL1        0.0000
      4 N          28.0089   -6.4680    7.9634 N.am      1 UNL1        0.0000
      5 C          28.2662   -5.2645    8.4948 C.2       1 UNL1        0.0000
      6 C          27.6736   -4.9286    9.6947 C.ar      1 UNL1        0.0000
      7 C          27.8913   -3.6816   10.2818 C.ar      1 UNL1        0.0000
      8 C          27.2718   -3.3597   11.4701 C.ar      1 UNL1        0.0000
      9 C          26.4478   -4.3161   12.0248 C.ar      1 UNL1        0.0000
     10 C          26.2224   -5.5572   11.4532 C.ar      1 UNL1        0.0000
     11 C          26.8423   -5.8667   10.2786 C.ar      1 UNL1        0.0000
     12 C          26.5949   -7.0911    9.7180 C.2       1 UNL1        0.0000
     13 C          25.7970   -8.1783   10.2695 C.3       1 UNL1        0.0000
     14 C          25.0177   -8.8533    9.1951 C.ar      1 UNL1        0.0000
     15 C          24.3284   -7.9972    8.3179 C.ar      1 UNL1        0.0000
     16 C          23.5726   -8.5266    7.2994 C.ar      1 UNL1        0.0000
     17 C          22.8328   -7.6519    6.3619 C.2       1 UNL1        0.0000
     18 C          22.6190   -6.7130    4.0947 C.3       1 UNL1        0.0000
     19 C          23.5213   -6.1983    2.9939 C.3       1 UNL1        0.0000
     20 C          25.4748   -7.4574    3.8537 C.3       1 UNL1        0.0000
     21 C          24.4948   -8.2851    4.6448 C.3       1 UNL1        0.0000
     22 C          25.6099   -4.9866    3.5931 C.2       1 UNL1        0.0000
     23 C          25.1511   -3.6322    3.2735 C.3       1 UNL1        0.0000
     24 C          25.2333   -3.2260    1.8194 C.3       1 UNL1        0.0000
     25 C          26.1043   -2.5898    2.8103 C.3       1 UNL1        0.0000
     26 C          23.4455   -9.8775    7.0782 C.ar      1 UNL1        0.0000
     27 C          24.1207  -10.7146    7.9375 C.ar      1 UNL1        0.0000
     28 C          24.8919  -10.1778    8.9784 C.ar      1 UNL1        0.0000
     29 O          29.0217   -4.4071    7.9697 O.2       1 UNL1        0.0000
     30 O          26.8149   -5.0724    4.0240 O.2       1 UNL1        0.0000
     31 O          21.8120   -7.0140    6.7080 O.2       1 UNL1        0.0000
     32 F          22.6818  -10.3543    6.0525 F         1 UNL1        0.0000
     33 H          28.5174   -2.9995    9.8261 H         1 UNL1        0.0000
     34 H          27.4174   -2.4450   11.9233 H         1 UNL1        0.0000
     35 H          25.9733   -4.0949   12.9137 H         1 UNL1        0.0000
     36 H          25.5951   -6.2385   11.9089 H         1 UNL1        0.0000
     37 H          25.1214   -7.7842   10.9999 H         1 UNL1        0.0000
     38 H          26.4529   -8.8941   10.7198 H         1 UNL1        0.0000
     39 H          24.3896   -6.9744    8.4387 H         1 UNL1        0.0000
     40 H          22.2066   -5.8762    4.6194 H         1 UNL1        0.0000
     41 H          21.8558   -7.3074    3.6361 H         1 UNL1        0.0000
     42 H          23.2195   -5.2110    2.7141 H         1 UNL1        0.0000
     43 H          23.4530   -6.8395    2.1397 H         1 UNL1        0.0000
     44 H          26.3462   -7.2808    4.4488 H         1 UNL1        0.0000
     45 H          25.7371   -7.9909    2.9641 H         1 UNL1        0.0000
     46 H          24.9803   -8.6337    5.5324 H         1 UNL1        0.0000
     47 H          24.1789   -9.0929    4.0196 H         1 UNL1        0.0000
     48 H          24.4118   -3.6645    4.0460 H         1 UNL1        0.0000
     49 H          24.4351   -2.6703    1.3730 H         1 UNL1        0.0000
     50 H          25.3877   -3.7443    0.8961 H         1 UNL1        0.0000
     51 H          25.9438   -1.5664    3.0784 H         1 UNL1        0.0000
     52 H          27.1612   -2.4528    2.8963 H         1 UNL1        0.0000
     53 H          24.0591  -11.7380    7.8151 H         1 UNL1        0.0000
     54 H          25.3878  -10.8277    9.6087 H         1 UNL1        0.0000
     55 H          28.4350   -6.7023    7.1070 H         1 UNL1        0.0000
@<TRIPOS>BOND
     1    1   18 1
     2    1   21 1
     3    1   17 am
     4    2   19 1
     5    2   20 1
     6    2   22 am
     7    3    4 1
     8    3   12 2
     9    4    5 am
    10    4   55 1
    11    5   29 2
    12    5    6 1
    13    6    7 ar
    14    6   11 ar
    15    7    8 ar
    16    7   33 1
    17    8   34 1
    18    8    9 ar
    19    9   10 ar
    20    9   35 1
    21   10   11 ar
    22   10   36 1
    23   11   12 1
    24   12   13 1
    25   13   37 1
    26   13   38 1
    27   13   14 1
    28   14   15 ar
    29   14   28 ar
    30   15   39 1
    31   15   16 ar
    32   16   26 ar
    33   16   17 1
    34   17   31 2
    35   18   19 1
    36   18   40 1
    37   18   41 1
    38   19   42 1
    39   19   43 1
    40   20   21 1
    41   20   45 1
    42   20   44 1
    43   21   46 1
    44   21   47 1
    45   22   30 2
    46   22   23 1
    47   23   25 1
    48   23   24 1
    49   23   48 1
    50   24   25 1
    51   24   49 1
    52   24   50 1
    53   25   51 1
    54   25   52 1
    55   26   27 ar
    56   26   32 1
    57   27   28 ar
    58   27   53 1
    59   28   54 1
@<TRIPOS>SUBSTRUCTURE
1 UNL1 1
@<TRIPOS>COMMENT
olaparib
PLANTSproteinTorsions
57
1 210.8232
19 122.9043
33 181.0355
53 99.3282
108 39.9759
228 288.8386
405 190.1032
438 207.7983
479 259.0412
492 163.5413
546 291.8881
641 19.4120
776 160.8764
836 127.4078
905 51.7844
919 190.1245
988 233.5343
1139 8.5150
1332 227.5469
1388 126.9079
1606 231.7171
1642 89.9108
1655 17.1130
1759 21.5433
1952 46.6547
1986 179.4512
2049 145.1513
2207 39.0696
2220 246.6469
2267 264.4109
2305 22.0296
2319 94.4151
2601 270.7380
2653 243.4223
2695 101.5226
2741 175.8669
2763 334.0370
2818 336.5390
2847 45.7599
2913 57.5484
2968 240.4629
2982 29.6959
2996 260.7401
3051 78.2309
3105 55.5666
3240 283.4239
3280 19.1045
3290 69.6519
3365 149.2469
3426 31.0107
3477 273.5890
3534 101.8109
3661 49.1876
3685 291.2475
3741 209.9021
3784 16.7291
3862 268.4630
PLANTSmolcadARTstart hb
PLANTSmolcadARTstart HB
LINES
29.0217 -4.40706 7.96972 27.6798 -3.43189 6.69483 0 255 0 5
PLANTSmolcadARTstart HBCH
LINES
PLANTSmolcadARTstart HB-CHO
LINES
PLANTSmolcadARTend
PLANTSmolcadARTstart HB_WATER
LINES
PLANTSmolcadARTend

PLANTSmolcadARTend

