@<TRIPOS>MOLECULE
olaparib_entry_00001_conf_81
55 59 1
SMALL
NO_CHARGES


@<TRIPOS>ATOM
      1 N          22.9384  -17.4010    9.2093 N.am      1 UNL1        0.0000
      2 N          22.4228  -19.8607    9.8670 N.am      1 UNL1        0.0000
      3 N          26.1739  -11.8495   11.4311 N.2       1 UNL1        0.0000
      4 N          27.3564  -11.2838   11.4135 N.am      1 UNL1        0.0000
      5 C          27.5628  -10.0247   11.0023 C.2       1 UNL1        0.0000
      6 C          26.4824   -9.2809   10.5743 C.ar      1 UNL1        0.0000
      7 C          26.6441   -7.9724   10.1171 C.ar      1 UNL1        0.0000
      8 C          25.5534   -7.2555    9.6743 C.ar      1 UNL1        0.0000
      9 C          24.3309   -7.8922    9.7085 C.ar      1 UNL1        0.0000
     10 C          24.1559   -9.1900   10.1592 C.ar      1 UNL1        0.0000
     11 C          25.2412   -9.8898   10.5976 C.ar      1 UNL1        0.0000
     12 C          25.0536  -11.1775   11.0233 C.2       1 UNL1        0.0000
     13 C          23.7936  -11.8973   11.1549 C.3       1 UNL1        0.0000
     14 C          24.0405  -13.3482   11.3813 C.ar      1 UNL1        0.0000
     15 C          23.9035  -14.1698   10.2482 C.ar      1 UNL1        0.0000
     16 C          24.1014  -15.5253   10.3589 C.ar      1 UNL1        0.0000
     17 C          23.9611  -16.4168    9.1855 C.2       1 UNL1        0.0000
     18 C          22.7691  -18.2758    8.0944 C.3       1 UNL1        0.0000
     19 C          22.1409  -19.5979    8.4797 C.3       1 UNL1        0.0000
     20 C          21.8822  -18.9123   10.8469 C.3       1 UNL1        0.0000
     21 C          22.0819  -17.4943   10.3769 C.3       1 UNL1        0.0000
     22 C          23.1759  -20.9619   10.2846 C.2       1 UNL1        0.0000
     23 C          23.7912  -21.9829    9.4325 C.3       1 UNL1        0.0000
     24 C          24.5320  -23.0902   10.1475 C.3       1 UNL1        0.0000
     25 C          25.2689  -22.1151    9.3405 C.3       1 UNL1        0.0000
     26 C          24.4347  -16.1449   11.5400 C.ar      1 UNL1        0.0000
     27 C          24.5685  -15.3397   12.6485 C.ar      1 UNL1        0.0000
     28 C          24.3663  -13.9564   12.5393 C.ar      1 UNL1        0.0000
     29 O          28.6886   -9.4645   10.9793 O.2       1 UNL1        0.0000
     30 O          23.3603  -21.1124   11.5450 O.2       1 UNL1        0.0000
     31 O          24.7099  -16.3276    8.1855 O.2       1 UNL1        0.0000
     32 F          24.6201  -17.4958   11.5987 F         1 UNL1        0.0000
     33 H          27.5813   -7.5405   10.1111 H         1 UNL1        0.0000
     34 H          25.6477   -6.2873    9.3324 H         1 UNL1        0.0000
     35 H          23.5016   -7.3738    9.3802 H         1 UNL1        0.0000
     36 H          23.2184   -9.6217   10.1638 H         1 UNL1        0.0000
     37 H          23.2216  -11.7730   10.2592 H         1 UNL1        0.0000
     38 H          23.2577  -11.5048   11.9941 H         1 UNL1        0.0000
     39 H          23.6547  -13.7562    9.3363 H         1 UNL1        0.0000
     40 H          23.7284  -18.4659    7.6594 H         1 UNL1        0.0000
     41 H          22.1096  -17.7937    7.4025 H         1 UNL1        0.0000
     42 H          22.5498  -20.3798    7.8750 H         1 UNL1        0.0000
     43 H          21.0826  -19.5548    8.3260 H         1 UNL1        0.0000
     44 H          22.3845  -19.0464   11.7819 H         1 UNL1        0.0000
     45 H          20.8338  -19.0927   10.9618 H         1 UNL1        0.0000
     46 H          22.5262  -16.9306   11.1706 H         1 UNL1        0.0000
     47 H          21.1230  -17.1092   10.1024 H         1 UNL1        0.0000
     48 H          23.0121  -21.8927    8.7050 H         1 UNL1        0.0000
     49 H          24.4376  -24.1016    9.8108 H         1 UNL1        0.0000
     50 H          24.5877  -23.4332   11.1595 H         1 UNL1        0.0000
     51 H          25.7185  -22.4208    8.4188 H         1 UNL1        0.0000
     52 H          26.0909  -21.4582    9.5305 H         1 UNL1        0.0000
     53 H          24.8181  -15.7548   13.5604 H         1 UNL1        0.0000
     54 H          24.4726  -13.3754   13.3859 H         1 UNL1        0.0000
     55 H          28.1312  -11.8097   11.7182 H         1 UNL1        0.0000
@<TRIPOS>BOND
     1    1   18 1
     2    1   21 1
     3    1   17 am
     4    2   19 1
     5    2   20 1
     6    2   22 am
     7    3    4 1
     8    3   12 2
     9    4    5 am
    10    4   55 1
    11    5   29 2
    12    5    6 1
    13    6    7 ar
    14    6   11 ar
    15    7    8 ar
    16    7   33 1
    17    8   34 1
    18    8    9 ar
    19    9   10 ar
    20    9   35 1
    21   10   11 ar
    22   10   36 1
    23   11   12 1
    24   12   13 1
    25   13   37 1
    26   13   38 1
    27   13   14 1
    28   14   15 ar
    29   14   28 ar
    30   15   39 1
    31   15   16 ar
    32   16   26 ar
    33   16   17 1
    34   17   31 2
    35   18   19 1
    36   18   40 1
    37   18   41 1
    38   19   42 1
    39   19   43 1
    40   20   21 1
    41   20   45 1
    42   20   44 1
    43   21   46 1
    44   21   47 1
    45   22   30 2
    46   22   23 1
    47   23   25 1
    48   23   24 1
    49   23   48 1
    50   24   25 1
    51   24   49 1
    52   24   50 1
    53   25   51 1
    54   25   52 1
    55   26   27 ar
    56   26   32 1
    57   27   28 ar
    58   27   53 1
    59   28   54 1
@<TRIPOS>SUBSTRUCTURE
1 UNL1 1
@<TRIPOS>COMMENT
olaparib
PLANTSproteinTorsions
57
1 149.1818
19 83.5825
33 95.5678
53 351.1587
108 1.4611
228 61.8813
405 10.4518
438 170.3788
479 15.8207
492 184.8013
546 161.3660
641 200.1216
776 11.1071
836 49.7006
905 221.5498
919 98.7440
988 95.0214
1139 219.0196
1332 338.6360
1388 58.3873
1606 282.5744
1642 153.8686
1655 48.4143
1759 18.4512
1952 114.7198
1986 88.3118
2049 353.9939
2207 106.8718
2220 228.7780
2267 106.7463
2305 26.5994
2319 100.0030
2601 194.9401
2653 331.0971
2695 99.1062
2741 296.1030
2763 30.6377
2818 173.7701
2847 216.7993
2913 194.2778
2968 342.2683
2982 230.2957
2996 21.9619
3051 195.7698
3105 228.3742
3240 131.7147
3280 128.6700
3290 256.5962
3365 131.0628
3426 271.5955
3477 143.3700
3534 69.7225
3661 101.3706
3685 84.1740
3741 258.8531
3784 95.8997
3862 153.6726
PLANTSmolcadARTstart hb
PLANTSmolcadARTstart HB
LINES
28.6886 -9.46451 10.9793 29.658 -8.9 12.738 0 255 0 5
PLANTSmolcadARTstart HBCH
LINES
PLANTSmolcadARTstart HB-CHO
LINES
PLANTSmolcadARTend
PLANTSmolcadARTstart HB_WATER
LINES
PLANTSmolcadARTend

PLANTSmolcadARTend

