@<TRIPOS>MOLECULE
olaparib_entry_00001_conf_54
55 59 1
SMALL
NO_CHARGES


@<TRIPOS>ATOM
      1 N          24.4611  -15.2262    9.8691 N.am      1 UNL1        0.0000
      2 N          24.1919  -16.9520    7.9462 N.am      1 UNL1        0.0000
      3 N          25.5413   -9.8590    7.7537 N.2       1 UNL1        0.0000
      4 N          25.8928   -9.4571    6.5564 N.am      1 UNL1        0.0000
      5 C          26.6459   -8.3701    6.3375 C.2       1 UNL1        0.0000
      6 C          27.0763   -7.6319    7.4207 C.ar      1 UNL1        0.0000
      7 C          27.8456   -6.4806    7.2484 C.ar      1 UNL1        0.0000
      8 C          28.2464   -5.7468    8.3441 C.ar      1 UNL1        0.0000
      9 C          27.8509   -6.2059    9.5826 C.ar      1 UNL1        0.0000
     10 C          27.0873   -7.3462    9.7684 C.ar      1 UNL1        0.0000
     11 C          26.6982   -8.0665    8.6777 C.ar      1 UNL1        0.0000
     12 C          25.9290   -9.1813    8.8778 C.2       1 UNL1        0.0000
     13 C          25.5271   -9.7697   10.1488 C.3       1 UNL1        0.0000
     14 C          24.3723  -10.6903    9.9578 C.ar      1 UNL1        0.0000
     15 C          24.5705  -12.0103   10.4005 C.ar      1 UNL1        0.0000
     16 C          23.5658  -12.9371   10.2578 C.ar      1 UNL1        0.0000
     17 C          23.7452  -14.3350   10.7107 C.2       1 UNL1        0.0000
     18 C          24.6586  -16.5805   10.2738 C.3       1 UNL1        0.0000
     19 C          24.8375  -17.5203    9.1009 C.3       1 UNL1        0.0000
     20 C          24.7121  -15.6708    7.4564 C.3       1 UNL1        0.0000
     21 C          24.9798  -14.7341    8.6063 C.3       1 UNL1        0.0000
     22 C          23.1164  -17.5739    7.3053 C.2       1 UNL1        0.0000
     23 C          22.4790  -18.8388    7.6802 C.3       1 UNL1        0.0000
     24 C          23.1226  -20.0958    7.1399 C.3       1 UNL1        0.0000
     25 C          21.7996  -19.6851    6.6644 C.3       1 UNL1        0.0000
     26 C          22.3459  -12.6463    9.6946 C.ar      1 UNL1        0.0000
     27 C          22.1530  -11.3540    9.2616 C.ar      1 UNL1        0.0000
     28 C          23.1764  -10.4060    9.4048 C.ar      1 UNL1        0.0000
     29 O          26.9942   -7.9697    5.1972 O.2       1 UNL1        0.0000
     30 O          22.6192  -16.9903    6.2769 O.2       1 UNL1        0.0000
     31 O          23.2889  -14.7475   11.8017 O.2       1 UNL1        0.0000
     32 F          21.3798  -13.6029    9.5746 F         1 UNL1        0.0000
     33 H          28.1156   -6.1782    6.2993 H         1 UNL1        0.0000
     34 H          28.8156   -4.8931    8.2420 H         1 UNL1        0.0000
     35 H          28.1391   -5.6706   10.4160 H         1 UNL1        0.0000
     36 H          26.8167   -7.6474   10.7178 H         1 UNL1        0.0000
     37 H          25.2472   -8.9894   10.8254 H         1 UNL1        0.0000
     38 H          26.3493  -10.3276   10.5464 H         1 UNL1        0.0000
     39 H          25.4679  -12.2823   10.8310 H         1 UNL1        0.0000
     40 H          23.8069  -16.8965   10.8396 H         1 UNL1        0.0000
     41 H          25.5559  -16.6160   10.8566 H         1 UNL1        0.0000
     42 H          24.3972  -18.4680    9.3294 H         1 UNL1        0.0000
     43 H          25.8802  -17.6584    8.9028 H         1 UNL1        0.0000
     44 H          23.9933  -15.2257    6.8008 H         1 UNL1        0.0000
     45 H          25.6294  -15.8462    6.9342 H         1 UNL1        0.0000
     46 H          24.5197  -13.7917    8.3936 H         1 UNL1        0.0000
     47 H          26.0405  -14.6460    8.7082 H         1 UNL1        0.0000
     48 H          22.1830  -18.4464    8.6303 H         1 UNL1        0.0000
     49 H          23.2225  -20.9577    7.7664 H         1 UNL1        0.0000
     50 H          24.0574  -20.3274    6.6737 H         1 UNL1        0.0000
     51 H          20.9366  -20.2551    6.9391 H         1 UNL1        0.0000
     52 H          21.3778  -19.5002    5.6994 H         1 UNL1        0.0000
     53 H          21.2543  -11.0829    8.8315 H         1 UNL1        0.0000
     54 H          23.0059   -9.4441    9.0714 H         1 UNL1        0.0000
     55 H          25.5888   -9.9803    5.7794 H         1 UNL1        0.0000
@<TRIPOS>BOND
     1    1   18 1
     2    1   21 1
     3    1   17 am
     4    2   19 1
     5    2   20 1
     6    2   22 am
     7    3    4 1
     8    3   12 2
     9    4    5 am
    10    4   55 1
    11    5   29 2
    12    5    6 1
    13    6    7 ar
    14    6   11 ar
    15    7    8 ar
    16    7   33 1
    17    8   34 1
    18    8    9 ar
    19    9   10 ar
    20    9   35 1
    21   10   11 ar
    22   10   36 1
    23   11   12 1
    24   12   13 1
    25   13   37 1
    26   13   38 1
    27   13   14 1
    28   14   15 ar
    29   14   28 ar
    30   15   39 1
    31   15   16 ar
    32   16   26 ar
    33   16   17 1
    34   17   31 2
    35   18   19 1
    36   18   40 1
    37   18   41 1
    38   19   42 1
    39   19   43 1
    40   20   21 1
    41   20   45 1
    42   20   44 1
    43   21   46 1
    44   21   47 1
    45   22   30 2
    46   22   23 1
    47   23   25 1
    48   23   24 1
    49   23   48 1
    50   24   25 1
    51   24   49 1
    52   24   50 1
    53   25   51 1
    54   25   52 1
    55   26   27 ar
    56   26   32 1
    57   27   28 ar
    58   27   53 1
    59   28   54 1
@<TRIPOS>SUBSTRUCTURE
1 UNL1 1
@<TRIPOS>COMMENT
olaparib
PLANTSproteinTorsions
57
1 36.1862
19 350.2328
33 79.4915
53 2.7263
108 133.0211
228 141.3216
405 70.3876
438 42.3943
479 196.3383
492 35.6620
546 202.5994
641 87.7964
776 159.9578
836 16.2096
905 214.6887
919 112.6501
988 297.4277
1139 158.2236
1332 264.6388
1388 205.5832
1606 289.7455
1642 15.9651
1655 0.1215
1759 120.4371
1952 134.2190
1986 100.0637
2049 101.1536
2207 220.7886
2220 116.6709
2267 163.2440
2305 241.5708
2319 33.6457
2601 88.8112
2653 72.5376
2695 354.6643
2741 202.4518
2763 247.1051
2818 33.4965
2847 171.2354
2913 210.7112
2968 238.3518
2982 116.4917
2996 318.5615
3051 260.3470
3105 269.4174
3240 226.0510
3280 230.4602
3290 132.8177
3365 197.4845
3426 250.6765
3477 182.7789
3534 158.2935
3661 172.3499
3685 234.2952
3741 109.5864
3784 42.5677
3862 240.1547
PLANTSmolcadARTstart hb
PLANTSmolcadARTstart HB
LINES
PLANTSmolcadARTstart HBCH
LINES
PLANTSmolcadARTstart HB-CHO
LINES
PLANTSmolcadARTend
PLANTSmolcadARTstart HB_WATER
LINES
PLANTSmolcadARTend

PLANTSmolcadARTend

