@<TRIPOS>MOLECULE
olaparib_entry_00001_conf_87
55 59 1
SMALL
NO_CHARGES


@<TRIPOS>ATOM
      1 N          28.2916  -17.8642   -4.1681 N.am      1 UNL1        0.0000
      2 N          27.3647  -17.3009   -6.5286 N.am      1 UNL1        0.0000
      3 N          34.4823  -15.9282   -1.5061 N.2       1 UNL1        0.0000
      4 N          35.6399  -15.3184   -1.5885 N.am      1 UNL1        0.0000
      5 C          36.3487  -14.9387   -0.5159 C.2       1 UNL1        0.0000
      6 C          35.8415  -15.1985    0.7406 C.ar      1 UNL1        0.0000
      7 C          36.5286  -14.8069    1.8902 C.ar      1 UNL1        0.0000
      8 C          35.9925  -15.0579    3.1349 C.ar      1 UNL1        0.0000
      9 C          34.7722  -15.6987    3.1724 C.ar      1 UNL1        0.0000
     10 C          34.0792  -16.0925    2.0399 C.ar      1 UNL1        0.0000
     11 C          34.6196  -15.8417    0.8132 C.ar      1 UNL1        0.0000
     12 C          33.9133  -16.2218   -0.2964 C.2       1 UNL1        0.0000
     13 C          32.6578  -16.9597   -0.3434 C.3       1 UNL1        0.0000
     14 C          31.7195  -16.3352   -1.3165 C.ar      1 UNL1        0.0000
     15 C          30.5679  -17.0854   -1.6143 C.ar      1 UNL1        0.0000
     16 C          29.6467  -16.5971   -2.5096 C.ar      1 UNL1        0.0000
     17 C          28.4265  -17.3646   -2.8463 C.2       1 UNL1        0.0000
     18 C          27.1314  -18.6130   -4.5291 C.3       1 UNL1        0.0000
     19 C          26.8170  -18.5261   -6.0072 C.3       1 UNL1        0.0000
     20 C          28.8219  -17.1440   -6.4662 C.3       1 UNL1        0.0000
     21 C          29.3464  -17.5996   -5.1289 C.3       1 UNL1        0.0000
     22 C          26.5641  -16.2924   -7.0729 C.2       1 UNL1        0.0000
     23 C          25.1036  -16.2945   -7.1920 C.3       1 UNL1        0.0000
     24 C          24.5351  -16.9802   -8.4137 C.3       1 UNL1        0.0000
     25 C          24.4215  -15.5274   -8.2671 C.3       1 UNL1        0.0000
     26 C          29.7840  -15.3880   -3.1492 C.ar      1 UNL1        0.0000
     27 C          30.9117  -14.6545   -2.8570 C.ar      1 UNL1        0.0000
     28 C          31.8541  -15.1502   -1.9447 C.ar      1 UNL1        0.0000
     29 O          37.4608  -14.3542   -0.5747 O.2       1 UNL1        0.0000
     30 O          27.1515  -15.2439   -7.5211 O.2       1 UNL1        0.0000
     31 O          27.5219  -17.5827   -2.0079 O.2       1 UNL1        0.0000
     32 F          28.8407  -14.9469   -4.0314 F         1 UNL1        0.0000
     33 H          37.4398  -14.3293    1.8087 H         1 UNL1        0.0000
     34 H          36.4816  -14.7786    3.9986 H         1 UNL1        0.0000
     35 H          34.3525  -15.8950    4.0941 H         1 UNL1        0.0000
     36 H          33.1673  -16.5691    2.1222 H         1 UNL1        0.0000
     37 H          32.2106  -16.9564    0.6287 H         1 UNL1        0.0000
     38 H          32.8587  -17.9635   -0.6553 H         1 UNL1        0.0000
     39 H          30.4152  -18.0001   -1.1620 H         1 UNL1        0.0000
     40 H          26.2952  -18.2356   -3.9780 H         1 UNL1        0.0000
     41 H          27.3254  -19.6404   -4.2995 H         1 UNL1        0.0000
     42 H          25.7570  -18.5361   -6.1502 H         1 UNL1        0.0000
     43 H          27.2463  -19.3625   -6.5189 H         1 UNL1        0.0000
     44 H          29.0721  -16.1137   -6.6092 H         1 UNL1        0.0000
     45 H          29.2678  -17.7422   -7.2332 H         1 UNL1        0.0000
     46 H          29.9831  -16.8358   -4.7333 H         1 UNL1        0.0000
     47 H          29.8737  -18.5163   -5.2864 H         1 UNL1        0.0000
     48 H          24.9839  -16.3416   -6.1300 H         1 UNL1        0.0000
     49 H          23.6651  -17.5970   -8.3251 H         1 UNL1        0.0000
     50 H          24.9243  -17.6383   -9.1624 H         1 UNL1        0.0000
     51 H          23.4647  -15.0864   -8.0797 H         1 UNL1        0.0000
     52 H          24.6938  -14.6923   -8.8767 H         1 UNL1        0.0000
     53 H          31.0630  -13.7390   -3.3099 H         1 UNL1        0.0000
     54 H          32.6910  -14.5803   -1.7437 H         1 UNL1        0.0000
     55 H          36.0071  -15.1306   -2.4827 H         1 UNL1        0.0000
@<TRIPOS>BOND
     1    1   18 1
     2    1   21 1
     3    1   17 am
     4    2   19 1
     5    2   20 1
     6    2   22 am
     7    3    4 1
     8    3   12 2
     9    4    5 am
    10    4   55 1
    11    5   29 2
    12    5    6 1
    13    6    7 ar
    14    6   11 ar
    15    7    8 ar
    16    7   33 1
    17    8   34 1
    18    8    9 ar
    19    9   10 ar
    20    9   35 1
    21   10   11 ar
    22   10   36 1
    23   11   12 1
    24   12   13 1
    25   13   37 1
    26   13   38 1
    27   13   14 1
    28   14   15 ar
    29   14   28 ar
    30   15   39 1
    31   15   16 ar
    32   16   26 ar
    33   16   17 1
    34   17   31 2
    35   18   19 1
    36   18   40 1
    37   18   41 1
    38   19   42 1
    39   19   43 1
    40   20   21 1
    41   20   45 1
    42   20   44 1
    43   21   46 1
    44   21   47 1
    45   22   30 2
    46   22   23 1
    47   23   25 1
    48   23   24 1
    49   23   48 1
    50   24   25 1
    51   24   49 1
    52   24   50 1
    53   25   51 1
    54   25   52 1
    55   26   27 ar
    56   26   32 1
    57   27   28 ar
    58   27   53 1
    59   28   54 1
@<TRIPOS>SUBSTRUCTURE
1 UNL1 1
@<TRIPOS>COMMENT
olaparib
PLANTSproteinTorsions
57
1 258.7570
19 334.6401
33 99.4110
53 246.3178
108 138.6937
228 128.5542
405 128.7578
438 242.7270
479 84.1976
492 159.6792
546 94.8154
641 21.2239
776 84.7919
836 244.4123
905 83.9439
919 334.5506
988 236.0113
1139 169.7690
1332 14.1936
1388 319.2426
1606 204.2352
1642 288.5244
1655 87.4875
1759 155.4991
1952 198.0075
1986 21.8173
2049 337.6761
2207 247.3898
2220 269.0405
2267 97.1964
2305 265.9022
2319 231.4110
2601 163.3516
2653 53.6287
2695 118.8304
2741 188.4119
2763 39.0294
2818 139.7054
2847 204.9810
2913 309.9793
2968 59.2608
2982 291.1448
2996 17.8989
3051 121.8276
3105 251.6595
3240 310.6606
3280 305.3904
3290 259.9241
3365 192.7619
3426 138.8163
3477 72.4926
3534 18.0307
3661 112.1766
3685 337.7099
3741 92.1398
3784 88.7607
3862 80.5701
PLANTSmolcadARTstart hb
PLANTSmolcadARTstart HB
LINES
PLANTSmolcadARTstart HBCH
LINES
PLANTSmolcadARTstart HB-CHO
LINES
PLANTSmolcadARTend
PLANTSmolcadARTstart HB_WATER
LINES
PLANTSmolcadARTend

PLANTSmolcadARTend

