@<TRIPOS>MOLECULE
olaparib_entry_00001_conf_31
55 59 1
SMALL
NO_CHARGES


@<TRIPOS>ATOM
      1 N          23.2073   -7.8560    5.7984 N.am      1 UNL1        0.0000
      2 N          21.1190   -8.9290    4.6868 N.am      1 UNL1        0.0000
      3 N          28.0836   -6.9811    8.8557 N.2       1 UNL1        0.0000
      4 N          28.7681   -6.0361    8.2582 N.am      1 UNL1        0.0000
      5 C          28.7370   -4.7518    8.6410 C.2       1 UNL1        0.0000
      6 C          27.9475   -4.3988    9.7161 C.ar      1 UNL1        0.0000
      7 C          27.8630   -3.0732   10.1437 C.ar      1 UNL1        0.0000
      8 C          27.0513   -2.7404   11.2067 C.ar      1 UNL1        0.0000
      9 C          26.3484   -3.7665   11.8019 C.ar      1 UNL1        0.0000
     10 C          26.4223   -5.0860   11.3879 C.ar      1 UNL1        0.0000
     11 C          27.2305   -5.4051   10.3368 C.ar      1 UNL1        0.0000
     12 C          27.2786   -6.7112    9.9292 C.2       1 UNL1        0.0000
     13 C          26.6249   -7.8602   10.5421 C.3       1 UNL1        0.0000
     14 C          25.9656   -8.7020    9.5058 C.ar      1 UNL1        0.0000
     15 C          25.6069   -8.0343    8.3212 C.ar      1 UNL1        0.0000
     16 C          24.9835   -8.7245    7.3094 C.ar      1 UNL1        0.0000
     17 C          24.5906   -8.0490    6.0522 C.2       1 UNL1        0.0000
     18 C          22.7897   -7.2043    4.5993 C.3       1 UNL1        0.0000
     19 C          21.4003   -7.6174    4.1637 C.3       1 UNL1        0.0000
     20 C          21.0897   -9.0707    6.1466 C.3       1 UNL1        0.0000
     21 C          22.2426   -8.3297    6.7734 C.3       1 UNL1        0.0000
     22 C          20.8826  -10.0319    3.8610 C.2       1 UNL1        0.0000
     23 C          20.8915  -10.0537    2.3959 C.3       1 UNL1        0.0000
     24 C          19.5784   -9.7371    1.7163 C.3       1 UNL1        0.0000
     25 C          20.1378  -11.0886    1.6405 C.3       1 UNL1        0.0000
     26 C          24.6812  -10.0635    7.3847 C.ar      1 UNL1        0.0000
     27 C          25.0327  -10.7161    8.5447 C.ar      1 UNL1        0.0000
     28 C          25.6679  -10.0146    9.5794 C.ar      1 UNL1        0.0000
     29 O          29.3871   -3.8318    8.0818 O.2       1 UNL1        0.0000
     30 O          20.6297  -11.1549    4.4268 O.2       1 UNL1        0.0000
     31 O          25.4339   -7.6481    5.2174 O.2       1 UNL1        0.0000
     32 F          24.0601  -10.7042    6.3521 F         1 UNL1        0.0000
     33 H          28.4095   -2.3410    9.6640 H         1 UNL1        0.0000
     34 H          26.9728   -1.7682   11.5410 H         1 UNL1        0.0000
     35 H          25.7338   -3.5388   12.5985 H         1 UNL1        0.0000
     36 H          25.8746   -5.8177   11.8675 H         1 UNL1        0.0000
     37 H          25.8880   -7.5166   11.2377 H         1 UNL1        0.0000
     38 H          27.3629   -8.4496   11.0453 H         1 UNL1        0.0000
     39 H          25.8109   -7.0287    8.2122 H         1 UNL1        0.0000
     40 H          23.4804   -7.4480    3.8188 H         1 UNL1        0.0000
     41 H          22.7682   -6.1518    4.7941 H         1 UNL1        0.0000
     42 H          21.3498   -7.6377    3.0954 H         1 UNL1        0.0000
     43 H          20.6810   -6.9168    4.5340 H         1 UNL1        0.0000
     44 H          21.1580  -10.1074    6.4018 H         1 UNL1        0.0000
     45 H          20.1738   -8.6591    6.5163 H         1 UNL1        0.0000
     46 H          22.7419   -8.9874    7.4541 H         1 UNL1        0.0000
     47 H          21.8410   -7.4721    7.2697 H         1 UNL1        0.0000
     48 H          21.9032   -9.7078    2.3637 H         1 UNL1        0.0000
     49 H          19.5627   -9.1146    0.8459 H         1 UNL1        0.0000
     50 H          18.6446   -9.3198    2.0306 H         1 UNL1        0.0000
     51 H          20.5219  -11.4523    0.7103 H         1 UNL1        0.0000
     52 H          19.7676  -12.0637    1.8758 H         1 UNL1        0.0000
     53 H          24.8285  -11.7225    8.6523 H         1 UNL1        0.0000
     54 H          25.9205  -10.5278   10.4387 H         1 UNL1        0.0000
     55 H          29.3336   -6.2821    7.4905 H         1 UNL1        0.0000
@<TRIPOS>BOND
     1    1   18 1
     2    1   21 1
     3    1   17 am
     4    2   19 1
     5    2   20 1
     6    2   22 am
     7    3    4 1
     8    3   12 2
     9    4    5 am
    10    4   55 1
    11    5   29 2
    12    5    6 1
    13    6    7 ar
    14    6   11 ar
    15    7    8 ar
    16    7   33 1
    17    8   34 1
    18    8    9 ar
    19    9   10 ar
    20    9   35 1
    21   10   11 ar
    22   10   36 1
    23   11   12 1
    24   12   13 1
    25   13   37 1
    26   13   38 1
    27   13   14 1
    28   14   15 ar
    29   14   28 ar
    30   15   39 1
    31   15   16 ar
    32   16   26 ar
    33   16   17 1
    34   17   31 2
    35   18   19 1
    36   18   40 1
    37   18   41 1
    38   19   42 1
    39   19   43 1
    40   20   21 1
    41   20   45 1
    42   20   44 1
    43   21   46 1
    44   21   47 1
    45   22   30 2
    46   22   23 1
    47   23   25 1
    48   23   24 1
    49   23   48 1
    50   24   25 1
    51   24   49 1
    52   24   50 1
    53   25   51 1
    54   25   52 1
    55   26   27 ar
    56   26   32 1
    57   27   28 ar
    58   27   53 1
    59   28   54 1
@<TRIPOS>SUBSTRUCTURE
1 UNL1 1
@<TRIPOS>COMMENT
olaparib
PLANTSproteinTorsions
57
1 17.8925
19 357.0372
33 28.9039
53 41.6005
108 30.1578
228 1.0209
405 180.9137
438 234.4588
479 288.5060
492 156.0231
546 201.3171
641 14.3411
776 334.9565
836 167.0798
905 232.5346
919 255.5536
988 88.4000
1139 157.2315
1332 37.1682
1388 237.6677
1606 82.9843
1642 129.2755
1655 340.4509
1759 69.5665
1952 206.6322
1986 159.1858
2049 148.3650
2207 42.0776
2220 195.0071
2267 38.5793
2305 231.7915
2319 129.9218
2601 87.8286
2653 20.2810
2695 243.4547
2741 238.5725
2763 300.3882
2818 201.4724
2847 135.3510
2913 232.1428
2968 142.4653
2982 123.2281
2996 148.0355
3051 153.1061
3105 32.2717
3240 80.4388
3280 68.0705
3290 78.8340
3365 264.5241
3426 132.0092
3477 243.8995
3534 143.8260
3661 106.5166
3685 265.6419
3741 216.9004
3784 19.8490
3862 262.7333
PLANTSmolcadARTstart hb
PLANTSmolcadARTstart HB
LINES
PLANTSmolcadARTstart HBCH
LINES
PLANTSmolcadARTstart HB-CHO
LINES
PLANTSmolcadARTend
PLANTSmolcadARTstart HB_WATER
LINES
PLANTSmolcadARTend

PLANTSmolcadARTend

