@<TRIPOS>MOLECULE
olaparib_entry_00001_conf_43_protein
164 107 56
SMALL
NO_CHARGES


@<TRIPOS>ATOM
      1 H          -1.0368  -17.6461   30.7218 H       764 LYS764      0.0000
      2 N          -1.8090  -17.0210   30.7870 N.4     764 LYS764      1.0000
      3 HZ1        -4.6092  -10.9730   33.7474 H       764 LYS764      0.0000
      4 NZ         -4.6160  -11.9740   33.7550 N.4     764 LYS764      1.0000
      5 HZ2        -5.2493  -12.3075   33.0564 H       764 LYS764      0.0000
      6 HZ3        -4.9124  -12.2973   34.6540 H       764 LYS764      0.0000
      7 H2         -2.2703  -17.1404   31.6616 H       764 LYS764      0.0000
      8 H3         -2.4462  -17.1897   30.0405 H       764 LYS764      0.0000
      9 HG          4.3067  -13.0865   31.0946 H       765 SER765      0.0000
     10 OG          4.1840  -13.1860   30.1070 O.3     765 SER765      0.0000
     11 HZ1         1.9994  -14.6947   38.8549 H       766 LYS766      0.0000
     12 NZ          1.4050  -15.2360   38.2610 N.4     766 LYS766      1.0000
     13 HZ2         1.1239  -14.6863   37.4758 H       766 LYS766      0.0000
     14 HZ3         0.5975  -15.5287   38.7718 H       766 LYS766      0.0000
     15 HZ1         1.9948   -3.3786   26.4608 H       769 LYS769      0.0000
     16 NZ          1.4680   -4.0750   25.9730 N.4     769 LYS769      1.0000
     17 HZ2         2.0644   -4.5492   25.3246 H       769 LYS769      0.0000
     18 HZ3         0.7184   -3.6369   25.4762 H       769 LYS769      0.0000
     19 HZ1        -0.7847  -10.2174   23.2272 H       776 LYS776      0.0000
     20 NZ          0.1170   -9.7850   23.1900 N.4     776 LYS776      1.0000
     21 HZ2         0.3991   -9.5240   24.1136 H       776 LYS776      0.0000
     22 HZ3         0.0699   -8.9682   22.6132 H       776 LYS776      0.0000
     23 HH         14.7804  -13.5041   30.4043 H       794 TYR794      0.0000
     24 OH         13.9770  -13.7890   30.9260 O.3     794 TYR794      0.0000
     25 HZ1         8.2785  -21.1139   20.2439 H       796 LYS796      0.0000
     26 NZ          8.2050  -22.0980   20.4120 N.4     796 LYS796      1.0000
     27 HZ2         8.3663  -22.5936   19.5579 H       796 LYS796      0.0000
     28 HZ3         7.2881  -22.3106   20.7512 H       796 LYS796      0.0000
     29 HZ1        17.9028  -24.8535   27.3531 H       798 LYS798      0.0000
     30 NZ         16.9690  -24.6940   27.0300 N.4     798 LYS798      1.0000
     31 HZ2        16.3979  -24.3985   27.7966 H       798 LYS798      0.0000
     32 HZ3        16.5994  -25.5430   26.6493 H       798 LYS798      0.0000
     33 HG1        20.0633  -14.8867   25.4503 H       799 THR799      0.0000
     34 OG1        19.0880  -15.1290   25.3720 O.3     799 THR799      0.0000
     35 HZ1        19.6670   -9.7276   37.2447 H       802 LYS802      0.0000
     36 NZ         18.9140   -9.0730   37.1700 N.4     802 LYS802      1.0000
     37 HZ2        19.2850   -8.1473   37.0876 H       802 LYS802      0.0000
     38 HZ3        18.3412   -9.1296   37.9880 H       802 LYS802      0.0000
     39 HG         18.8231    3.9049   33.4058 H       808 SER808      0.0000
     40 OG         18.8290    3.0870   33.9750 O.3     808 SER808      0.0000
     41 HZ1        27.4934   14.4390   27.3308 H       816 LYS816      0.0000
     42 NZ         27.0940   13.5620   27.6020 N.4     816 LYS816      1.0000
     43 HZ2        26.3315   13.7238   28.2306 H       816 LYS816      0.0000
     44 HZ3        27.7899   13.0078   28.0599 H       816 LYS816      0.0000
     45 HZ1        20.7353   17.1768   22.8093 H       819 LYS819      0.0000
     46 NZ         20.4900   16.2240   22.9930 N.4     819 LYS819      1.0000
     47 HZ2        19.4984   16.1540   23.1079 H       819 LYS819      0.0000
     48 HZ3        20.9421   15.9222   23.8339 H       819 LYS819      0.0000
     49 HG1        26.7452   12.9646    7.4084 H       824 THR824      0.0000
     50 OG1        27.0480   13.5740    8.1490 O.3     824 THR824      0.0000
     51 HG1        26.8736    8.4124    5.3306 H       825 THR825      0.0000
     52 OG1        26.3170    9.0170    5.9110 O.3     825 THR825      0.0000
     53 HH         19.6514    3.4186   11.0337 H       829 TYR829      0.0000
     54 OH         19.7890    4.1170   10.3320 O.3     829 TYR829      0.0000
     55 HZ1        23.6361   -3.5220   33.9706 H       838 LYS838      0.0000
     56 NZ         23.9540   -4.4680   34.0450 N.4     838 LYS838      1.0000
     57 HZ2        23.6287   -4.8607   34.9058 H       838 LYS838      0.0000
     58 HZ3        24.9544   -4.4841   34.0305 H       838 LYS838      0.0000
     59 HZ1        36.2351  -20.2233   34.8602 H       849 LYS849      0.0000
     60 NZ         35.3740  -19.7320   34.9990 N.4     849 LYS849      1.0000
     61 HZ2        35.3818  -19.2948   35.8991 H       849 LYS849      0.0000
     62 HZ3        34.6110  -20.3776   34.9499 H       849 LYS849      0.0000
     63 HZ1        34.8219   -9.3720   30.4530 H       852 LYS852      0.0000
     64 NZ         34.3540   -8.6150   30.9110 N.4     852 LYS852      1.0000
     65 HZ2        33.3953   -8.5938   30.6230 H       852 LYS852      0.0000
     66 HZ3        34.7950   -7.7524   30.6619 H       852 LYS852      0.0000
     67 HG         21.1586  -10.2139   12.3484 H       864 SER864      0.0000
     68 OG         20.4070   -9.6170   12.0730 O.3     864 SER864      0.0000
     69 HG1        12.3959   -6.0546   12.9845 H       866 THR866      0.0000
     70 OG1        12.7710   -6.5990   13.7440 O.3     866 THR866      0.0000
     71 HG1        14.1638  -11.0507   10.0147 H       867 THR867      0.0000
     72 OG1        13.8710  -11.9580    9.6910 O.3     867 THR867      0.0000
     73 HG         18.9068  -20.1170   19.1247 H       874 SER874      0.0000
     74 OG         18.3140  -19.3790   19.4500 O.3     874 SER874      0.0000
     75 HG1        28.3094  -10.7630   -3.1077 H       887 THR887      0.0000
     76 OG1        28.7570  -10.8640   -2.2110 O.3     887 THR887      0.0000
     77 HH         27.0837  -12.7060    6.8531 H       889 TYR889      0.0000
     78 OH         27.4610  -11.9710    7.4180 O.3     889 TYR889      0.0000
     79 HZ1        30.1685  -17.8135    3.5342 H       893 LYS893      0.0000
     80 NZ         31.0380  -17.4100    3.2450 N.4     893 LYS893      1.0000
     81 HZ2        31.0633  -17.3555    2.2461 H       893 LYS893      0.0000
     82 HZ3        31.7927  -17.9841    3.5647 H       893 LYS893      0.0000
     83 HZ1        31.6475    1.6443    9.5549 H       903 LYS903      0.0000
     84 NZ         31.2940    1.1550    8.7570 N.4     903 LYS903      1.0000
     85 HZ2        31.8497    0.3382    8.5950 H       903 LYS903      0.0000
     86 HZ3        31.3397    1.7516    7.9549 H       903 LYS903      0.0000
     87 HG         25.7841   -2.3732   14.4448 H       904 SER904      0.0000
     88 OG         25.7970   -1.4170   14.1610 O.3     904 SER904      0.0000
     89 HH         26.6917   -3.5040    5.3673 H       907 TYR907      0.0000
     90 OH         26.8550   -3.0780    6.2560 O.3     907 TYR907      0.0000
     91 HG1        14.5173    0.5041    9.0582 H       910 THR910      0.0000
     92 OG1        14.0450    0.5090    9.9470 O.3     910 THR910      0.0000
     93 HG          8.6057   -1.3451    5.1248 H       911 SER911      0.0000
     94 OG          9.2550   -1.1060    5.8440 O.3     911 SER911      0.0000
     95 HH         48.5999   -6.8460    8.1362 H       930 TYR930      0.0000
     96 OH         47.6330   -6.7930    7.8910 O.3     930 TYR930      0.0000
     97 HZ1        45.9676    5.7859    6.3143 H       933 LYS933      0.0000
     98 NZ         45.5450    5.4620    5.4640 N.4     933 LYS933      1.0000
     99 HZ2        46.2438    5.4341    4.7442 H       933 LYS933      0.0000
    100 HZ3        44.8245    6.1060    5.1936 H       933 LYS933      0.0000
    101 HG         43.9743   -7.5138    2.5995 H       936 SER936      0.0000
    102 OG         43.3320   -7.7720    3.3190 O.3     936 SER936      0.0000
    103 HG         45.9602  -14.5722    5.5042 H       939 SER939      0.0000
    104 OG         45.8480  -15.5290    5.7620 O.3     939 SER939      0.0000
    105 HZ1        49.4015  -18.9906   12.3529 H       940 LYS940      0.0000
    106 NZ         48.4430  -19.1590   12.5840 N.4     940 LYS940      1.0000
    107 HZ2        48.3887  -19.5880   13.4862 H       940 LYS940      0.0000
    108 HZ3        48.0381  -19.7673   11.9011 H       940 LYS940      0.0000
    109 HZ1        55.0825  -16.5799   13.1180 H       943 LYS943      0.0000
    110 NZ         54.8780  -16.3930   14.0810 N.4     943 LYS943      1.0000
    111 HZ2        55.4803  -15.6627   14.4097 H       943 LYS943      0.0000
    112 HZ3        55.0430  -17.2224   14.6190 H       943 LYS943      0.0000
    113 HZ1        48.8202   -3.4492   15.7783 H       945 LYS945      0.0000
    114 NZ         47.9660   -3.9500   15.9300 N.4     945 LYS945      1.0000
    115 HZ2        47.1997   -3.4059   15.5834 H       945 LYS945      0.0000
    116 HZ3        47.8427   -4.1030   16.9125 H       945 LYS945      0.0000
    117 HZ1        38.8426    4.3667   15.6974 H       949 LYS949      0.0000
    118 NZ         39.0210    3.4460   16.0470 N.4     949 LYS949      1.0000
    119 HZ2        38.6058    3.3499   16.9530 H       949 LYS949      0.0000
    120 HZ3        40.0089    3.3039   16.1181 H       949 LYS949      0.0000
    121 HZ1        39.3763   12.4055    3.7390 H       953 LYS953      0.0000
    122 NZ         39.3720   11.7790    4.5190 N.4     953 LYS953      1.0000
    123 HZ2        39.7467   12.2440    5.3213 H       953 LYS953      0.0000
    124 HZ3        39.9324   10.9785    4.3057 H       953 LYS953      0.0000
    125 HG1        32.5378   12.3776    9.9243 H       954 THR954      0.0000
    126 OG1        32.8150   11.4890    9.5420 O.3     954 THR954      0.0000
    127 HG1        37.0208    7.0724   15.8684 H       955 THR955      0.0000
    128 OG1        36.2440    7.7040   15.9730 O.3     955 THR955      0.0000
    129 HG         36.5668   15.6419   24.5200 H       959 SER959      0.0000
    130 OG         36.7030   14.9300   23.8350 O.3     959 SER959      0.0000
    131 HG         35.0392    1.7175   31.6845 H       963 SER963      0.0000
    132 OG         34.6240    2.2350   32.4300 O.3     963 SER963      0.0000
    133 HG1        30.2890   15.2558   20.0243 H       973 THR973      0.0000
    134 OG1        29.9090   15.5570   19.1430 O.3     973 THR973      0.0000
    135 HG         37.8921   13.8648    9.4291 H       976 SER976      0.0000
    136 OG         38.2040   14.7390    9.8050 O.3     976 SER976      0.0000
    137 HG         40.0414    9.4879   10.3059 H       977 SER977      0.0000
    138 OG         39.0840    9.7360   10.4400 O.3     977 SER977      0.0000
    139 HG         37.8712    1.3673   -0.4113 H       983 SER983      0.0000
    140 OG         38.3060    1.7120    0.4210 O.3     983 SER983      0.0000
    141 HH         28.5299   10.3204    8.0127 H       986 TYR986      0.0000
    142 OH         28.1490    9.4530    7.6940 O.3     986 TYR986      0.0000
    143 HH         36.2380    2.1950   18.0455 H       989 TYR989      0.0000
    144 OH         35.5890    2.1920   17.2870 O.3     989 TYR989      0.0000
    145 HH         39.0820   -8.9656   10.1241 H       992 TYR992      0.0000
    146 OH         38.5210   -9.6720    9.6920 O.3     992 TYR992      0.0000
    147 HZ1        28.6642   -4.1347   31.3990 H      1000 LYS1000     0.0000
    148 NZ         28.7270   -4.9670   30.8480 N.4    1000 LYS1000     1.0000
    149 HZ2        28.7850   -5.7635   31.4501 H      1000 LYS1000     0.0000
    150 HZ3        29.5417   -4.9242   30.2709 H      1000 LYS1000     0.0000
    151 HH         24.4920   -0.7241   30.8949 H      1001 TYR1001     0.0000
    152 OH         24.3090   -1.7060   30.9120 O.3    1001 TYR1001     0.0000
    153 HZ1         7.6236   -2.7979   22.8466 H      1004 LYS1004     0.0000
    154 NZ          7.6740   -2.8190   21.8480 N.4    1004 LYS1004     1.0000
    155 HZ2         6.8135   -2.4857   21.4635 H      1004 LYS1004     0.0000
    156 HZ3         7.8341   -3.7576   21.5421 H      1004 LYS1004     0.0000
    157 HZ1         5.7672    6.1599   14.8348 H      1006 LYS1006     0.0000
    158 NZ          6.7120    6.1960   15.1620 N.4    1006 LYS1006     1.0000
    159 HZ2         6.7308    6.0140   16.1457 H      1006 LYS1006     0.0000
    160 HZ3         7.0912    7.1045   14.9845 H      1006 LYS1006     0.0000
    161 HZ1        16.5331   13.9961    8.5803 H      1010 LYS1010     0.0000
    162 NZ         16.4710   13.2710    9.2670 N.4    1010 LYS1010     1.0000
    163 HZ2        16.5889   13.6648   10.1787 H      1010 LYS1010     0.0000
    164 HZ3        17.1892   12.5939    9.1015 H      1010 LYS1010     0.0000
@<TRIPOS>BOND
     1    2    7 1
     2    2    8 1
     3    2    1 1
     4    4    3 1
     5    4    5 1
     6    4    6 1
     7   10    9 1
     8   12   11 1
     9   12   13 1
    10   12   14 1
    11   16   18 1
    12   16   15 1
    13   16   17 1
    14   20   19 1
    15   20   21 1
    16   20   22 1
    17   24   23 1
    18   26   28 1
    19   26   25 1
    20   26   27 1
    21   30   31 1
    22   30   32 1
    23   30   29 1
    24   34   33 1
    25   36   35 1
    26   36   37 1
    27   36   38 1
    28   40   39 1
    29   42   43 1
    30   42   44 1
    31   42   41 1
    32   46   45 1
    33   46   47 1
    34   46   48 1
    35   50   49 1
    36   52   51 1
    37   54   53 1
    38   56   55 1
    39   56   58 1
    40   56   57 1
    41   60   59 1
    42   60   61 1
    43   60   62 1
    44   64   63 1
    45   64   65 1
    46   64   66 1
    47   68   67 1
    48   70   69 1
    49   72   71 1
    50   74   73 1
    51   76   75 1
    52   78   77 1
    53   80   79 1
    54   80   81 1
    55   80   82 1
    56   84   83 1
    57   84   85 1
    58   84   86 1
    59   88   87 1
    60   90   89 1
    61   92   91 1
    62   94   93 1
    63   96   95 1
    64   98   97 1
    65   98   99 1
    66   98  100 1
    67  102  101 1
    68  104  103 1
    69  106  105 1
    70  106  107 1
    71  106  108 1
    72  110  112 1
    73  110  109 1
    74  110  111 1
    75  114  116 1
    76  114  113 1
    77  114  115 1
    78  118  117 1
    79  118  119 1
    80  118  120 1
    81  122  121 1
    82  122  123 1
    83  122  124 1
    84  126  125 1
    85  128  127 1
    86  130  129 1
    87  132  131 1
    88  134  133 1
    89  136  135 1
    90  138  137 1
    91  140  139 1
    92  142  141 1
    93  144  143 1
    94  146  145 1
    95  148  147 1
    96  148  149 1
    97  148  150 1
    98  152  151 1
    99  154  153 1
   100  154  156 1
   101  154  155 1
   102  158  157 1
   103  158  159 1
   104  158  160 1
   105  162  164 1
   106  162  161 1
   107  162  163 1
@<TRIPOS>SUBSTRUCTURE
764 LYS764 1
765 SER765 9
766 LYS766 11
769 LYS769 15
776 LYS776 19
794 TYR794 23
796 LYS796 25
798 LYS798 29
799 THR799 33
802 LYS802 35
808 SER808 39
816 LYS816 41
819 LYS819 45
824 THR824 49
825 THR825 51
829 TYR829 53
838 LYS838 55
849 LYS849 59
852 LYS852 63
864 SER864 67
866 THR866 69
867 THR867 71
874 SER874 73
887 THR887 75
889 TYR889 77
893 LYS893 79
903 LYS903 83
904 SER904 87
907 TYR907 89
910 THR910 91
911 SER911 93
930 TYR930 95
933 LYS933 97
936 SER936 101
939 SER939 103
940 LYS940 105
943 LYS943 109
945 LYS945 113
949 LYS949 117
953 LYS953 121
954 THR954 125
955 THR955 127
959 SER959 129
963 SER963 131
973 THR973 133
976 SER976 135
977 SER977 137
983 SER983 139
986 TYR986 141
989 TYR989 143
992 TYR992 145
1000 LYS1000 147
1001 TYR1001 151
1004 LYS1004 153
1006 LYS1006 157
1010 LYS1010 161
@<TRIPOS>COMMENT
