@<TRIPOS>MOLECULE
olaparib_entry_00001_conf_50
55 59 1
SMALL
NO_CHARGES


@<TRIPOS>ATOM
      1 N          32.7845  -19.9556   11.2753 N.am      1 UNL1        0.0000
      2 N          33.8351  -21.0151    9.1488 N.am      1 UNL1        0.0000
      3 N          25.8676  -22.8348   10.5036 N.2       1 UNL1        0.0000
      4 N          24.5585  -22.8877   10.5492 N.am      1 UNL1        0.0000
      5 C          23.7826  -21.8010   10.6677 C.2       1 UNL1        0.0000
      6 C          24.3840  -20.5617   10.7465 C.ar      1 UNL1        0.0000
      7 C          23.6245  -19.4000   10.8908 C.ar      1 UNL1        0.0000
      8 C          24.2478  -18.1747   10.9891 C.ar      1 UNL1        0.0000
      9 C          25.6257  -18.1683   10.9391 C.ar      1 UNL1        0.0000
     10 C          26.3919  -19.3131   10.7966 C.ar      1 UNL1        0.0000
     11 C          25.7652  -20.5203   10.6977 C.ar      1 UNL1        0.0000
     12 C          26.5380  -21.6437   10.5749 C.2       1 UNL1        0.0000
     13 C          27.9875  -21.7180   10.4463 C.3       1 UNL1        0.0000
     14 C          28.6502  -21.1426   11.6491 C.ar      1 UNL1        0.0000
     15 C          30.0420  -20.9681   11.5486 C.ar      1 UNL1        0.0000
     16 C          30.7448  -20.4529   12.6113 C.ar      1 UNL1        0.0000
     17 C          32.2107  -20.2605   12.5374 C.2       1 UNL1        0.0000
     18 C          34.1938  -19.7584   11.1652 C.3       1 UNL1        0.0000
     19 C          34.7210  -20.0729    9.7817 C.3       1 UNL1        0.0000
     20 C          32.4559  -20.5752    8.9111 C.3       1 UNL1        0.0000
     21 C          31.9164  -19.8504   10.1173 C.3       1 UNL1        0.0000
     22 C          34.2475  -22.2960    8.7704 C.2       1 UNL1        0.0000
     23 C          35.5778  -22.8830    8.9518 C.3       1 UNL1        0.0000
     24 C          36.5726  -22.6368    7.8401 C.3       1 UNL1        0.0000
     25 C          36.0543  -23.9861    8.0766 C.3       1 UNL1        0.0000
     26 C          30.1561  -20.0868   13.7985 C.ar      1 UNL1        0.0000
     27 C          28.7937  -20.2581   13.8959 C.ar      1 UNL1        0.0000
     28 C          28.0737  -20.7845   12.8138 C.ar      1 UNL1        0.0000
     29 O          22.5261  -21.8313   10.7119 O.2       1 UNL1        0.0000
     30 O          33.3835  -23.0552    8.2025 O.2       1 UNL1        0.0000
     31 O          32.9488  -20.3578   13.5446 O.2       1 UNL1        0.0000
     32 F          30.8983  -19.5801   14.8257 F         1 UNL1        0.0000
     33 H          22.5946  -19.4581   10.9234 H         1 UNL1        0.0000
     34 H          23.7080  -17.3026   11.0957 H         1 UNL1        0.0000
     35 H          26.1121  -17.2616   11.0122 H         1 UNL1        0.0000
     36 H          27.4219  -19.2543   10.7653 H         1 UNL1        0.0000
     37 H          28.2928  -21.1695    9.5797 H         1 UNL1        0.0000
     38 H          28.2738  -22.7451   10.3544 H         1 UNL1        0.0000
     39 H          30.5343  -21.2264   10.6794 H         1 UNL1        0.0000
     40 H          34.6848  -20.3947   11.8721 H         1 UNL1        0.0000
     41 H          34.3916  -18.7244   11.3595 H         1 UNL1        0.0000
     42 H          35.7007  -20.4955    9.8580 H         1 UNL1        0.0000
     43 H          34.7721  -19.1756    9.2006 H         1 UNL1        0.0000
     44 H          31.8429  -21.4289    8.7110 H         1 UNL1        0.0000
     45 H          32.4444  -19.9081    8.0746 H         1 UNL1        0.0000
     46 H          30.9630  -20.2666   10.3679 H         1 UNL1        0.0000
     47 H          31.8449  -18.8142    9.8636 H         1 UNL1        0.0000
     48 H          35.5272  -22.7525   10.0123 H         1 UNL1        0.0000
     49 H          37.5908  -22.4056    8.0746 H         1 UNL1        0.0000
     50 H          36.6184  -21.9794    6.9971 H         1 UNL1        0.0000
     51 H          36.7001  -24.7399    8.4762 H         1 UNL1        0.0000
     52 H          35.5695  -24.7170    7.4652 H         1 UNL1        0.0000
     53 H          28.3022  -19.9986   14.7661 H         1 UNL1        0.0000
     54 H          27.0531  -20.9030   12.9132 H         1 UNL1        0.0000
     55 H          24.1237  -23.7695   10.4930 H         1 UNL1        0.0000
@<TRIPOS>BOND
     1    1   18 1
     2    1   21 1
     3    1   17 am
     4    2   19 1
     5    2   20 1
     6    2   22 am
     7    3    4 1
     8    3   12 2
     9    4    5 am
    10    4   55 1
    11    5   29 2
    12    5    6 1
    13    6    7 ar
    14    6   11 ar
    15    7    8 ar
    16    7   33 1
    17    8   34 1
    18    8    9 ar
    19    9   10 ar
    20    9   35 1
    21   10   11 ar
    22   10   36 1
    23   11   12 1
    24   12   13 1
    25   13   37 1
    26   13   38 1
    27   13   14 1
    28   14   15 ar
    29   14   28 ar
    30   15   39 1
    31   15   16 ar
    32   16   26 ar
    33   16   17 1
    34   17   31 2
    35   18   19 1
    36   18   40 1
    37   18   41 1
    38   19   42 1
    39   19   43 1
    40   20   21 1
    41   20   45 1
    42   20   44 1
    43   21   46 1
    44   21   47 1
    45   22   30 2
    46   22   23 1
    47   23   25 1
    48   23   24 1
    49   23   48 1
    50   24   25 1
    51   24   49 1
    52   24   50 1
    53   25   51 1
    54   25   52 1
    55   26   27 ar
    56   26   32 1
    57   27   28 ar
    58   27   53 1
    59   28   54 1
@<TRIPOS>SUBSTRUCTURE
1 UNL1 1
@<TRIPOS>COMMENT
olaparib
PLANTSproteinTorsions
57
1 17.2773
19 3.0297
33 145.8257
53 342.5722
108 192.8528
228 213.7108
405 207.4490
438 338.2153
479 257.0630
492 342.0489
546 215.5169
641 356.5826
776 261.7330
836 5.5695
905 263.7556
919 4.4316
988 250.6021
1139 254.0513
1332 64.6048
1388 132.6027
1606 115.9648
1642 172.6773
1655 113.4971
1759 237.0017
1952 36.2518
1986 75.2120
2049 326.6217
2207 176.1118
2220 78.5037
2267 250.6834
2305 4.5779
2319 124.4670
2601 155.9146
2653 155.9702
2695 290.5540
2741 322.4484
2763 98.4966
2818 217.3597
2847 243.6273
2913 40.6302
2968 168.5286
2982 218.3641
2996 7.3314
3051 289.6595
3105 94.0893
3240 219.7759
3280 236.3267
3290 33.9920
3365 94.0435
3426 11.5098
3477 275.1868
3534 251.7965
3661 127.1821
3685 36.4940
3741 158.4832
3784 274.2766
3862 170.2681
PLANTSmolcadARTstart hb
PLANTSmolcadARTstart HB
LINES
PLANTSmolcadARTstart HBCH
LINES
PLANTSmolcadARTstart HB-CHO
LINES
PLANTSmolcadARTend
PLANTSmolcadARTstart HB_WATER
LINES
PLANTSmolcadARTend

PLANTSmolcadARTend

