@<TRIPOS>MOLECULE
olaparib_entry_00001_conf_39
55 59 1
SMALL
NO_CHARGES


@<TRIPOS>ATOM
      1 N          23.9437  -12.9547    8.5110 N.am      1 UNL1        0.0000
      2 N          23.4896  -10.3970    8.5124 N.am      1 UNL1        0.0000
      3 N          23.5843  -18.4950   10.6314 N.2       1 UNL1        0.0000
      4 N          22.9139  -19.4274    9.9991 N.am      1 UNL1        0.0000
      5 C          23.4372  -20.6187    9.6768 C.2       1 UNL1        0.0000
      6 C          24.7459  -20.8843   10.0239 C.ar      1 UNL1        0.0000
      7 C          25.3460  -22.1004    9.6950 C.ar      1 UNL1        0.0000
      8 C          26.6613  -22.3356   10.0330 C.ar      1 UNL1        0.0000
      9 C          27.3272  -21.3254   10.6944 C.ar      1 UNL1        0.0000
     10 C          26.7444  -20.1139   11.0267 C.ar      1 UNL1        0.0000
     11 C          25.4416  -19.8922   10.6899 C.ar      1 UNL1        0.0000
     12 C          24.8860  -18.6826   11.0102 C.2       1 UNL1        0.0000
     13 C          25.4951  -17.5943   11.7636 C.3       1 UNL1        0.0000
     14 C          24.6547  -16.3676   11.6839 C.ar      1 UNL1        0.0000
     15 C          24.4120  -15.8831   10.3862 C.ar      1 UNL1        0.0000
     16 C          23.6552  -14.7495   10.2104 C.ar      1 UNL1        0.0000
     17 C          23.3850  -14.2128    8.8575 C.2       1 UNL1        0.0000
     18 C          23.7093  -12.4069    7.2140 C.3       1 UNL1        0.0000
     19 C          23.7896  -10.8955    7.1954 C.3       1 UNL1        0.0000
     20 C          24.3997  -10.7870    9.5947 C.3       1 UNL1        0.0000
     21 C          24.7472  -12.2499    9.4924 C.3       1 UNL1        0.0000
     22 C          22.3865   -9.5784    8.7720 C.2       1 UNL1        0.0000
     23 C          21.3850   -9.1169    7.8070 C.3       1 UNL1        0.0000
     24 C          21.3422   -7.6274    7.5512 C.3       1 UNL1        0.0000
     25 C          20.2301   -8.2868    8.2392 C.3       1 UNL1        0.0000
     26 C          23.1051  -14.0408   11.2521 C.ar      1 UNL1        0.0000
     27 C          23.3433  -14.5159   12.5218 C.ar      1 UNL1        0.0000
     28 C          24.1160  -15.6717   12.7049 C.ar      1 UNL1        0.0000
     29 O          22.8100  -21.5257    9.0720 O.2       1 UNL1        0.0000
     30 O          22.2142   -9.1780    9.9784 O.2       1 UNL1        0.0000
     31 O          22.6864  -14.8303    8.0211 O.2       1 UNL1        0.0000
     32 F          22.3608  -12.9194   11.0254 F         1 UNL1        0.0000
     33 H          24.8043  -22.8251    9.1986 H         1 UNL1        0.0000
     34 H          27.1262  -23.2263    9.8012 H         1 UNL1        0.0000
     35 H          28.3130  -21.4806   10.9554 H         1 UNL1        0.0000
     36 H          27.2872  -19.3891   11.5221 H         1 UNL1        0.0000
     37 H          26.4634  -17.3846   11.3594 H         1 UNL1        0.0000
     38 H          25.5776  -17.8883   12.7894 H         1 UNL1        0.0000
     39 H          24.8013  -16.3771    9.5683 H         1 UNL1        0.0000
     40 H          22.7335  -12.7024    6.8887 H         1 UNL1        0.0000
     41 H          24.4730  -12.7795    6.5630 H         1 UNL1        0.0000
     42 H          23.0821  -10.5067    6.4937 H         1 UNL1        0.0000
     43 H          24.7732  -10.5883    6.9062 H         1 UNL1        0.0000
     44 H          23.9269  -10.6033   10.5367 H         1 UNL1        0.0000
     45 H          25.2991  -10.2129    9.5148 H         1 UNL1        0.0000
     46 H          24.5933  -12.7054   10.4485 H         1 UNL1        0.0000
     47 H          25.7672  -12.3163    9.1787 H         1 UNL1        0.0000
     48 H          21.4736  -10.0164    7.2348 H         1 UNL1        0.0000
     49 H          21.2124   -7.2590    6.5548 H         1 UNL1        0.0000
     50 H          21.9874   -6.8026    7.7711 H         1 UNL1        0.0000
     51 H          19.2869   -8.3905    7.7446 H         1 UNL1        0.0000
     52 H          19.7307   -8.1294    9.1715 H         1 UNL1        0.0000
     53 H          22.9526  -14.0209   13.3395 H         1 UNL1        0.0000
     54 H          24.2797  -16.0065   13.6676 H         1 UNL1        0.0000
     55 H          21.9792  -19.2436    9.7491 H         1 UNL1        0.0000
@<TRIPOS>BOND
     1    1   18 1
     2    1   21 1
     3    1   17 am
     4    2   19 1
     5    2   20 1
     6    2   22 am
     7    3    4 1
     8    3   12 2
     9    4    5 am
    10    4   55 1
    11    5   29 2
    12    5    6 1
    13    6    7 ar
    14    6   11 ar
    15    7    8 ar
    16    7   33 1
    17    8   34 1
    18    8    9 ar
    19    9   10 ar
    20    9   35 1
    21   10   11 ar
    22   10   36 1
    23   11   12 1
    24   12   13 1
    25   13   37 1
    26   13   38 1
    27   13   14 1
    28   14   15 ar
    29   14   28 ar
    30   15   39 1
    31   15   16 ar
    32   16   26 ar
    33   16   17 1
    34   17   31 2
    35   18   19 1
    36   18   40 1
    37   18   41 1
    38   19   42 1
    39   19   43 1
    40   20   21 1
    41   20   45 1
    42   20   44 1
    43   21   46 1
    44   21   47 1
    45   22   30 2
    46   22   23 1
    47   23   25 1
    48   23   24 1
    49   23   48 1
    50   24   25 1
    51   24   49 1
    52   24   50 1
    53   25   51 1
    54   25   52 1
    55   26   27 ar
    56   26   32 1
    57   27   28 ar
    58   27   53 1
    59   28   54 1
@<TRIPOS>SUBSTRUCTURE
1 UNL1 1
@<TRIPOS>COMMENT
olaparib
PLANTSproteinTorsions
57
1 315.9899
19 47.5653
33 304.9290
53 51.6371
108 3.6144
228 70.4818
405 77.7915
438 284.8008
479 307.0702
492 331.0376
546 175.4376
641 32.7987
776 188.1066
836 11.7904
905 197.8078
919 107.4468
988 261.5237
1139 179.0626
1332 340.3884
1388 206.5782
1606 1.1474
1642 84.6321
1655 206.3163
1759 121.0392
1952 19.9414
1986 165.9965
2049 217.3480
2207 180.2947
2220 228.2347
2267 47.5396
2305 293.8233
2319 264.5600
2601 310.9049
2653 226.2977
2695 142.4736
2741 109.0284
2763 276.4678
2818 6.6998
2847 274.1080
2913 281.9901
2968 109.1534
2982 232.5364
2996 262.3088
3051 0.6509
3105 103.5753
3240 124.3039
3280 55.2540
3290 175.4348
3365 42.4728
3426 175.4281
3477 236.3068
3534 117.4758
3661 81.5333
3685 192.3380
3741 178.9405
3784 73.9557
3862 89.6995
PLANTSmolcadARTstart hb
PLANTSmolcadARTstart HB
LINES
22.2142 -9.17797 9.97837 21.0236 -9.39486 11.3197 0 255 0 5
PLANTSmolcadARTstart HBCH
LINES
PLANTSmolcadARTstart HB-CHO
LINES
PLANTSmolcadARTend
PLANTSmolcadARTstart HB_WATER
LINES
PLANTSmolcadARTend

PLANTSmolcadARTend

