@<TRIPOS>MOLECULE
olaparib_entry_00001_conf_28
55 59 1
SMALL
NO_CHARGES


@<TRIPOS>ATOM
      1 N          33.2304  -21.1219   12.9265 N.am      1 UNL1        0.0000
      2 N          33.0693  -20.1289   15.3216 N.am      1 UNL1        0.0000
      3 N          36.9791  -17.8092   12.1949 N.2       1 UNL1        0.0000
      4 N          38.1315  -17.9882   12.7937 N.am      1 UNL1        0.0000
      5 C          39.2691  -17.4072   12.3875 C.2       1 UNL1        0.0000
      6 C          39.2340  -16.5785   11.2848 C.ar      1 UNL1        0.0000
      7 C          40.3926  -15.9645   10.8076 C.ar      1 UNL1        0.0000
      8 C          40.3376  -15.1577    9.6916 C.ar      1 UNL1        0.0000
      9 C          39.1052  -15.0010    9.0934 C.ar      1 UNL1        0.0000
     10 C          37.9476  -15.6045    9.5558 C.ar      1 UNL1        0.0000
     11 C          38.0125  -16.3988   10.6624 C.ar      1 UNL1        0.0000
     12 C          36.8623  -17.0018   11.0959 C.2       1 UNL1        0.0000
     13 C          35.5153  -16.8359   10.5657 C.3       1 UNL1        0.0000
     14 C          34.9624  -18.1451   10.1213 C.ar      1 UNL1        0.0000
     15 C          34.8009  -19.1089   11.1326 C.ar      1 UNL1        0.0000
     16 C          34.3069  -20.3525   10.8190 C.ar      1 UNL1        0.0000
     17 C          34.1287  -21.3893   11.8604 C.2       1 UNL1        0.0000
     18 C          33.0285  -22.0992   13.9468 C.3       1 UNL1        0.0000
     19 C          32.5992  -21.4886   15.2636 C.3       1 UNL1        0.0000
     20 C          32.5465  -19.2007   14.3131 C.3       1 UNL1        0.0000
     21 C          32.5324  -19.8499   12.9531 C.3       1 UNL1        0.0000
     22 C          33.9827  -19.6908   16.2849 C.2       1 UNL1        0.0000
     23 C          34.6022  -20.4946   17.3419 C.3       1 UNL1        0.0000
     24 C          33.6709  -21.3790   18.1397 C.3       1 UNL1        0.0000
     25 C          34.3148  -20.2274   18.7756 C.3       1 UNL1        0.0000
     26 C          33.9504  -20.7228    9.5440 C.ar      1 UNL1        0.0000
     27 C          34.1089  -19.7786    8.5549 C.ar      1 UNL1        0.0000
     28 C          34.6136  -18.5092    8.8712 C.ar      1 UNL1        0.0000
     29 O          40.3832  -17.5655   12.9492 O.2       1 UNL1        0.0000
     30 O          34.3294  -18.4562   16.2573 O.2       1 UNL1        0.0000
     31 O          34.7404  -22.4817   11.8270 O.2       1 UNL1        0.0000
     32 F          33.4647  -21.9713    9.2832 F         1 UNL1        0.0000
     33 H          41.2920  -16.1140   11.2913 H         1 UNL1        0.0000
     34 H          41.1800  -14.6929    9.3206 H         1 UNL1        0.0000
     35 H          39.0422  -14.4022    8.2559 H         1 UNL1        0.0000
     36 H          37.0487  -15.4554    9.0709 H         1 UNL1        0.0000
     37 H          35.5448  -16.1651    9.7325 H         1 UNL1        0.0000
     38 H          34.8868  -16.4413   11.3368 H         1 UNL1        0.0000
     39 H          35.0530  -18.8832   12.1073 H         1 UNL1        0.0000
     40 H          33.9451  -22.6307   14.0980 H         1 UNL1        0.0000
     41 H          32.2434  -22.7497   13.6205 H         1 UNL1        0.0000
     42 H          33.0178  -22.0489   16.0729 H         1 UNL1        0.0000
     43 H          31.5319  -21.5074   15.3410 H         1 UNL1        0.0000
     44 H          33.1669  -18.3297   14.2801 H         1 UNL1        0.0000
     45 H          31.5451  -18.9310   14.5765 H         1 UNL1        0.0000
     46 H          33.0021  -19.1895   12.2543 H         1 UNL1        0.0000
     47 H          31.5114  -20.0394   12.6985 H         1 UNL1        0.0000
     48 H          35.5052  -20.6005   16.7780 H         1 UNL1        0.0000
     49 H          33.9702  -22.3723   18.4023 H         1 UNL1        0.0000
     50 H          32.6615  -21.7146   18.0240 H         1 UNL1        0.0000
     51 H          35.0784  -20.3845   19.5087 H         1 UNL1        0.0000
     52 H          33.9578  -19.3795   19.3205 H         1 UNL1        0.0000
     53 H          33.8557  -20.0056    7.5799 H         1 UNL1        0.0000
     54 H          34.7230  -17.8198    8.1107 H         1 UNL1        0.0000
     55 H          38.1626  -18.5783   13.5815 H         1 UNL1        0.0000
@<TRIPOS>BOND
     1    1   18 1
     2    1   21 1
     3    1   17 am
     4    2   19 1
     5    2   20 1
     6    2   22 am
     7    3    4 1
     8    3   12 2
     9    4    5 am
    10    4   55 1
    11    5   29 2
    12    5    6 1
    13    6    7 ar
    14    6   11 ar
    15    7    8 ar
    16    7   33 1
    17    8   34 1
    18    8    9 ar
    19    9   10 ar
    20    9   35 1
    21   10   11 ar
    22   10   36 1
    23   11   12 1
    24   12   13 1
    25   13   37 1
    26   13   38 1
    27   13   14 1
    28   14   15 ar
    29   14   28 ar
    30   15   39 1
    31   15   16 ar
    32   16   26 ar
    33   16   17 1
    34   17   31 2
    35   18   19 1
    36   18   40 1
    37   18   41 1
    38   19   42 1
    39   19   43 1
    40   20   21 1
    41   20   45 1
    42   20   44 1
    43   21   46 1
    44   21   47 1
    45   22   30 2
    46   22   23 1
    47   23   25 1
    48   23   24 1
    49   23   48 1
    50   24   25 1
    51   24   49 1
    52   24   50 1
    53   25   51 1
    54   25   52 1
    55   26   27 ar
    56   26   32 1
    57   27   28 ar
    58   27   53 1
    59   28   54 1
@<TRIPOS>SUBSTRUCTURE
1 UNL1 1
@<TRIPOS>COMMENT
olaparib
PLANTSproteinTorsions
57
1 141.5266
19 214.9179
33 92.6680
53 97.3530
108 315.9426
228 326.4141
405 154.4116
438 135.8095
479 329.9044
492 111.8780
546 86.3320
641 225.0223
776 15.9333
836 112.3047
905 197.3438
919 330.0970
988 70.1132
1139 211.6415
1332 96.0786
1388 183.8922
1606 307.7325
1642 160.4312
1655 289.9372
1759 133.6438
1952 35.2024
1986 12.4423
2049 288.7460
2207 210.7195
2220 71.6899
2267 235.6844
2305 250.8953
2319 185.4152
2601 62.6901
2653 171.9042
2695 135.6083
2741 63.2055
2763 49.4489
2818 225.1532
2847 175.7892
2913 347.5858
2968 35.5554
2982 212.9821
2996 197.8260
3051 315.4772
3105 91.1240
3240 247.9210
3280 19.2082
3290 62.5336
3365 77.1587
3426 78.0850
3477 19.1470
3534 91.2676
3661 34.5371
3685 65.9926
3741 192.2896
3784 286.7244
3862 150.5843
PLANTSmolcadARTstart hb
PLANTSmolcadARTstart HB
LINES
34.3294 -18.4562 16.2573 33.831 -17.022 17.656 0 255 0 5
PLANTSmolcadARTstart HBCH
LINES
PLANTSmolcadARTstart HB-CHO
LINES
PLANTSmolcadARTend
PLANTSmolcadARTstart HB_WATER
LINES
PLANTSmolcadARTend

PLANTSmolcadARTend

