@<TRIPOS>MOLECULE
olaparib_entry_00001_conf_91
55 59 1
SMALL
NO_CHARGES


@<TRIPOS>ATOM
      1 N          24.5556  -15.0198    7.4167 N.am      1 UNL1        0.0000
      2 N          23.7670  -12.5696    7.0656 N.am      1 UNL1        0.0000
      3 N          24.3614  -20.5382   10.2430 N.2       1 UNL1        0.0000
      4 N          23.9738  -21.6250    9.6207 N.am      1 UNL1        0.0000
      5 C          24.8031  -22.6332    9.3162 C.2       1 UNL1        0.0000
      6 C          26.1323  -22.5295    9.6716 C.ar      1 UNL1        0.0000
      7 C          27.0423  -23.5407    9.3611 C.ar      1 UNL1        0.0000
      8 C          28.3696  -23.4060    9.7071 C.ar      1 UNL1        0.0000
      9 C          28.7315  -22.2452   10.3574 C.ar      1 UNL1        0.0000
     10 C          27.8394  -21.2336   10.6714 C.ar      1 UNL1        0.0000
     11 C          26.5278  -21.3780   10.3269 C.ar      1 UNL1        0.0000
     12 C          25.6625  -20.3609   10.6291 C.2       1 UNL1        0.0000
     13 C          25.9478  -19.1393   11.3703 C.3       1 UNL1        0.0000
     14 C          24.9916  -18.0621   10.9926 C.ar      1 UNL1        0.0000
     15 C          24.9827  -17.7101    9.6311 C.ar      1 UNL1        0.0000
     16 C          24.1410  -16.7187    9.1870 C.ar      1 UNL1        0.0000
     17 C          24.1110  -16.3232    7.7608 C.2       1 UNL1        0.0000
     18 C          24.5461  -14.6039    6.0514 C.3       1 UNL1        0.0000
     19 C          24.4208  -13.1032    5.8990 C.3       1 UNL1        0.0000
     20 C          24.4551  -12.7394    8.3499 C.3       1 UNL1        0.0000
     21 C          25.0137  -14.1339    8.4708 C.3       1 UNL1        0.0000
     22 C          22.5324  -11.9170    7.0018 C.2       1 UNL1        0.0000
     23 C          21.7200  -11.6833    5.8049 C.3       1 UNL1        0.0000
     24 C          20.2660  -11.3429    6.0419 C.3       1 UNL1        0.0000
     25 C          20.6303  -12.6197    5.4237 C.3       1 UNL1        0.0000
     26 C          23.2833  -16.0314   10.0129 C.ar      1 UNL1        0.0000
     27 C          23.2928  -16.3768   11.3454 C.ar      1 UNL1        0.0000
     28 C          24.1512  -17.3872   11.8021 C.ar      1 UNL1        0.0000
     29 O          24.4500  -23.6835    8.7212 O.2       1 UNL1        0.0000
     30 O          22.0401  -11.4678    8.0977 O.2       1 UNL1        0.0000
     31 O          23.7097  -17.0969    6.8613 O.2       1 UNL1        0.0000
     32 F          22.4666  -15.0537    9.5232 F         1 UNL1        0.0000
     33 H          26.7212  -24.3910    8.8724 H         1 UNL1        0.0000
     34 H          29.0605  -24.1396    9.4889 H         1 UNL1        0.0000
     35 H          29.7206  -22.1237   10.6241 H         1 UNL1        0.0000
     36 H          28.1615  -20.3829   11.1592 H         1 UNL1        0.0000
     37 H          26.9446  -18.8184   11.1501 H         1 UNL1        0.0000
     38 H          25.8455  -19.3385   12.4168 H         1 UNL1        0.0000
     39 H          25.6068  -18.1946    8.9675 H         1 UNL1        0.0000
     40 H          23.7183  -15.0689    5.5575 H         1 UNL1        0.0000
     41 H          25.4803  -14.8962    5.6179 H         1 UNL1        0.0000
     42 H          23.8428  -12.8775    5.0277 H         1 UNL1        0.0000
     43 H          25.3927  -12.6669    5.7959 H         1 UNL1        0.0000
     44 H          23.7620  -12.5683    9.1468 H         1 UNL1        0.0000
     45 H          25.2622  -12.0389    8.4058 H         1 UNL1        0.0000
     46 H          24.7126  -14.5421    9.4130 H         1 UNL1        0.0000
     47 H          26.0773  -14.0617    8.3890 H         1 UNL1        0.0000
     48 H          22.5545  -11.2695    5.2788 H         1 UNL1        0.0000
     49 H          19.7926  -10.5811    5.4580 H         1 UNL1        0.0000
     50 H          19.6857  -11.0506    6.8920 H         1 UNL1        0.0000
     51 H          20.4134  -12.7895    4.3897 H         1 UNL1        0.0000
     52 H          20.4144  -13.6436    5.6433 H         1 UNL1        0.0000
     53 H          22.6674  -15.8916   12.0084 H         1 UNL1        0.0000
     54 H          24.1388  -17.6265   12.8062 H         1 UNL1        0.0000
     55 H          23.0262  -21.7048    9.3649 H         1 UNL1        0.0000
@<TRIPOS>BOND
     1    1   18 1
     2    1   21 1
     3    1   17 am
     4    2   19 1
     5    2   20 1
     6    2   22 am
     7    3    4 1
     8    3   12 2
     9    4    5 am
    10    4   55 1
    11    5   29 2
    12    5    6 1
    13    6    7 ar
    14    6   11 ar
    15    7    8 ar
    16    7   33 1
    17    8   34 1
    18    8    9 ar
    19    9   10 ar
    20    9   35 1
    21   10   11 ar
    22   10   36 1
    23   11   12 1
    24   12   13 1
    25   13   37 1
    26   13   38 1
    27   13   14 1
    28   14   15 ar
    29   14   28 ar
    30   15   39 1
    31   15   16 ar
    32   16   26 ar
    33   16   17 1
    34   17   31 2
    35   18   19 1
    36   18   40 1
    37   18   41 1
    38   19   42 1
    39   19   43 1
    40   20   21 1
    41   20   45 1
    42   20   44 1
    43   21   46 1
    44   21   47 1
    45   22   30 2
    46   22   23 1
    47   23   25 1
    48   23   24 1
    49   23   48 1
    50   24   25 1
    51   24   49 1
    52   24   50 1
    53   25   51 1
    54   25   52 1
    55   26   27 ar
    56   26   32 1
    57   27   28 ar
    58   27   53 1
    59   28   54 1
@<TRIPOS>SUBSTRUCTURE
1 UNL1 1
@<TRIPOS>COMMENT
olaparib
PLANTSproteinTorsions
57
1 271.2479
19 133.7227
33 237.2373
53 171.8526
108 254.8906
228 74.3109
405 295.0465
438 189.6947
479 258.1169
492 159.2397
546 43.5660
641 337.7269
776 332.5456
836 257.9900
905 117.0408
919 22.2707
988 208.7477
1139 111.9633
1332 0.7321
1388 152.2323
1606 84.2451
1642 127.8400
1655 128.9074
1759 169.2812
1952 44.2733
1986 206.2149
2049 104.8250
2207 168.4875
2220 214.8032
2267 84.7267
2305 175.8887
2319 252.1935
2601 207.1813
2653 290.9763
2695 124.3567
2741 196.3154
2763 297.6158
2818 178.7659
2847 81.7444
2913 106.0714
2968 94.0963
2982 38.7586
2996 59.9395
3051 223.6371
3105 101.1585
3240 120.8270
3280 296.7847
3290 266.7266
3365 58.6852
3426 267.9884
3477 249.3316
3534 82.5521
3661 136.6342
3685 207.4670
3741 134.4299
3784 57.4278
3862 134.0904
PLANTSmolcadARTstart hb
PLANTSmolcadARTstart HB
LINES
PLANTSmolcadARTstart HBCH
LINES
PLANTSmolcadARTstart HB-CHO
LINES
PLANTSmolcadARTend
PLANTSmolcadARTstart HB_WATER
LINES
PLANTSmolcadARTend

PLANTSmolcadARTend

