@<TRIPOS>MOLECULE
olaparib_entry_00001_conf_30
55 59 1
SMALL
NO_CHARGES


@<TRIPOS>ATOM
      1 N          36.7460  -18.5153   10.0155 N.am      1 UNL1        0.0000
      2 N          37.8858  -16.2076   10.3676 N.am      1 UNL1        0.0000
      3 N          35.0665  -21.1001    4.4628 N.2       1 UNL1        0.0000
      4 N          35.2212  -22.2359    3.8267 N.am      1 UNL1        0.0000
      5 C          34.9220  -22.3990    2.5302 C.2       1 UNL1        0.0000
      6 C          34.4256  -21.3231    1.8233 C.ar      1 UNL1        0.0000
      7 C          34.0791  -21.4434    0.4770 C.ar      1 UNL1        0.0000
      8 C          33.5650  -20.3608   -0.2036 C.ar      1 UNL1        0.0000
      9 C          33.4174  -19.1883    0.5068 C.ar      1 UNL1        0.0000
     10 C          33.7566  -19.0548    1.8428 C.ar      1 UNL1        0.0000
     11 C          34.2669  -20.1314    2.5064 C.ar      1 UNL1        0.0000
     12 C          34.5806  -19.9873    3.8313 C.2       1 UNL1        0.0000
     13 C          34.5197  -18.7728    4.6340 C.3       1 UNL1        0.0000
     14 C          34.2908  -19.1036    6.0677 C.ar      1 UNL1        0.0000
     15 C          35.4462  -19.1659    6.8668 C.ar      1 UNL1        0.0000
     16 C          35.3382  -19.4745    8.2017 C.ar      1 UNL1        0.0000
     17 C          36.5360  -19.5512    9.0681 C.2       1 UNL1        0.0000
     18 C          37.8871  -18.5570   10.8719 C.3       1 UNL1        0.0000
     19 C          38.3210  -17.1825   11.3337 C.3       1 UNL1        0.0000
     20 C          36.4394  -16.0729   10.1638 C.3       1 UNL1        0.0000
     21 C          35.7865  -17.4293   10.0915 C.3       1 UNL1        0.0000
     22 C          38.7822  -15.4154    9.6443 C.2       1 UNL1        0.0000
     23 C          40.2450  -15.4423    9.7245 C.3       1 UNL1        0.0000
     24 C          40.8436  -15.1622   11.0844 C.3       1 UNL1        0.0000
     25 C          41.0206  -14.2027    9.9920 C.3       1 UNL1        0.0000
     26 C          34.1384  -19.7324    8.8215 C.ar      1 UNL1        0.0000
     27 C          33.0081  -19.6711    8.0382 C.ar      1 UNL1        0.0000
     28 C          33.1148  -19.3575    6.6757 C.ar      1 UNL1        0.0000
     29 O          35.0646  -23.4796    1.9027 O.2       1 UNL1        0.0000
     30 O          38.2917  -14.5682    8.8155 O.2       1 UNL1        0.0000
     31 O          37.3582  -20.4928    8.9894 O.2       1 UNL1        0.0000
     32 F          34.0835  -20.0353   10.1511 F         1 UNL1        0.0000
     33 H          34.2086  -22.3439   -0.0102 H         1 UNL1        0.0000
     34 H          33.3022  -20.4251   -1.1986 H         1 UNL1        0.0000
     35 H          33.0330  -18.3661    0.0165 H         1 UNL1        0.0000
     36 H          33.6258  -18.1541    2.3297 H         1 UNL1        0.0000
     37 H          33.7179  -18.1578    4.2821 H         1 UNL1        0.0000
     38 H          35.4513  -18.2534    4.5456 H         1 UNL1        0.0000
     39 H          36.3727  -18.9808    6.4521 H         1 UNL1        0.0000
     40 H          38.6973  -19.0119   10.3407 H         1 UNL1        0.0000
     41 H          37.6182  -19.1206   11.7414 H         1 UNL1        0.0000
     42 H          39.3868  -17.1524   11.4203 H         1 UNL1        0.0000
     43 H          37.8870  -16.9669   12.2880 H         1 UNL1        0.0000
     44 H          36.2595  -15.5472    9.2495 H         1 UNL1        0.0000
     45 H          36.0222  -15.5332   10.9883 H         1 UNL1        0.0000
     46 H          35.1647  -17.4632    9.2213 H         1 UNL1        0.0000
     47 H          35.2226  -17.5623   10.9901 H         1 UNL1        0.0000
     48 H          40.3054  -16.2024    8.9742 H         1 UNL1        0.0000
     49 H          41.6763  -15.7378   11.4315 H         1 UNL1        0.0000
     50 H          40.4632  -15.1119   12.0832 H         1 UNL1        0.0000
     51 H          41.9865  -14.0746    9.5498 H         1 UNL1        0.0000
     52 H          40.8227  -13.1583    9.8768 H         1 UNL1        0.0000
     53 H          32.0815  -19.8560    8.4547 H         1 UNL1        0.0000
     54 H          32.2517  -19.3185    6.1109 H         1 UNL1        0.0000
     55 H          35.5754  -23.0072    4.3260 H         1 UNL1        0.0000
@<TRIPOS>BOND
     1    1   18 1
     2    1   21 1
     3    1   17 am
     4    2   19 1
     5    2   20 1
     6    2   22 am
     7    3    4 1
     8    3   12 2
     9    4    5 am
    10    4   55 1
    11    5   29 2
    12    5    6 1
    13    6    7 ar
    14    6   11 ar
    15    7    8 ar
    16    7   33 1
    17    8   34 1
    18    8    9 ar
    19    9   10 ar
    20    9   35 1
    21   10   11 ar
    22   10   36 1
    23   11   12 1
    24   12   13 1
    25   13   37 1
    26   13   38 1
    27   13   14 1
    28   14   15 ar
    29   14   28 ar
    30   15   39 1
    31   15   16 ar
    32   16   26 ar
    33   16   17 1
    34   17   31 2
    35   18   19 1
    36   18   40 1
    37   18   41 1
    38   19   42 1
    39   19   43 1
    40   20   21 1
    41   20   45 1
    42   20   44 1
    43   21   46 1
    44   21   47 1
    45   22   30 2
    46   22   23 1
    47   23   25 1
    48   23   24 1
    49   23   48 1
    50   24   25 1
    51   24   49 1
    52   24   50 1
    53   25   51 1
    54   25   52 1
    55   26   27 ar
    56   26   32 1
    57   27   28 ar
    58   27   53 1
    59   28   54 1
@<TRIPOS>SUBSTRUCTURE
1 UNL1 1
@<TRIPOS>COMMENT
olaparib
PLANTSproteinTorsions
57
1 120.6996
19 355.8485
33 72.7181
53 168.6722
108 151.0460
228 62.4179
405 0.4602
438 51.4292
479 191.2142
492 347.6527
546 60.7951
641 164.7305
776 352.3776
836 109.5869
905 166.9044
919 66.1778
988 247.6386
1139 204.0491
1332 143.0577
1388 157.2432
1606 238.4158
1642 178.4679
1655 254.9824
1759 246.4996
1952 192.4446
1986 295.9719
2049 86.2963
2207 248.4897
2220 86.7721
2267 281.3926
2305 346.4662
2319 216.8033
2601 252.9461
2653 127.3862
2695 41.2207
2741 355.2355
2763 209.1226
2818 323.6063
2847 200.2924
2913 99.5938
2968 173.2197
2982 244.0512
2996 236.0212
3051 176.1511
3105 127.6127
3240 255.6909
3280 71.5697
3290 77.7775
3365 14.8409
3426 122.7229
3477 58.0066
3534 223.4552
3661 2.1874
3685 30.7218
3741 219.7623
3784 215.9251
3862 103.6076
PLANTSmolcadARTstart hb
PLANTSmolcadARTstart HB
LINES
PLANTSmolcadARTstart HBCH
LINES
PLANTSmolcadARTstart HB-CHO
LINES
PLANTSmolcadARTend
PLANTSmolcadARTstart HB_WATER
LINES
PLANTSmolcadARTend

PLANTSmolcadARTend

