@<TRIPOS>MOLECULE
olaparib_entry_00001_conf_55
55 59 1
SMALL
NO_CHARGES


@<TRIPOS>ATOM
      1 N          28.5637  -22.2651    9.9885 N.am      1 UNL1        0.0000
      2 N          26.2190  -22.9862   10.8432 N.am      1 UNL1        0.0000
      3 N          31.0052  -22.1498   16.0169 N.2       1 UNL1        0.0000
      4 N          31.7603  -22.8107   16.8605 N.am      1 UNL1        0.0000
      5 C          32.9344  -22.3490   17.3136 C.2       1 UNL1        0.0000
      6 C          33.3773  -21.1181   16.8748 C.ar      1 UNL1        0.0000
      7 C          34.6012  -20.5994   17.2991 C.ar      1 UNL1        0.0000
      8 C          35.0334  -19.3773   16.8310 C.ar      1 UNL1        0.0000
      9 C          34.2077  -18.7201   15.9435 C.ar      1 UNL1        0.0000
     10 C          32.9910  -19.2230   15.5137 C.ar      1 UNL1        0.0000
     11 C          32.5715  -20.4320   15.9850 C.ar      1 UNL1        0.0000
     12 C          31.3746  -20.9227   15.5364 C.2       1 UNL1        0.0000
     13 C          30.4157  -20.2657   14.6578 C.3       1 UNL1        0.0000
     14 C          30.8802  -20.3169   13.2440 C.ar      1 UNL1        0.0000
     15 C          30.2408  -21.2692   12.4305 C.ar      1 UNL1        0.0000
     16 C          30.6080  -21.3992   11.1125 C.ar      1 UNL1        0.0000
     17 C          29.9562  -22.3946   10.2318 C.2       1 UNL1        0.0000
     18 C          27.9009  -23.2027    9.1409 C.3       1 UNL1        0.0000
     19 C          26.4290  -23.3434    9.4643 C.3       1 UNL1        0.0000
     20 C          26.5365  -21.6070   11.2289 C.3       1 UNL1        0.0000
     21 C          27.8413  -21.1723   10.6128 C.3       1 UNL1        0.0000
     22 C          25.7367  -23.8955   11.7893 C.2       1 UNL1        0.0000
     23 C          25.3902  -25.3012   11.5637 C.3       1 UNL1        0.0000
     24 C          24.0628  -25.5606   10.8877 C.3       1 UNL1        0.0000
     25 C          24.2595  -25.9375   12.2893 C.3       1 UNL1        0.0000
     26 C          31.5875  -20.6352   10.5236 C.ar      1 UNL1        0.0000
     27 C          32.2128  -19.7033   11.3209 C.ar      1 UNL1        0.0000
     28 C          31.8413  -19.5688   12.6663 C.ar      1 UNL1        0.0000
     29 O          33.6718  -22.9672   18.1234 O.2       1 UNL1        0.0000
     30 O          25.5738  -23.4740   12.9897 O.2       1 UNL1        0.0000
     31 O          30.5913  -23.3353    9.7022 O.2       1 UNL1        0.0000
     32 F          31.9168  -20.8030    9.2098 F         1 UNL1        0.0000
     33 H          35.1835  -21.1311   17.9649 H         1 UNL1        0.0000
     34 H          35.9336  -18.9732   17.1303 H         1 UNL1        0.0000
     35 H          34.5130  -17.8043   15.5799 H         1 UNL1        0.0000
     36 H          32.4098  -18.6912   14.8469 H         1 UNL1        0.0000
     37 H          30.3072  -19.2438   14.9561 H         1 UNL1        0.0000
     38 H          29.4767  -20.7742   14.7297 H         1 UNL1        0.0000
     39 H          29.4982  -21.8690   12.8221 H         1 UNL1        0.0000
     40 H          28.3698  -24.1581    9.2545 H         1 UNL1        0.0000
     41 H          27.9783  -22.8412    8.1362 H         1 UNL1        0.0000
     42 H          26.1209  -24.3551    9.3037 H         1 UNL1        0.0000
     43 H          25.8554  -22.6991    8.8308 H         1 UNL1        0.0000
     44 H          26.6140  -21.5475   12.2943 H         1 UNL1        0.0000
     45 H          25.7582  -20.9615   10.8787 H         1 UNL1        0.0000
     46 H          28.4577  -20.7511   11.3795 H         1 UNL1        0.0000
     47 H          27.6138  -20.4604    9.8481 H         1 UNL1        0.0000
     48 H          26.4167  -25.5658   11.4205 H         1 UNL1        0.0000
     49 H          23.9842  -26.3180   10.1357 H         1 UNL1        0.0000
     50 H          23.3537  -24.9607   10.3565 H         1 UNL1        0.0000
     51 H          24.3155  -26.9718   12.5577 H         1 UNL1        0.0000
     52 H          23.7410  -25.7232   13.1995 H         1 UNL1        0.0000
     53 H          32.9554  -19.1033   10.9276 H         1 UNL1        0.0000
     54 H          32.3263  -18.8626   13.2422 H         1 UNL1        0.0000
     55 H          31.4492  -23.6896   17.1774 H         1 UNL1        0.0000
@<TRIPOS>BOND
     1    1   18 1
     2    1   21 1
     3    1   17 am
     4    2   19 1
     5    2   20 1
     6    2   22 am
     7    3    4 1
     8    3   12 2
     9    4    5 am
    10    4   55 1
    11    5   29 2
    12    5    6 1
    13    6    7 ar
    14    6   11 ar
    15    7    8 ar
    16    7   33 1
    17    8   34 1
    18    8    9 ar
    19    9   10 ar
    20    9   35 1
    21   10   11 ar
    22   10   36 1
    23   11   12 1
    24   12   13 1
    25   13   37 1
    26   13   38 1
    27   13   14 1
    28   14   15 ar
    29   14   28 ar
    30   15   39 1
    31   15   16 ar
    32   16   26 ar
    33   16   17 1
    34   17   31 2
    35   18   19 1
    36   18   40 1
    37   18   41 1
    38   19   42 1
    39   19   43 1
    40   20   21 1
    41   20   45 1
    42   20   44 1
    43   21   46 1
    44   21   47 1
    45   22   30 2
    46   22   23 1
    47   23   25 1
    48   23   24 1
    49   23   48 1
    50   24   25 1
    51   24   49 1
    52   24   50 1
    53   25   51 1
    54   25   52 1
    55   26   27 ar
    56   26   32 1
    57   27   28 ar
    58   27   53 1
    59   28   54 1
@<TRIPOS>SUBSTRUCTURE
1 UNL1 1
@<TRIPOS>COMMENT
olaparib
PLANTSproteinTorsions
57
1 25.9970
19 221.3897
33 336.9352
53 9.1925
108 5.4090
228 94.1549
405 191.7801
438 29.9252
479 357.0107
492 43.6743
546 173.9304
641 6.9225
776 204.2485
836 93.5136
905 50.1827
919 195.2651
988 65.6418
1139 136.8090
1332 130.5381
1388 213.3031
1606 289.6424
1642 339.2243
1655 171.6686
1759 134.3687
1952 123.7949
1986 70.3997
2049 32.8147
2207 244.4119
2220 54.6629
2267 266.6593
2305 160.8065
2319 317.1310
2601 158.6941
2653 170.5921
2695 42.6878
2741 12.8123
2763 90.4378
2818 275.0407
2847 274.0134
2913 96.2513
2968 170.1281
2982 62.1968
2996 222.8625
3051 314.8444
3105 222.9653
3240 325.6467
3280 140.5977
3290 269.7316
3365 24.5220
3426 217.8802
3477 274.4227
3534 99.5010
3661 268.4291
3685 246.2509
3741 126.4781
3784 256.0049
3862 102.8862
PLANTSmolcadARTstart hb
PLANTSmolcadARTstart HB
LINES
PLANTSmolcadARTstart HBCH
LINES
PLANTSmolcadARTstart HB-CHO
LINES
PLANTSmolcadARTend
PLANTSmolcadARTstart HB_WATER
LINES
PLANTSmolcadARTend

PLANTSmolcadARTend

