@<TRIPOS>MOLECULE
olaparib_entry_00001_conf_71
55 59 1
SMALL
NO_CHARGES


@<TRIPOS>ATOM
      1 N          24.7995  -16.3469   11.6314 N.am      1 UNL1        0.0000
      2 N          24.5486  -18.3150    9.9545 N.am      1 UNL1        0.0000
      3 N          22.7858   -9.4071   10.5756 N.2       1 UNL1        0.0000
      4 N          22.0126   -8.5126   10.0092 N.am      1 UNL1        0.0000
      5 C          22.1509   -8.1232    8.7340 C.2       1 UNL1        0.0000
      6 C          23.1547   -8.6867    7.9732 C.ar      1 UNL1        0.0000
      7 C          23.3554   -8.3028    6.6468 C.ar      1 UNL1        0.0000
      8 C          24.3780   -8.8636    5.9123 C.ar      1 UNL1        0.0000
      9 C          25.1668   -9.7974    6.5503 C.ar      1 UNL1        0.0000
     10 C          24.9794  -10.1874    7.8658 C.ar      1 UNL1        0.0000
     11 C          23.9631   -9.6282    8.5830 C.ar      1 UNL1        0.0000
     12 C          23.8025  -10.0120    9.8874 C.2       1 UNL1        0.0000
     13 C          24.5443  -11.0352   10.6125 C.3       1 UNL1        0.0000
     14 C          23.6217  -12.0835   11.1295 C.ar      1 UNL1        0.0000
     15 C          24.2390  -13.2607   11.5885 C.ar      1 UNL1        0.0000
     16 C          23.4700  -14.2907   12.0749 C.ar      1 UNL1        0.0000
     17 C          24.0899  -15.5436   12.5621 C.2       1 UNL1        0.0000
     18 C          25.4149  -17.5596   12.0647 C.3       1 UNL1        0.0000
     19 C          25.5568  -18.5732   10.9495 C.3       1 UNL1        0.0000
     20 C          24.6086  -17.0206    9.2669 C.3       1 UNL1        0.0000
     21 C          24.8831  -15.9116   10.2497 C.3       1 UNL1        0.0000
     22 C          23.5479  -19.2398    9.6421 C.2       1 UNL1        0.0000
     23 C          23.3476  -20.5595   10.2467 C.3       1 UNL1        0.0000
     24 C          24.5302  -21.5005   10.2007 C.3       1 UNL1        0.0000
     25 C          23.3301  -21.7897    9.4125 C.3       1 UNL1        0.0000
     26 C          22.0979  -14.2403   12.1434 C.ar      1 UNL1        0.0000
     27 C          21.4947  -13.0875   11.6938 C.ar      1 UNL1        0.0000
     28 C          22.2762  -12.0351   11.1958 C.ar      1 UNL1        0.0000
     29 O          21.4189   -7.2682    8.1729 O.2       1 UNL1        0.0000
     30 O          22.7038  -18.9175    8.7317 O.2       1 UNL1        0.0000
     31 O          24.0069  -15.9093   13.7571 O.2       1 UNL1        0.0000
     32 F          21.3784  -15.2909   12.6346 F         1 UNL1        0.0000
     33 H          22.7371   -7.5986    6.2147 H         1 UNL1        0.0000
     34 H          24.5457   -8.5965    4.9306 H         1 UNL1        0.0000
     35 H          25.9388  -10.2285    6.0189 H         1 UNL1        0.0000
     36 H          25.5989  -10.8910    8.2977 H         1 UNL1        0.0000
     37 H          25.0581  -10.5819   11.4345 H         1 UNL1        0.0000
     38 H          25.2445  -11.4925    9.9448 H         1 UNL1        0.0000
     39 H          25.2664  -13.3511   11.5598 H         1 UNL1        0.0000
     40 H          24.8178  -17.9875   12.8430 H         1 UNL1        0.0000
     41 H          26.3992  -17.3175   12.4089 H         1 UNL1        0.0000
     42 H          25.4301  -19.5599   11.3426 H         1 UNL1        0.0000
     43 H          26.5294  -18.4947   10.5098 H         1 UNL1        0.0000
     44 H          23.6737  -16.8358    8.7807 H         1 UNL1        0.0000
     45 H          25.4001  -17.0471    8.5473 H         1 UNL1        0.0000
     46 H          24.1663  -15.1323   10.0946 H         1 UNL1        0.0000
     47 H          25.8831  -15.5730   10.0804 H         1 UNL1        0.0000
     48 H          22.6833  -20.1581   10.9829 H         1 UNL1        0.0000
     49 H          24.7688  -22.1022   11.0529 H         1 UNL1        0.0000
     50 H          25.5727  -21.3961    9.9835 H         1 UNL1        0.0000
     51 H          22.6994  -22.6091    9.6878 H         1 UNL1        0.0000
     52 H          23.1466  -21.9881    8.3780 H         1 UNL1        0.0000
     53 H          20.4665  -12.9981   11.7236 H         1 UNL1        0.0000
     54 H          21.7988  -11.1819   10.8647 H         1 UNL1        0.0000
     55 H          21.2943   -8.1073   10.5472 H         1 UNL1        0.0000
@<TRIPOS>BOND
     1    1   18 1
     2    1   21 1
     3    1   17 am
     4    2   19 1
     5    2   20 1
     6    2   22 am
     7    3    4 1
     8    3   12 2
     9    4    5 am
    10    4   55 1
    11    5   29 2
    12    5    6 1
    13    6    7 ar
    14    6   11 ar
    15    7    8 ar
    16    7   33 1
    17    8   34 1
    18    8    9 ar
    19    9   10 ar
    20    9   35 1
    21   10   11 ar
    22   10   36 1
    23   11   12 1
    24   12   13 1
    25   13   37 1
    26   13   38 1
    27   13   14 1
    28   14   15 ar
    29   14   28 ar
    30   15   39 1
    31   15   16 ar
    32   16   26 ar
    33   16   17 1
    34   17   31 2
    35   18   19 1
    36   18   40 1
    37   18   41 1
    38   19   42 1
    39   19   43 1
    40   20   21 1
    41   20   45 1
    42   20   44 1
    43   21   46 1
    44   21   47 1
    45   22   30 2
    46   22   23 1
    47   23   25 1
    48   23   24 1
    49   23   48 1
    50   24   25 1
    51   24   49 1
    52   24   50 1
    53   25   51 1
    54   25   52 1
    55   26   27 ar
    56   26   32 1
    57   27   28 ar
    58   27   53 1
    59   28   54 1
@<TRIPOS>SUBSTRUCTURE
1 UNL1 1
@<TRIPOS>COMMENT
olaparib
PLANTSproteinTorsions
57
1 134.7979
19 241.3065
33 200.2355
53 306.6921
108 250.7512
228 5.0662
405 79.0743
438 146.2659
479 50.2148
492 9.4072
546 205.8201
641 107.1867
776 140.8738
836 87.6011
905 2.4727
919 271.5662
988 263.8784
1139 200.2202
1332 85.4345
1388 44.9119
1606 256.9956
1642 75.5517
1655 12.2408
1759 100.8032
1952 20.8539
1986 58.8098
2049 82.3736
2207 15.6478
2220 185.7951
2267 221.0796
2305 11.1783
2319 207.2754
2601 51.8656
2653 68.1183
2695 8.5438
2741 60.4016
2763 165.5929
2818 319.6889
2847 240.3265
2913 268.4581
2968 245.5332
2982 3.1809
2996 232.7829
3051 345.6843
3105 247.0661
3240 14.3510
3280 204.1304
3290 21.6468
3365 298.4483
3426 162.5318
3477 137.6679
3534 226.9385
3661 126.6752
3685 315.5631
3741 13.5212
3784 181.6560
3862 46.0779
PLANTSmolcadARTstart hb
PLANTSmolcadARTstart HB
LINES
24.0069 -15.9093 13.7571 23.871 -17.671 15.181 0 255 0 5
PLANTSmolcadARTstart HBCH
LINES
PLANTSmolcadARTstart HB-CHO
LINES
PLANTSmolcadARTend
PLANTSmolcadARTstart HB_WATER
LINES
PLANTSmolcadARTend

PLANTSmolcadARTend

