@<TRIPOS>MOLECULE
olaparib_entry_00001_conf_03
55 59 1
SMALL
NO_CHARGES


@<TRIPOS>ATOM
      1 N          27.1137   -7.0620    6.7615 N.am      1 UNL1        0.0000
      2 N          27.0002   -6.7871    9.3422 N.am      1 UNL1        0.0000
      3 N          21.3332   -7.4529    6.8651 N.2       1 UNL1        0.0000
      4 N          20.8477   -7.7598    8.0435 N.am      1 UNL1        0.0000
      5 C          20.0941   -8.8454    8.2681 C.2       1 UNL1        0.0000
      6 C          19.8105   -9.6864    7.2117 C.ar      1 UNL1        0.0000
      7 C          19.0145  -10.8191    7.3859 C.ar      1 UNL1        0.0000
      8 C          18.7267  -11.6333    6.3118 C.ar      1 UNL1        0.0000
      9 C          19.2564  -11.2695    5.0918 C.ar      1 UNL1        0.0000
     10 C          20.0474  -10.1484    4.9044 C.ar      1 UNL1        0.0000
     11 C          20.3283   -9.3508    5.9743 C.ar      1 UNL1        0.0000
     12 C          21.0972   -8.2368    5.7683 C.2       1 UNL1        0.0000
     13 C          21.7485   -7.8201    4.5333 C.3       1 UNL1        0.0000
     14 C          23.1665   -8.2741    4.5101 C.ar      1 UNL1        0.0000
     15 C          24.1046   -7.3564    5.0157 C.ar      1 UNL1        0.0000
     16 C          25.4401   -7.6803    5.0268 C.ar      1 UNL1        0.0000
     17 C          26.4520   -6.7344    5.5491 C.2       1 UNL1        0.0000
     18 C          28.0989   -6.1773    7.2940 C.3       1 UNL1        0.0000
     19 C          28.2386   -6.2953    8.7966 C.3       1 UNL1        0.0000
     20 C          26.5720   -8.1250    8.9197 C.3       1 UNL1        0.0000
     21 C          26.7696   -8.2999    7.4360 C.3       1 UNL1        0.0000
     22 C          26.2242   -6.0412   10.2342 C.2       1 UNL1        0.0000
     23 C          26.5083   -4.6943   10.7362 C.3       1 UNL1        0.0000
     24 C          26.9509   -4.5998   12.1789 C.3       1 UNL1        0.0000
     25 C          25.6487   -4.0661   11.7735 C.3       1 UNL1        0.0000
     26 C          25.9295   -8.8782    4.5626 C.ar      1 UNL1        0.0000
     27 C          25.0104   -9.7757    4.0679 C.ar      1 UNL1        0.0000
     28 C          23.6471   -9.4480    4.0542 C.ar      1 UNL1        0.0000
     29 O          19.6208   -9.1571    9.3908 O.2       1 UNL1        0.0000
     30 O          25.1429   -6.5750   10.6714 O.2       1 UNL1        0.0000
     31 O          26.7367   -5.6673    4.9584 O.2       1 UNL1        0.0000
     32 F          27.2661   -9.1526    4.5945 F         1 UNL1        0.0000
     33 H          18.6412  -11.0481    8.3204 H         1 UNL1        0.0000
     34 H          18.1413  -12.4758    6.4158 H         1 UNL1        0.0000
     35 H          19.0520  -11.8647    4.2744 H         1 UNL1        0.0000
     36 H          20.4195   -9.9193    3.9692 H         1 UNL1        0.0000
     37 H          21.7193   -6.7528    4.4624 H         1 UNL1        0.0000
     38 H          21.2330   -8.2606    3.7054 H         1 UNL1        0.0000
     39 H          23.7910   -6.4422    5.3770 H         1 UNL1        0.0000
     40 H          27.8221   -5.1718    7.0534 H         1 UNL1        0.0000
     41 H          29.0405   -6.4430    6.8597 H         1 UNL1        0.0000
     42 H          28.4594   -5.3353    9.2134 H         1 UNL1        0.0000
     43 H          29.0340   -6.9707    9.0347 H         1 UNL1        0.0000
     44 H          25.5360   -8.2540    9.1538 H         1 UNL1        0.0000
     45 H          27.1606   -8.8557    9.4342 H         1 UNL1        0.0000
     46 H          25.8621   -8.6772    7.0125 H         1 UNL1        0.0000
     47 H          27.5855   -8.9771    7.2985 H         1 UNL1        0.0000
     48 H          26.8599   -4.3752    9.7776 H         1 UNL1        0.0000
     49 H          27.7411   -3.9324   12.4537 H         1 UNL1        0.0000
     50 H          27.2874   -5.2998   12.9149 H         1 UNL1        0.0000
     51 H          25.4894   -3.0080   11.7619 H         1 UNL1        0.0000
     52 H          24.6435   -4.2199   12.1041 H         1 UNL1        0.0000
     53 H          25.3255  -10.6905    3.7072 H         1 UNL1        0.0000
     54 H          22.9790  -10.1389    3.6775 H         1 UNL1        0.0000
     55 H          21.0471   -7.1634    8.8014 H         1 UNL1        0.0000
@<TRIPOS>BOND
     1    1   18 1
     2    1   21 1
     3    1   17 am
     4    2   19 1
     5    2   20 1
     6    2   22 am
     7    3    4 1
     8    3   12 2
     9    4    5 am
    10    4   55 1
    11    5   29 2
    12    5    6 1
    13    6    7 ar
    14    6   11 ar
    15    7    8 ar
    16    7   33 1
    17    8   34 1
    18    8    9 ar
    19    9   10 ar
    20    9   35 1
    21   10   11 ar
    22   10   36 1
    23   11   12 1
    24   12   13 1
    25   13   37 1
    26   13   38 1
    27   13   14 1
    28   14   15 ar
    29   14   28 ar
    30   15   39 1
    31   15   16 ar
    32   16   26 ar
    33   16   17 1
    34   17   31 2
    35   18   19 1
    36   18   40 1
    37   18   41 1
    38   19   42 1
    39   19   43 1
    40   20   21 1
    41   20   45 1
    42   20   44 1
    43   21   46 1
    44   21   47 1
    45   22   30 2
    46   22   23 1
    47   23   25 1
    48   23   24 1
    49   23   48 1
    50   24   25 1
    51   24   49 1
    52   24   50 1
    53   25   51 1
    54   25   52 1
    55   26   27 ar
    56   26   32 1
    57   27   28 ar
    58   27   53 1
    59   28   54 1
@<TRIPOS>SUBSTRUCTURE
1 UNL1 1
@<TRIPOS>COMMENT
olaparib
PLANTSproteinTorsions
57
1 24.9722
19 138.7766
33 3.9294
53 193.1868
108 20.3961
228 4.4769
405 125.5553
438 88.4583
479 70.2459
492 173.6562
546 191.5674
641 159.1904
776 43.3696
836 196.3899
905 51.7424
919 69.1155
988 344.1362
1139 51.2784
1332 298.6891
1388 187.1157
1606 300.8418
1642 220.9307
1655 132.1095
1759 230.1074
1952 205.5273
1986 306.6401
2049 242.2914
2207 14.0351
2220 246.3374
2267 342.9927
2305 225.7824
2319 115.5227
2601 235.6790
2653 268.3284
2695 119.1858
2741 264.1488
2763 60.4095
2818 207.6093
2847 79.0701
2913 256.9611
2968 236.4465
2982 42.1282
2996 111.6466
3051 80.2642
3105 192.0090
3240 216.0617
3280 188.5669
3290 135.3704
3365 108.6999
3426 211.4612
3477 96.5058
3534 198.3655
3661 190.6828
3685 226.0401
3741 289.6752
3784 118.4679
3862 150.6603
PLANTSmolcadARTstart hb
PLANTSmolcadARTstart HB
LINES
19.6208 -9.15707 9.39085 20.0911 -9.33486 11.1688 0 255 0 5
19.6208 -9.15707 9.39085 18.627 -8.345 10.407 0 255 0 5
26.7367 -5.66733 4.95841 27.0909 -3.92395 5.77982 0 255 0 5
PLANTSmolcadARTstart HBCH
LINES
PLANTSmolcadARTstart HB-CHO
LINES
PLANTSmolcadARTend
PLANTSmolcadARTstart HB_WATER
LINES
PLANTSmolcadARTend

PLANTSmolcadARTend

