@<TRIPOS>MOLECULE
olaparib_entry_00001_conf_06
55 59 1
SMALL
NO_CHARGES


@<TRIPOS>ATOM
      1 N          23.3860   -9.6757    6.1008 N.am      1 UNL1        0.0000
      2 N          22.8310   -8.5428    3.8300 N.am      1 UNL1        0.0000
      3 N          28.2500   -6.9063    7.8921 N.2       1 UNL1        0.0000
      4 N          28.8780   -5.9047    7.3256 N.am      1 UNL1        0.0000
      5 C          28.9724   -4.6880    7.8804 C.2       1 UNL1        0.0000
      6 C          28.3817   -4.4709    9.1082 C.ar      1 UNL1        0.0000
      7 C          28.4326   -3.2184    9.7211 C.ar      1 UNL1        0.0000
      8 C          27.8169   -3.0189   10.9380 C.ar      1 UNL1        0.0000
      9 C          27.1664   -4.1000   11.4942 C.ar      1 UNL1        0.0000
     10 C          27.1075   -5.3482   10.8972 C.ar      1 UNL1        0.0000
     11 C          27.7222   -5.5356    9.6943 C.ar      1 UNL1        0.0000
     12 C          27.6395   -6.7708    9.1096 C.2       1 UNL1        0.0000
     13 C          27.0341   -7.9773    9.6583 C.3       1 UNL1        0.0000
     14 C          25.5509   -7.9193    9.5399 C.ar      1 UNL1        0.0000
     15 C          24.9816   -8.8143    8.6166 C.ar      1 UNL1        0.0000
     16 C          23.6202   -8.8286    8.4289 C.ar      1 UNL1        0.0000
     17 C          22.9914   -9.7565    7.4620 C.2       1 UNL1        0.0000
     18 C          22.8055  -10.5570    5.1399 C.3       1 UNL1        0.0000
     19 C          22.8095   -9.9797    3.7407 C.3       1 UNL1        0.0000
     20 C          24.0028   -7.9334    4.4683 C.3       1 UNL1        0.0000
     21 C          24.3793   -8.6904    5.7159 C.3       1 UNL1        0.0000
     22 C          21.7938   -7.7444    3.3390 C.2       1 UNL1        0.0000
     23 C          20.5603   -8.2011    2.6932 C.3       1 UNL1        0.0000
     24 C          20.5749   -8.2430    1.1819 C.3       1 UNL1        0.0000
     25 C          19.7310   -7.2719    1.8818 C.3       1 UNL1        0.0000
     26 C          22.7567   -8.0006    9.1063 C.ar      1 UNL1        0.0000
     27 C          23.3151   -7.1249   10.0097 C.ar      1 UNL1        0.0000
     28 C          24.7038   -7.1070   10.2029 C.ar      1 UNL1        0.0000
     29 O          29.5712   -3.7157    7.3534 O.2       1 UNL1        0.0000
     30 O          21.9151   -6.4730    3.4574 O.2       1 UNL1        0.0000
     31 O          22.1324  -10.6001    7.8074 O.2       1 UNL1        0.0000
     32 F          21.4112   -8.0527    8.8837 F         1 UNL1        0.0000
     33 H          28.9324   -2.4403    9.2631 H         1 UNL1        0.0000
     34 H          27.8413   -2.1027   11.4105 H         1 UNL1        0.0000
     35 H          26.6978   -3.9718   12.4042 H         1 UNL1        0.0000
     36 H          26.6065   -6.1256   11.3553 H         1 UNL1        0.0000
     37 H          27.3017   -8.0676   10.6904 H         1 UNL1        0.0000
     38 H          27.3900   -8.8232    9.1078 H         1 UNL1        0.0000
     39 H          25.5843   -9.4583    8.0813 H         1 UNL1        0.0000
     40 H          21.7936  -10.7566    5.4256 H         1 UNL1        0.0000
     41 H          23.3952  -11.4503    5.1230 H         1 UNL1        0.0000
     42 H          21.9301  -10.2947    3.2196 H         1 UNL1        0.0000
     43 H          23.6725  -10.3235    3.2092 H         1 UNL1        0.0000
     44 H          23.7766   -6.9202    4.7270 H         1 UNL1        0.0000
     45 H          24.8254   -7.9651    3.7847 H         1 UNL1        0.0000
     46 H          24.4939   -7.9915    6.5182 H         1 UNL1        0.0000
     47 H          25.2882   -9.2148    5.5110 H         1 UNL1        0.0000
     48 H          20.3444   -8.8675    3.5017 H         1 UNL1        0.0000
     49 H          20.1277   -9.0665    0.6649 H         1 UNL1        0.0000
     50 H          21.3341   -8.1846    0.4301 H         1 UNL1        0.0000
     51 H          18.6670   -7.3853    1.8663 H         1 UNL1        0.0000
     52 H          19.6244   -6.2088    1.8398 H         1 UNL1        0.0000
     53 H          22.7107   -6.4814   10.5452 H         1 UNL1        0.0000
     54 H          25.0968   -6.4403   10.8861 H         1 UNL1        0.0000
     55 H          29.3019   -6.0538    6.4493 H         1 UNL1        0.0000
@<TRIPOS>BOND
     1    1   18 1
     2    1   21 1
     3    1   17 am
     4    2   19 1
     5    2   20 1
     6    2   22 am
     7    3    4 1
     8    3   12 2
     9    4    5 am
    10    4   55 1
    11    5   29 2
    12    5    6 1
    13    6    7 ar
    14    6   11 ar
    15    7    8 ar
    16    7   33 1
    17    8   34 1
    18    8    9 ar
    19    9   10 ar
    20    9   35 1
    21   10   11 ar
    22   10   36 1
    23   11   12 1
    24   12   13 1
    25   13   37 1
    26   13   38 1
    27   13   14 1
    28   14   15 ar
    29   14   28 ar
    30   15   39 1
    31   15   16 ar
    32   16   26 ar
    33   16   17 1
    34   17   31 2
    35   18   19 1
    36   18   40 1
    37   18   41 1
    38   19   42 1
    39   19   43 1
    40   20   21 1
    41   20   45 1
    42   20   44 1
    43   21   46 1
    44   21   47 1
    45   22   30 2
    46   22   23 1
    47   23   25 1
    48   23   24 1
    49   23   48 1
    50   24   25 1
    51   24   49 1
    52   24   50 1
    53   25   51 1
    54   25   52 1
    55   26   27 ar
    56   26   32 1
    57   27   28 ar
    58   27   53 1
    59   28   54 1
@<TRIPOS>SUBSTRUCTURE
1 UNL1 1
@<TRIPOS>COMMENT
olaparib
PLANTSproteinTorsions
57
1 272.6160
19 178.9441
33 191.3659
53 233.8631
108 315.8481
228 275.0370
405 261.9776
438 218.0815
479 271.3473
492 128.3184
546 266.3100
641 19.2848
776 211.8702
836 258.9746
905 51.7934
919 126.0382
988 113.6723
1139 136.3415
1332 148.2535
1388 343.6750
1606 134.0480
1642 45.4822
1655 220.3177
1759 47.1010
1952 213.5455
1986 155.1853
2049 177.8480
2207 98.7550
2220 245.5002
2267 239.3406
2305 240.0207
2319 179.2659
2601 282.4207
2653 169.7911
2695 145.0203
2741 194.4277
2763 329.7369
2818 138.5570
2847 137.0248
2913 174.9933
2968 261.0539
2982 90.0833
2996 243.1935
3051 223.0202
3105 98.5861
3240 235.1905
3280 190.5972
3290 292.4663
3365 176.8737
3426 128.3191
3477 305.7089
3534 102.7455
3661 69.2160
3685 203.0313
3741 136.0588
3784 286.2762
3862 263.2576
PLANTSmolcadARTstart hb
PLANTSmolcadARTstart HB
LINES
29.3019 -6.05378 6.44934 29.834 -6.332 4.456 0 255 0 5
29.5712 -3.71567 7.35341 27.6852 -3.03927 6.81032 0 255 0 5
PLANTSmolcadARTstart HBCH
LINES
PLANTSmolcadARTstart HB-CHO
LINES
PLANTSmolcadARTend
PLANTSmolcadARTstart HB_WATER
LINES
PLANTSmolcadARTend

PLANTSmolcadARTend

