@<TRIPOS>MOLECULE
olaparib_entry_00001_conf_53
55 59 1
SMALL
NO_CHARGES


@<TRIPOS>ATOM
      1 N          39.8188  -15.9511   12.4101 N.am      1 UNL1        0.0000
      2 N          42.0547  -15.1770   13.4823 N.am      1 UNL1        0.0000
      3 N          39.9748  -15.5600    5.7344 N.2       1 UNL1        0.0000
      4 N          40.5104  -15.5760    4.5379 N.am      1 UNL1        0.0000
      5 C          39.8055  -15.3821    3.4144 C.2       1 UNL1        0.0000
      6 C          38.4483  -15.1542    3.5135 C.ar      1 UNL1        0.0000
      7 C          37.6641  -14.9662    2.3747 C.ar      1 UNL1        0.0000
      8 C          36.3066  -14.7613    2.4966 C.ar      1 UNL1        0.0000
      9 C          35.7874  -14.7555    3.7740 C.ar      1 UNL1        0.0000
     10 C          36.5535  -14.9410    4.9126 C.ar      1 UNL1        0.0000
     11 C          37.8962  -15.1404    4.7811 C.ar      1 UNL1        0.0000
     12 C          38.6362  -15.3397    5.9156 C.2       1 UNL1        0.0000
     13 C          38.1800  -15.2813    7.2982 C.3       1 UNL1        0.0000
     14 C          38.7986  -16.3727    8.1004 C.ar      1 UNL1        0.0000
     15 C          38.7023  -16.2279    9.4959 C.ar      1 UNL1        0.0000
     16 C          39.2523  -17.1792   10.3213 C.ar      1 UNL1        0.0000
     17 C          39.1704  -17.0534   11.7939 C.2       1 UNL1        0.0000
     18 C          39.7580  -15.7933   13.8273 C.3       1 UNL1        0.0000
     19 C          40.9396  -15.0260   14.3805 C.3       1 UNL1        0.0000
     20 C          41.8917  -14.6463   12.1244 C.3       1 UNL1        0.0000
     21 C          40.5338  -15.0026   11.5765 C.3       1 UNL1        0.0000
     22 C          43.2474  -15.7983   13.8639 C.2       1 UNL1        0.0000
     23 C          43.5557  -16.3872   15.1697 C.3       1 UNL1        0.0000
     24 C          44.1549  -15.4539   16.1974 C.3       1 UNL1        0.0000
     25 C          44.9612  -16.5369   15.6301 C.3       1 UNL1        0.0000
     26 C          39.9078  -18.2942    9.8552 C.ar      1 UNL1        0.0000
     27 C          40.0015  -18.4348    8.4891 C.ar      1 UNL1        0.0000
     28 C          39.4424  -17.4655    7.6440 C.ar      1 UNL1        0.0000
     29 O          40.3013  -15.3924    2.2585 O.2       1 UNL1        0.0000
     30 O          44.1850  -15.8718   12.9916 O.2       1 UNL1        0.0000
     31 O          38.5527  -17.8816   12.5019 O.2       1 UNL1        0.0000
     32 F          40.4379  -19.2107   10.7164 F         1 UNL1        0.0000
     33 H          38.1010  -14.9798    1.4399 H         1 UNL1        0.0000
     34 H          35.7067  -14.6195    1.6701 H         1 UNL1        0.0000
     35 H          34.7732  -14.6051    3.8874 H         1 UNL1        0.0000
     36 H          36.1157  -14.9284    5.8472 H         1 UNL1        0.0000
     37 H          37.1154  -15.3863    7.3227 H         1 UNL1        0.0000
     38 H          38.4691  -14.3401    7.7178 H         1 UNL1        0.0000
     39 H          38.2203  -15.4095    9.8990 H         1 UNL1        0.0000
     40 H          39.7370  -16.7632   14.2792 H         1 UNL1        0.0000
     41 H          38.8742  -15.2328   14.0524 H         1 UNL1        0.0000
     42 H          41.1990  -15.4115   15.3441 H         1 UNL1        0.0000
     43 H          40.6871  -13.9903   14.4752 H         1 UNL1        0.0000
     44 H          42.6465  -15.0619   11.4903 H         1 UNL1        0.0000
     45 H          41.9817  -13.5805   12.1560 H         1 UNL1        0.0000
     46 H          40.6594  -15.4314   10.6041 H         1 UNL1        0.0000
     47 H          39.9548  -14.1043   11.5445 H         1 UNL1        0.0000
     48 H          42.7272  -17.0602   15.0990 H         1 UNL1        0.0000
     49 H          43.8335  -15.5033   17.2170 H         1 UNL1        0.0000
     50 H          44.2641  -14.3930   16.2842 H         1 UNL1        0.0000
     51 H          45.2337  -17.3717   16.2416 H         1 UNL1        0.0000
     52 H          45.9083  -16.5821   15.1359 H         1 UNL1        0.0000
     53 H          40.4836  -19.2546    8.0869 H         1 UNL1        0.0000
     54 H          39.5271  -17.5949    6.6234 H         1 UNL1        0.0000
     55 H          41.4787  -15.7378    4.4610 H         1 UNL1        0.0000
@<TRIPOS>BOND
     1    1   18 1
     2    1   21 1
     3    1   17 am
     4    2   19 1
     5    2   20 1
     6    2   22 am
     7    3    4 1
     8    3   12 2
     9    4    5 am
    10    4   55 1
    11    5   29 2
    12    5    6 1
    13    6    7 ar
    14    6   11 ar
    15    7    8 ar
    16    7   33 1
    17    8   34 1
    18    8    9 ar
    19    9   10 ar
    20    9   35 1
    21   10   11 ar
    22   10   36 1
    23   11   12 1
    24   12   13 1
    25   13   37 1
    26   13   38 1
    27   13   14 1
    28   14   15 ar
    29   14   28 ar
    30   15   39 1
    31   15   16 ar
    32   16   26 ar
    33   16   17 1
    34   17   31 2
    35   18   19 1
    36   18   40 1
    37   18   41 1
    38   19   42 1
    39   19   43 1
    40   20   21 1
    41   20   45 1
    42   20   44 1
    43   21   46 1
    44   21   47 1
    45   22   30 2
    46   22   23 1
    47   23   25 1
    48   23   24 1
    49   23   48 1
    50   24   25 1
    51   24   49 1
    52   24   50 1
    53   25   51 1
    54   25   52 1
    55   26   27 ar
    56   26   32 1
    57   27   28 ar
    58   27   53 1
    59   28   54 1
@<TRIPOS>SUBSTRUCTURE
1 UNL1 1
@<TRIPOS>COMMENT
olaparib
PLANTSproteinTorsions
57
1 177.5300
19 174.0062
33 166.4891
53 68.0475
108 157.7723
228 358.3153
405 11.2148
438 125.6577
479 242.7772
492 164.1082
546 8.1307
641 49.0897
776 173.6224
836 28.7740
905 205.4480
919 219.0655
988 105.9274
1139 287.1789
1332 52.5211
1388 86.4705
1606 301.2642
1642 53.9047
1655 279.7548
1759 128.0036
1952 126.4721
1986 325.2444
2049 224.3281
2207 52.4809
2220 213.1938
2267 248.2892
2305 219.5490
2319 185.2588
2601 209.2190
2653 67.3811
2695 335.5704
2741 278.4484
2763 252.8430
2818 227.5990
2847 326.5941
2913 83.7621
2968 140.3410
2982 130.4375
2996 106.7365
3051 216.9805
3105 181.8584
3240 226.0572
3280 148.3577
3290 189.2506
3365 269.4552
3426 231.4176
3477 64.9842
3534 235.7044
3661 231.7600
3685 107.9947
3741 171.1889
3784 256.1342
3862 133.2172
PLANTSmolcadARTstart hb
PLANTSmolcadARTstart HB
LINES
44.185 -15.8718 12.9916 44.196 -14.19 12.198 0 255 0 5
PLANTSmolcadARTstart HBCH
LINES
PLANTSmolcadARTstart HB-CHO
LINES
PLANTSmolcadARTend
PLANTSmolcadARTstart HB_WATER
LINES
PLANTSmolcadARTend

PLANTSmolcadARTend

