@<TRIPOS>MOLECULE
olaparib_entry_00001_conf_49
55 59 1
SMALL
NO_CHARGES


@<TRIPOS>ATOM
      1 N          33.4021  -22.4683    9.3791 N.am      1 UNL1        0.0000
      2 N          31.8178  -21.5209   11.2068 N.am      1 UNL1        0.0000
      3 N          35.8104  -17.1961    8.2434 N.2       1 UNL1        0.0000
      4 N          36.8322  -16.4878    8.6591 N.am      1 UNL1        0.0000
      5 C          37.4671  -15.5920    7.8901 C.2       1 UNL1        0.0000
      6 C          37.0299  -15.4004    6.5956 C.ar      1 UNL1        0.0000
      7 C          37.6672  -14.4951    5.7462 C.ar      1 UNL1        0.0000
      8 C          37.2264  -14.3357    4.4501 C.ar      1 UNL1        0.0000
      9 C          36.1510  -15.1037    4.0565 C.ar      1 UNL1        0.0000
     10 C          35.5093  -16.0060    4.8884 C.ar      1 UNL1        0.0000
     11 C          35.9517  -16.1542    6.1699 C.ar      1 UNL1        0.0000
     12 C          35.3173  -17.0631    6.9736 C.2       1 UNL1        0.0000
     13 C          34.1386  -17.8598    6.6595 C.3       1 UNL1        0.0000
     14 C          34.5071  -19.2910    6.4774 C.ar      1 UNL1        0.0000
     15 C          34.4185  -20.0907    7.6308 C.ar      1 UNL1        0.0000
     16 C          34.7481  -21.4233    7.5656 C.ar      1 UNL1        0.0000
     17 C          34.6685  -22.2901    8.7630 C.2       1 UNL1        0.0000
     18 C          33.2846  -23.3006   10.5325 C.3       1 UNL1        0.0000
     19 C          32.1177  -22.9136   11.4154 C.3       1 UNL1        0.0000
     20 C          31.3893  -21.1272    9.8602 C.3       1 UNL1        0.0000
     21 C          32.2471  -21.7941    8.8159 C.3       1 UNL1        0.0000
     22 C          31.9238  -20.5693   12.2253 C.2       1 UNL1        0.0000
     23 C          32.3488  -20.8022   13.6082 C.3       1 UNL1        0.0000
     24 C          31.4655  -20.2141   14.6853 C.3       1 UNL1        0.0000
     25 C          32.8118  -19.6804   14.4667 C.3       1 UNL1        0.0000
     26 C          35.1698  -22.0403    6.4117 C.ar      1 UNL1        0.0000
     27 C          35.2562  -21.2566    5.2833 C.ar      1 UNL1        0.0000
     28 C          34.9216  -19.8964    5.3466 C.ar      1 UNL1        0.0000
     29 O          38.4475  -14.9025    8.2711 O.2       1 UNL1        0.0000
     30 O          31.6222  -19.3559   11.9390 O.2       1 UNL1        0.0000
     31 O          35.6744  -22.8633    9.2408 O.2       1 UNL1        0.0000
     32 F          35.4865  -23.3678    6.3984 F         1 UNL1        0.0000
     33 H          38.4692  -13.9436    6.0889 H         1 UNL1        0.0000
     34 H          37.6807  -13.6728    3.8041 H         1 UNL1        0.0000
     35 H          35.8060  -15.0007    3.0898 H         1 UNL1        0.0000
     36 H          34.7079  -16.5581    4.5446 H         1 UNL1        0.0000
     37 H          33.6955  -17.4928    5.7573 H         1 UNL1        0.0000
     38 H          33.4444  -17.7841    7.4705 H         1 UNL1        0.0000
     39 H          34.1072  -19.6779    8.5238 H         1 UNL1        0.0000
     40 H          34.1867  -23.2240   11.1034 H         1 UNL1        0.0000
     41 H          33.1153  -24.3016   10.1929 H         1 UNL1        0.0000
     42 H          32.3736  -23.0768   12.4412 H         1 UNL1        0.0000
     43 H          31.2637  -23.5099   11.1695 H         1 UNL1        0.0000
     44 H          31.4747  -20.0655    9.7592 H         1 UNL1        0.0000
     45 H          30.3734  -21.4312    9.7172 H         1 UNL1        0.0000
     46 H          32.5898  -21.0491    8.1284 H         1 UNL1        0.0000
     47 H          31.6469  -22.5359    8.3335 H         1 UNL1        0.0000
     48 H          32.7611  -21.7565   13.3559 H         1 UNL1        0.0000
     49 H          31.2504  -20.7788   15.5685 H         1 UNL1        0.0000
     50 H          30.4803  -19.7976   14.7127 H         1 UNL1        0.0000
     51 H          33.5750  -19.8507   15.1971 H         1 UNL1        0.0000
     52 H          33.2057  -18.7054   14.2735 H         1 UNL1        0.0000
     53 H          35.5673  -21.6711    4.3902 H         1 UNL1        0.0000
     54 H          34.9955  -19.3311    4.4860 H         1 UNL1        0.0000
     55 H          37.1485  -16.6200    9.5823 H         1 UNL1        0.0000
@<TRIPOS>BOND
     1    1   18 1
     2    1   21 1
     3    1   17 am
     4    2   19 1
     5    2   20 1
     6    2   22 am
     7    3    4 1
     8    3   12 2
     9    4    5 am
    10    4   55 1
    11    5   29 2
    12    5    6 1
    13    6    7 ar
    14    6   11 ar
    15    7    8 ar
    16    7   33 1
    17    8   34 1
    18    8    9 ar
    19    9   10 ar
    20    9   35 1
    21   10   11 ar
    22   10   36 1
    23   11   12 1
    24   12   13 1
    25   13   37 1
    26   13   38 1
    27   13   14 1
    28   14   15 ar
    29   14   28 ar
    30   15   39 1
    31   15   16 ar
    32   16   26 ar
    33   16   17 1
    34   17   31 2
    35   18   19 1
    36   18   40 1
    37   18   41 1
    38   19   42 1
    39   19   43 1
    40   20   21 1
    41   20   45 1
    42   20   44 1
    43   21   46 1
    44   21   47 1
    45   22   30 2
    46   22   23 1
    47   23   25 1
    48   23   24 1
    49   23   48 1
    50   24   25 1
    51   24   49 1
    52   24   50 1
    53   25   51 1
    54   25   52 1
    55   26   27 ar
    56   26   32 1
    57   27   28 ar
    58   27   53 1
    59   28   54 1
@<TRIPOS>SUBSTRUCTURE
1 UNL1 1
@<TRIPOS>COMMENT
olaparib
PLANTSproteinTorsions
57
1 302.6032
19 241.5021
33 54.0885
53 331.5143
108 262.5142
228 225.6926
405 59.5794
438 177.0564
479 115.8621
492 34.2849
546 91.3994
641 226.2599
776 158.6764
836 245.5301
905 85.6608
919 219.5982
988 69.5397
1139 107.4296
1332 185.1411
1388 168.1776
1606 52.6700
1642 36.1358
1655 311.6101
1759 82.7275
1952 73.1621
1986 72.5191
2049 262.1058
2207 115.9605
2220 215.0870
2267 0.8677
2305 170.1762
2319 338.2697
2601 151.2636
2653 181.9287
2695 182.4408
2741 304.4267
2763 78.9391
2818 248.4662
2847 194.3038
2913 83.4891
2968 329.6227
2982 83.6422
2996 128.1946
3051 108.8765
3105 186.7580
3240 76.0090
3280 344.9991
3290 97.2224
3365 153.3517
3426 196.0104
3477 265.9494
3534 186.8246
3661 23.9527
3685 36.5761
3741 261.6469
3784 266.3315
3862 189.4650
PLANTSmolcadARTstart hb
PLANTSmolcadARTstart HB
LINES
PLANTSmolcadARTstart HBCH
LINES
PLANTSmolcadARTstart HB-CHO
LINES
PLANTSmolcadARTend
PLANTSmolcadARTstart HB_WATER
LINES
PLANTSmolcadARTend

PLANTSmolcadARTend

