@<TRIPOS>MOLECULE
olaparib_entry_00001_conf_85
55 59 1
SMALL
NO_CHARGES


@<TRIPOS>ATOM
      1 N          40.4597  -18.4714   10.8597 N.am      1 UNL1        0.0000
      2 N          40.2241  -15.9804   11.5578 N.am      1 UNL1        0.0000
      3 N          42.7978  -19.8120    4.0235 N.2       1 UNL1        0.0000
      4 N          43.2433  -19.0162    3.0816 N.am      1 UNL1        0.0000
      5 C          42.7575  -17.7852    2.8688 C.2       1 UNL1        0.0000
      6 C          41.7377  -17.3254    3.6765 C.ar      1 UNL1        0.0000
      7 C          41.1820  -16.0598    3.4855 C.ar      1 UNL1        0.0000
      8 C          40.1495  -15.6298    4.2909 C.ar      1 UNL1        0.0000
      9 C          39.7122  -16.5014    5.2657 C.ar      1 UNL1        0.0000
     10 C          40.2540  -17.7600    5.4662 C.ar      1 UNL1        0.0000
     11 C          41.2770  -18.1748    4.6655 C.ar      1 UNL1        0.0000
     12 C          41.7894  -19.4286    4.8657 C.2       1 UNL1        0.0000
     13 C          41.4333  -20.3800    5.9102 C.3       1 UNL1        0.0000
     14 C          42.2317  -20.1288    7.1418 C.ar      1 UNL1        0.0000
     15 C          41.4873  -19.9705    8.3243 C.ar      1 UNL1        0.0000
     16 C          42.1344  -19.7245    9.5115 C.ar      1 UNL1        0.0000
     17 C          41.3787  -19.5498   10.7724 C.2       1 UNL1        0.0000
     18 C          39.7092  -18.2736   12.0574 C.3       1 UNL1        0.0000
     19 C          39.2957  -16.8311   12.2558 C.3       1 UNL1        0.0000
     20 C          40.2979  -16.1308   10.1005 C.3       1 UNL1        0.0000
     21 C          40.3038  -17.5886    9.7186 C.3       1 UNL1        0.0000
     22 C          41.0294  -15.0473   12.2175 C.2       1 UNL1        0.0000
     23 C          41.0809  -14.7907   13.6593 C.3       1 UNL1        0.0000
     24 C          42.2331  -15.4212   14.4081 C.3       1 UNL1        0.0000
     25 C          40.8638  -15.8860   14.6406 C.3       1 UNL1        0.0000
     26 C          43.5012  -19.6214    9.6183 C.ar      1 UNL1        0.0000
     27 C          44.2288  -19.7765    8.4601 C.ar      1 UNL1        0.0000
     28 C          43.5717  -20.0266    7.2469 C.ar      1 UNL1        0.0000
     29 O          43.1723  -17.0071    1.9719 O.2       1 UNL1        0.0000
     30 O          41.8155  -14.3293   11.5021 O.2       1 UNL1        0.0000
     31 O          41.5258  -20.3173   11.7511 O.2       1 UNL1        0.0000
     32 F          44.0969  -19.3751   10.8212 F         1 UNL1        0.0000
     33 H          41.5449  -15.4444    2.7408 H         1 UNL1        0.0000
     34 H          39.7231  -14.6988    4.1693 H         1 UNL1        0.0000
     35 H          38.9392  -16.1996    5.8786 H         1 UNL1        0.0000
     36 H          39.8897  -18.3753    6.2105 H         1 UNL1        0.0000
     37 H          41.6257  -21.3735    5.5624 H         1 UNL1        0.0000
     38 H          40.3954  -20.2639    6.1438 H         1 UNL1        0.0000
     39 H          40.4580  -20.0385    8.3007 H         1 UNL1        0.0000
     40 H          40.3084  -18.5763   12.8910 H         1 UNL1        0.0000
     41 H          38.8159  -18.8584   11.9794 H         1 UNL1        0.0000
     42 H          39.3054  -16.5948   13.2991 H         1 UNL1        0.0000
     43 H          38.3075  -16.6814   11.8731 H         1 UNL1        0.0000
     44 H          41.1952  -15.6705    9.7433 H         1 UNL1        0.0000
     45 H          39.4423  -15.6627    9.6602 H         1 UNL1        0.0000
     46 H          41.1145  -17.7613    9.0417 H         1 UNL1        0.0000
     47 H          39.3575  -17.8071    9.2715 H         1 UNL1        0.0000
     48 H          40.6555  -13.8171   13.5348 H         1 UNL1        0.0000
     49 H          42.7462  -14.8667   15.1661 H         1 UNL1        0.0000
     50 H          43.1543  -15.8874   14.1268 H         1 UNL1        0.0000
     51 H          40.3835  -15.6759   15.5734 H         1 UNL1        0.0000
     52 H          40.3827  -16.8400   14.6008 H         1 UNL1        0.0000
     53 H          45.2589  -19.7088    8.4852 H         1 UNL1        0.0000
     54 H          44.1410  -20.1385    6.3931 H         1 UNL1        0.0000
     55 H          43.9713  -19.3389    2.5022 H         1 UNL1        0.0000
@<TRIPOS>BOND
     1    1   18 1
     2    1   21 1
     3    1   17 am
     4    2   19 1
     5    2   20 1
     6    2   22 am
     7    3    4 1
     8    3   12 2
     9    4    5 am
    10    4   55 1
    11    5   29 2
    12    5    6 1
    13    6    7 ar
    14    6   11 ar
    15    7    8 ar
    16    7   33 1
    17    8   34 1
    18    8    9 ar
    19    9   10 ar
    20    9   35 1
    21   10   11 ar
    22   10   36 1
    23   11   12 1
    24   12   13 1
    25   13   37 1
    26   13   38 1
    27   13   14 1
    28   14   15 ar
    29   14   28 ar
    30   15   39 1
    31   15   16 ar
    32   16   26 ar
    33   16   17 1
    34   17   31 2
    35   18   19 1
    36   18   40 1
    37   18   41 1
    38   19   42 1
    39   19   43 1
    40   20   21 1
    41   20   45 1
    42   20   44 1
    43   21   46 1
    44   21   47 1
    45   22   30 2
    46   22   23 1
    47   23   25 1
    48   23   24 1
    49   23   48 1
    50   24   25 1
    51   24   49 1
    52   24   50 1
    53   25   51 1
    54   25   52 1
    55   26   27 ar
    56   26   32 1
    57   27   28 ar
    58   27   53 1
    59   28   54 1
@<TRIPOS>SUBSTRUCTURE
1 UNL1 1
@<TRIPOS>COMMENT
olaparib
PLANTSproteinTorsions
57
1 59.6591
19 1.2604
33 314.7359
53 63.6278
108 84.8005
228 65.7429
405 2.3323
438 258.9610
479 94.6120
492 110.5627
546 348.6009
641 151.8988
776 257.8695
836 116.3879
905 119.5960
919 247.2815
988 87.1144
1139 165.0596
1332 258.6206
1388 215.9426
1606 111.3860
1642 84.7775
1655 177.5587
1759 199.9256
1952 340.1665
1986 162.0558
2049 325.1320
2207 216.9262
2220 125.6523
2267 61.8644
2305 294.0269
2319 7.5003
2601 102.2366
2653 223.7903
2695 224.7600
2741 11.1700
2763 343.7401
2818 194.2676
2847 276.7708
2913 13.0674
2968 223.9613
2982 89.8628
2996 22.0314
3051 256.5117
3105 214.9575
3240 63.0137
3280 85.9661
3290 114.1773
3365 174.9387
3426 134.0232
3477 213.5553
3534 180.6638
3661 69.6054
3685 121.7894
3741 77.2372
3784 257.1106
3862 74.8478
PLANTSmolcadARTstart hb
PLANTSmolcadARTstart HB
LINES
PLANTSmolcadARTstart HBCH
LINES
PLANTSmolcadARTstart HB-CHO
LINES
PLANTSmolcadARTend
PLANTSmolcadARTstart HB_WATER
LINES
PLANTSmolcadARTend

PLANTSmolcadARTend

