@<TRIPOS>MOLECULE
olaparib_entry_00001_conf_10
55 59 1
SMALL
NO_CHARGES


@<TRIPOS>ATOM
      1 N          23.4912  -11.7937   11.3755 N.am      1 UNL1        0.0000
      2 N          24.8853  -13.9603   11.7084 N.am      1 UNL1        0.0000
      3 N          26.8915   -6.8137    8.6436 N.2       1 UNL1        0.0000
      4 N          27.9416   -6.3786    7.9904 N.am      1 UNL1        0.0000
      5 C          28.6003   -5.2587    8.3201 C.2       1 UNL1        0.0000
      6 C          28.1573   -4.5214    9.3989 C.ar      1 UNL1        0.0000
      7 C          28.7940   -3.3374    9.7728 C.ar      1 UNL1        0.0000
      8 C          28.3209   -2.6059   10.8408 C.ar      1 UNL1        0.0000
      9 C          27.2128   -3.1006   11.4956 C.ar      1 UNL1        0.0000
     10 C          26.5710   -4.2736   11.1353 C.ar      1 UNL1        0.0000
     11 C          27.0487   -4.9912   10.0786 C.ar      1 UNL1        0.0000
     12 C          26.3919   -6.1392    9.7247 C.2       1 UNL1        0.0000
     13 C          25.2626   -6.7639   10.4011 C.3       1 UNL1        0.0000
     14 C          24.7362   -7.9025    9.5988 C.ar      1 UNL1        0.0000
     15 C          24.0370   -8.8830   10.3250 C.ar      1 UNL1        0.0000
     16 C          23.5219   -9.9782    9.6739 C.ar      1 UNL1        0.0000
     17 C          22.7843  -11.0289   10.4110 C.2       1 UNL1        0.0000
     18 C          22.8128  -12.8124   12.1098 C.3       1 UNL1        0.0000
     19 C          23.7430  -13.9085   12.5834 C.3       1 UNL1        0.0000
     20 C          25.7388  -12.7684   11.6576 C.3       1 UNL1        0.0000
     21 C          24.8991  -11.5185   11.5940 C.3       1 UNL1        0.0000
     22 C          25.1864  -15.0836   10.9326 C.2       1 UNL1        0.0000
     23 C          24.4286  -16.3358   10.8636 C.3       1 UNL1        0.0000
     24 C          25.0892  -17.5497   11.4767 C.3       1 UNL1        0.0000
     25 C          24.8988  -17.4707   10.0266 C.3       1 UNL1        0.0000
     26 C          23.6503  -10.1803    8.3202 C.ar      1 UNL1        0.0000
     27 C          24.3349   -9.2199    7.6103 C.ar      1 UNL1        0.0000
     28 C          24.8627   -8.1017    8.2716 C.ar      1 UNL1        0.0000
     29 O          29.6097   -4.8262    7.7069 O.2       1 UNL1        0.0000
     30 O          26.2340  -15.0326   10.1943 O.2       1 UNL1        0.0000
     31 O          21.5695  -11.2583   10.2099 O.2       1 UNL1        0.0000
     32 F          23.1210  -11.2858    7.7199 F         1 UNL1        0.0000
     33 H          29.6206   -3.0090    9.2495 H         1 UNL1        0.0000
     34 H          28.7747   -1.7284   11.1363 H         1 UNL1        0.0000
     35 H          26.8417   -2.5677   12.2972 H         1 UNL1        0.0000
     36 H          25.7435   -4.6008   11.6585 H         1 UNL1        0.0000
     37 H          24.4869   -6.0389   10.5345 H         1 UNL1        0.0000
     38 H          25.5904   -7.1345   11.3500 H         1 UNL1        0.0000
     39 H          23.9114   -8.7806   11.3440 H         1 UNL1        0.0000
     40 H          22.0636  -13.2466   11.4808 H         1 UNL1        0.0000
     41 H          22.3842  -12.3545   12.9773 H         1 UNL1        0.0000
     42 H          23.2313  -14.8477   12.5632 H         1 UNL1        0.0000
     43 H          24.0615  -13.7060   13.5849 H         1 UNL1        0.0000
     44 H          26.3619  -12.8175   10.7893 H         1 UNL1        0.0000
     45 H          26.3401  -12.7349   12.5421 H         1 UNL1        0.0000
     46 H          25.2551  -10.9082   10.7903 H         1 UNL1        0.0000
     47 H          24.9863  -11.0250   12.5384 H         1 UNL1        0.0000
     48 H          23.4974  -15.8155   10.9445 H         1 UNL1        0.0000
     49 H          24.5104  -18.2388   12.0559 H         1 UNL1        0.0000
     50 H          25.9262  -17.7104   12.1236 H         1 UNL1        0.0000
     51 H          24.1856  -18.1101    9.5496 H         1 UNL1        0.0000
     52 H          25.5497  -17.5571    9.1828 H         1 UNL1        0.0000
     53 H          24.4595   -9.3233    6.5905 H         1 UNL1        0.0000
     54 H          25.3720   -7.3966    7.7158 H         1 UNL1        0.0000
     55 H          28.2626   -6.9010    7.2197 H         1 UNL1        0.0000
@<TRIPOS>BOND
     1    1   18 1
     2    1   21 1
     3    1   17 am
     4    2   19 1
     5    2   20 1
     6    2   22 am
     7    3    4 1
     8    3   12 2
     9    4    5 am
    10    4   55 1
    11    5   29 2
    12    5    6 1
    13    6    7 ar
    14    6   11 ar
    15    7    8 ar
    16    7   33 1
    17    8   34 1
    18    8    9 ar
    19    9   10 ar
    20    9   35 1
    21   10   11 ar
    22   10   36 1
    23   11   12 1
    24   12   13 1
    25   13   37 1
    26   13   38 1
    27   13   14 1
    28   14   15 ar
    29   14   28 ar
    30   15   39 1
    31   15   16 ar
    32   16   26 ar
    33   16   17 1
    34   17   31 2
    35   18   19 1
    36   18   40 1
    37   18   41 1
    38   19   42 1
    39   19   43 1
    40   20   21 1
    41   20   45 1
    42   20   44 1
    43   21   46 1
    44   21   47 1
    45   22   30 2
    46   22   23 1
    47   23   25 1
    48   23   24 1
    49   23   48 1
    50   24   25 1
    51   24   49 1
    52   24   50 1
    53   25   51 1
    54   25   52 1
    55   26   27 ar
    56   26   32 1
    57   27   28 ar
    58   27   53 1
    59   28   54 1
@<TRIPOS>SUBSTRUCTURE
1 UNL1 1
@<TRIPOS>COMMENT
olaparib
PLANTSproteinTorsions
57
1 171.2312
19 111.9900
33 154.9985
53 70.5184
108 306.9485
228 104.5724
405 73.4182
438 14.3479
479 3.6828
492 159.2156
546 156.9738
641 47.8131
776 200.9057
836 90.7264
905 208.3095
919 169.2461
988 270.3033
1139 150.6197
1332 97.2265
1388 120.4624
1606 290.7695
1642 135.3576
1655 221.0855
1759 38.3656
1952 270.4859
1986 51.9825
2049 313.7405
2207 170.6730
2220 240.8876
2267 43.7776
2305 6.8563
2319 107.2337
2601 196.9142
2653 105.9732
2695 86.6475
2741 144.3994
2763 61.5522
2818 46.4492
2847 249.7685
2913 58.7761
2968 206.6481
2982 224.9096
2996 88.9643
3051 170.3795
3105 266.5056
3240 122.6480
3280 34.0953
3290 179.3348
3365 260.4138
3426 265.2744
3477 134.5335
3534 228.0531
3661 225.0944
3685 329.1372
3741 146.9472
3784 112.5471
3862 259.2648
PLANTSmolcadARTstart hb
PLANTSmolcadARTstart HB
LINES
PLANTSmolcadARTstart HBCH
LINES
PLANTSmolcadARTstart HB-CHO
LINES
PLANTSmolcadARTend
PLANTSmolcadARTstart HB_WATER
LINES
PLANTSmolcadARTend

PLANTSmolcadARTend

