@<TRIPOS>MOLECULE
olaparib_entry_00001_conf_02
55 59 1
SMALL
NO_CHARGES


@<TRIPOS>ATOM
      1 N          25.6353  -12.4101   10.2940 N.am      1 UNL1        0.0000
      2 N          23.9084  -14.3504   10.3327 N.am      1 UNL1        0.0000
      3 N          26.0268   -5.6782   11.1682 N.2       1 UNL1        0.0000
      4 N          26.1221   -4.7624   12.1014 N.am      1 UNL1        0.0000
      5 C          27.0093   -3.7585   12.0583 C.2       1 UNL1        0.0000
      6 C          27.8686   -3.6781   10.9818 C.ar      1 UNL1        0.0000
      7 C          28.8245   -2.6651   10.8968 C.ar      1 UNL1        0.0000
      8 C          29.6867   -2.6170    9.8227 C.ar      1 UNL1        0.0000
      9 C          29.5514   -3.6023    8.8676 C.ar      1 UNL1        0.0000
     10 C          28.6078   -4.6134    8.9393 C.ar      1 UNL1        0.0000
     11 C          27.7577   -4.6505   10.0050 C.ar      1 UNL1        0.0000
     12 C          26.8426   -5.6668   10.0693 C.2       1 UNL1        0.0000
     13 C          26.5896   -6.7017    9.0753 C.3       1 UNL1        0.0000
     14 C          25.6472   -7.7228    9.6106 C.ar      1 UNL1        0.0000
     15 C          26.2351   -8.9314   10.0247 C.ar      1 UNL1        0.0000
     16 C          25.4457   -9.9396   10.5238 C.ar      1 UNL1        0.0000
     17 C          26.0343  -11.2244   10.9646 C.2       1 UNL1        0.0000
     18 C          26.1847  -13.6673   10.6874 C.3       1 UNL1        0.0000
     19 C          25.2656  -14.8291   10.3765 C.3       1 UNL1        0.0000
     20 C          23.5861  -13.3576    9.3019 C.3       1 UNL1        0.0000
     21 C          24.6703  -12.3145    9.2145 C.3       1 UNL1        0.0000
     22 C          22.9261  -14.7958   11.2220 C.2       1 UNL1        0.0000
     23 C          23.0944  -15.7659   12.3072 C.3       1 UNL1        0.0000
     24 C          22.3659  -15.4580   13.5958 C.3       1 UNL1        0.0000
     25 C          23.8288  -15.4069   13.5487 C.3       1 UNL1        0.0000
     26 C          24.0804   -9.8374   10.6476 C.ar      1 UNL1        0.0000
     27 C          23.5060   -8.6540   10.2419 C.ar      1 UNL1        0.0000
     28 C          24.3084   -7.6236    9.7312 C.ar      1 UNL1        0.0000
     29 O          27.1149   -2.8704   12.9425 O.2       1 UNL1        0.0000
     30 O          21.7440  -14.3153   11.0914 O.2       1 UNL1        0.0000
     31 O          26.8638  -11.2929   11.9005 O.2       1 UNL1        0.0000
     32 F          23.3397  -10.8682   11.1491 F         1 UNL1        0.0000
     33 H          28.8858   -1.9505   11.6388 H         1 UNL1        0.0000
     34 H          30.4009   -1.8781    9.7376 H         1 UNL1        0.0000
     35 H          30.1878   -3.5854    8.0559 H         1 UNL1        0.0000
     36 H          28.5479   -5.3285    8.1973 H         1 UNL1        0.0000
     37 H          27.5135   -7.1760    8.8175 H         1 UNL1        0.0000
     38 H          26.1512   -6.2496    8.2100 H         1 UNL1        0.0000
     39 H          27.2562   -9.0609    9.9537 H         1 UNL1        0.0000
     40 H          26.3664  -13.6466   11.7419 H         1 UNL1        0.0000
     41 H          27.0888  -13.8127   10.1330 H         1 UNL1        0.0000
     42 H          25.3596  -15.5751   11.1372 H         1 UNL1        0.0000
     43 H          25.5301  -15.2579    9.4322 H         1 UNL1        0.0000
     44 H          22.6599  -12.8819    9.5476 H         1 UNL1        0.0000
     45 H          23.5074  -13.8528    8.3566 H         1 UNL1        0.0000
     46 H          24.2163  -11.3460    9.2489 H         1 UNL1        0.0000
     47 H          25.1974  -12.4755    8.2983 H         1 UNL1        0.0000
     48 H          23.1694  -16.5777   11.6146 H         1 UNL1        0.0000
     49 H          21.8746  -16.2422   14.1334 H         1 UNL1        0.0000
     50 H          21.5925  -14.7770   13.8842 H         1 UNL1        0.0000
     51 H          24.4024  -16.1513   14.0606 H         1 UNL1        0.0000
     52 H          24.5580  -14.6654   13.7972 H         1 UNL1        0.0000
     53 H          22.4840   -8.5254   10.3141 H         1 UNL1        0.0000
     54 H          23.8523   -6.7466    9.4339 H         1 UNL1        0.0000
     55 H          25.5111   -4.8145   12.8720 H         1 UNL1        0.0000
@<TRIPOS>BOND
     1    1   18 1
     2    1   21 1
     3    1   17 am
     4    2   19 1
     5    2   20 1
     6    2   22 am
     7    3    4 1
     8    3   12 2
     9    4    5 am
    10    4   55 1
    11    5   29 2
    12    5    6 1
    13    6    7 ar
    14    6   11 ar
    15    7    8 ar
    16    7   33 1
    17    8   34 1
    18    8    9 ar
    19    9   10 ar
    20    9   35 1
    21   10   11 ar
    22   10   36 1
    23   11   12 1
    24   12   13 1
    25   13   37 1
    26   13   38 1
    27   13   14 1
    28   14   15 ar
    29   14   28 ar
    30   15   39 1
    31   15   16 ar
    32   16   26 ar
    33   16   17 1
    34   17   31 2
    35   18   19 1
    36   18   40 1
    37   18   41 1
    38   19   42 1
    39   19   43 1
    40   20   21 1
    41   20   45 1
    42   20   44 1
    43   21   46 1
    44   21   47 1
    45   22   30 2
    46   22   23 1
    47   23   25 1
    48   23   24 1
    49   23   48 1
    50   24   25 1
    51   24   49 1
    52   24   50 1
    53   25   51 1
    54   25   52 1
    55   26   27 ar
    56   26   32 1
    57   27   28 ar
    58   27   53 1
    59   28   54 1
@<TRIPOS>SUBSTRUCTURE
1 UNL1 1
@<TRIPOS>COMMENT
olaparib
PLANTSproteinTorsions
57
1 210.5600
19 75.1020
33 171.1976
53 348.7062
108 12.0616
228 4.0816
405 139.7412
438 242.3206
479 26.3357
492 172.6486
546 173.2475
641 16.6884
776 217.1803
836 256.9213
905 190.2729
919 233.2926
988 185.7922
1139 141.2477
1332 1.8032
1388 175.8048
1606 19.3377
1642 88.9273
1655 167.1823
1759 27.3279
1952 248.6252
1986 96.0148
2049 15.6144
2207 148.0144
2220 240.9831
2267 114.6378
2305 45.4053
2319 233.5570
2601 220.5248
2653 202.3332
2695 86.2341
2741 122.9010
2763 61.9439
2818 280.1079
2847 31.8374
2913 267.4391
2968 250.7459
2982 267.5955
2996 190.4286
3051 164.6765
3105 168.9096
3240 143.0014
3280 140.4439
3290 271.6766
3365 126.3276
3426 235.0691
3477 255.8261
3534 246.8637
3661 47.4970
3685 112.9814
3741 220.3021
3784 39.2035
3862 206.8082
PLANTSmolcadARTstart hb
PLANTSmolcadARTstart HB
LINES
27.1149 -2.87037 12.9425 26.0247 -2.04597 13.421 0 255 0 5
PLANTSmolcadARTstart HBCH
LINES
PLANTSmolcadARTstart HB-CHO
LINES
PLANTSmolcadARTend
PLANTSmolcadARTstart HB_WATER
LINES
PLANTSmolcadARTend

PLANTSmolcadARTend

