@<TRIPOS>MOLECULE
olaparib_entry_00001_conf_17
55 59 1
SMALL
NO_CHARGES


@<TRIPOS>ATOM
      1 N          23.5721   -7.9855    2.5527 N.am      1 UNL1        0.0000
      2 N          23.8320  -10.0925    1.0555 N.am      1 UNL1        0.0000
      3 N          28.6950   -5.8928    7.0501 N.2       1 UNL1        0.0000
      4 N          29.2086   -4.7866    7.5309 N.am      1 UNL1        0.0000
      5 C          28.8751   -4.2802    8.7264 C.2       1 UNL1        0.0000
      6 C          27.9455   -4.9502    9.4949 C.ar      1 UNL1        0.0000
      7 C          27.5476   -4.4564   10.7379 C.ar      1 UNL1        0.0000
      8 C          26.6016   -5.1314   11.4789 C.ar      1 UNL1        0.0000
      9 C          26.0874   -6.2880   10.9320 C.ar      1 UNL1        0.0000
     10 C          26.4727   -6.7892    9.6999 C.ar      1 UNL1        0.0000
     11 C          27.4114   -6.1151    8.9758 C.ar      1 UNL1        0.0000
     12 C          27.7681   -6.6148    7.7521 C.2       1 UNL1        0.0000
     13 C          27.3265   -7.8587    7.1348 C.3       1 UNL1        0.0000
     14 C          25.9184   -7.7394    6.6655 C.ar      1 UNL1        0.0000
     15 C          25.7577   -7.4690    5.2948 C.ar      1 UNL1        0.0000
     16 C          24.4956   -7.3310    4.7688 C.ar      1 UNL1        0.0000
     17 C          24.2938   -7.0429    3.3308 C.2       1 UNL1        0.0000
     18 C          23.3531   -7.7403    1.1638 C.3       1 UNL1        0.0000
     19 C          23.1702   -9.0146    0.3677 C.3       1 UNL1        0.0000
     20 C          23.3330  -10.4347    2.3918 C.3       1 UNL1        0.0000
     21 C          23.0696   -9.1863    3.1940 C.3       1 UNL1        0.0000
     22 C          24.9037  -10.7944    0.4959 C.2       1 UNL1        0.0000
     23 C          25.5210  -10.5636   -0.8128 C.3       1 UNL1        0.0000
     24 C          24.5732  -10.2865   -1.9577 C.3       1 UNL1        0.0000
     25 C          25.3422  -11.5326   -1.9258 C.3       1 UNL1        0.0000
     26 C          23.3492   -7.4445    5.5191 C.ar      1 UNL1        0.0000
     27 C          23.5077   -7.7090    6.8607 C.ar      1 UNL1        0.0000
     28 C          24.7941   -7.8495    7.4008 C.ar      1 UNL1        0.0000
     29 O          29.3574   -3.2218    9.2050 O.2       1 UNL1        0.0000
     30 O          25.4166  -11.7459    1.1865 O.2       1 UNL1        0.0000
     31 O          24.7363   -6.0038    2.7892 O.2       1 UNL1        0.0000
     32 F          22.1175   -7.2981    4.9496 F         1 UNL1        0.0000
     33 H          27.9626   -3.5851   11.1034 H         1 UNL1        0.0000
     34 H          26.2920   -4.7865   12.4001 H         1 UNL1        0.0000
     35 H          25.3770   -6.8078   11.4698 H         1 UNL1        0.0000
     36 H          26.0563   -7.6602    9.3344 H         1 UNL1        0.0000
     37 H          27.3930   -8.6506    7.8513 H         1 UNL1        0.0000
     38 H          27.9530   -8.0676    6.2926 H         1 UNL1        0.0000
     39 H          26.5851   -7.3742    4.6857 H         1 UNL1        0.0000
     40 H          24.1962   -7.2097    0.7726 H         1 UNL1        0.0000
     41 H          22.4511   -7.1707    1.0745 H         1 UNL1        0.0000
     42 H          23.5959   -8.8940   -0.6062 H         1 UNL1        0.0000
     43 H          22.1272   -9.2333    0.2682 H         1 UNL1        0.0000
     44 H          24.0627  -11.0306    2.8989 H         1 UNL1        0.0000
     45 H          22.4173  -10.9790    2.2908 H         1 UNL1        0.0000
     46 H          23.5441   -9.2866    4.1479 H         1 UNL1        0.0000
     47 H          22.0095   -9.0812    3.2850 H         1 UNL1        0.0000
     48 H          26.3773  -10.1047   -0.3650 H         1 UNL1        0.0000
     49 H          24.8092   -9.5299   -2.6768 H         1 UNL1        0.0000
     50 H          23.5355  -10.0381   -2.0383 H         1 UNL1        0.0000
     51 H          26.1339  -11.6854   -2.6293 H         1 UNL1        0.0000
     52 H          25.0859  -12.5692   -1.9797 H         1 UNL1        0.0000
     53 H          22.6788   -7.8043    7.4689 H         1 UNL1        0.0000
     54 H          24.8849   -8.0473    8.4099 H         1 UNL1        0.0000
     55 H          29.8729   -4.3042    6.9870 H         1 UNL1        0.0000
@<TRIPOS>BOND
     1    1   18 1
     2    1   21 1
     3    1   17 am
     4    2   19 1
     5    2   20 1
     6    2   22 am
     7    3    4 1
     8    3   12 2
     9    4    5 am
    10    4   55 1
    11    5   29 2
    12    5    6 1
    13    6    7 ar
    14    6   11 ar
    15    7    8 ar
    16    7   33 1
    17    8   34 1
    18    8    9 ar
    19    9   10 ar
    20    9   35 1
    21   10   11 ar
    22   10   36 1
    23   11   12 1
    24   12   13 1
    25   13   37 1
    26   13   38 1
    27   13   14 1
    28   14   15 ar
    29   14   28 ar
    30   15   39 1
    31   15   16 ar
    32   16   26 ar
    33   16   17 1
    34   17   31 2
    35   18   19 1
    36   18   40 1
    37   18   41 1
    38   19   42 1
    39   19   43 1
    40   20   21 1
    41   20   45 1
    42   20   44 1
    43   21   46 1
    44   21   47 1
    45   22   30 2
    46   22   23 1
    47   23   25 1
    48   23   24 1
    49   23   48 1
    50   24   25 1
    51   24   49 1
    52   24   50 1
    53   25   51 1
    54   25   52 1
    55   26   27 ar
    56   26   32 1
    57   27   28 ar
    58   27   53 1
    59   28   54 1
@<TRIPOS>SUBSTRUCTURE
1 UNL1 1
@<TRIPOS>COMMENT
olaparib
PLANTSproteinTorsions
57
1 2.2445
19 159.4594
33 76.2889
53 181.9664
108 11.2247
228 63.5643
405 7.1113
438 25.2849
479 213.6285
492 44.8582
546 196.7601
641 302.8962
776 181.0404
836 251.1832
905 124.4487
919 201.2867
988 215.3323
1139 188.1025
1332 145.4441
1388 177.4880
1606 290.9626
1642 299.4685
1655 86.4623
1759 343.1471
1952 190.5145
1986 257.1682
2049 147.1094
2207 273.6733
2220 277.5565
2267 121.9272
2305 283.7430
2319 312.8753
2601 262.8730
2653 138.8305
2695 229.3803
2741 203.6783
2763 66.4796
2818 18.2621
2847 108.5077
2913 59.6068
2968 64.0452
2982 96.8953
2996 215.2390
3051 204.3635
3105 68.4398
3240 27.9326
3280 347.2613
3290 27.3502
3365 301.7623
3426 274.9567
3477 247.4713
3534 86.5250
3661 70.5781
3685 125.3332
3741 158.2338
3784 150.5302
3862 156.8992
PLANTSmolcadARTstart hb
PLANTSmolcadARTstart HB
LINES
PLANTSmolcadARTstart HBCH
LINES
PLANTSmolcadARTstart HB-CHO
LINES
PLANTSmolcadARTend
PLANTSmolcadARTstart HB_WATER
LINES
PLANTSmolcadARTend

PLANTSmolcadARTend

