@<TRIPOS>MOLECULE
olaparib_entry_00001_conf_15
55 59 1
SMALL
NO_CHARGES


@<TRIPOS>ATOM
      1 N          24.9098   -4.3761    2.8759 N.am      1 UNL1        0.0000
      2 N          22.5551   -3.6608    2.0438 N.am      1 UNL1        0.0000
      3 N          26.3562   -7.3607    8.8778 N.2       1 UNL1        0.0000
      4 N          25.8461   -6.8777    9.9847 N.am      1 UNL1        0.0000
      5 C          26.2917   -5.7583   10.5722 C.2       1 UNL1        0.0000
      6 C          27.3392   -5.0748    9.9896 C.ar      1 UNL1        0.0000
      7 C          27.8548   -3.9154   10.5700 C.ar      1 UNL1        0.0000
      8 C          28.9156   -3.2610    9.9817 C.ar      1 UNL1        0.0000
      9 C          29.4210   -3.8070    8.8208 C.ar      1 UNL1        0.0000
     10 C          28.9195   -4.9568    8.2340 C.ar      1 UNL1        0.0000
     11 C          27.8680   -5.5953    8.8228 C.ar      1 UNL1        0.0000
     12 C          27.3958   -6.7403    8.2394 C.2       1 UNL1        0.0000
     13 C          27.8254   -7.3430    6.9843 C.3       1 UNL1        0.0000
     14 C          26.6999   -7.3828    6.0101 C.ar      1 UNL1        0.0000
     15 C          26.7811   -6.4592    4.9528 C.ar      1 UNL1        0.0000
     16 C          25.7840   -6.4123    4.0081 C.ar      1 UNL1        0.0000
     17 C          25.8391   -5.4491    2.8854 C.2       1 UNL1        0.0000
     18 C          24.9352   -3.4245    1.8125 C.3       1 UNL1        0.0000
     19 C          23.5891   -2.7724    1.5803 C.3       1 UNL1        0.0000
     20 C          22.5495   -3.9860    3.4743 C.3       1 UNL1        0.0000
     21 C          23.9481   -4.2716    3.9575 C.3       1 UNL1        0.0000
     22 C          21.5910   -4.2019    1.1884 C.2       1 UNL1        0.0000
     23 C          21.4734   -3.9854   -0.2561 C.3       1 UNL1        0.0000
     24 C          20.7451   -5.0580   -1.0340 C.3       1 UNL1        0.0000
     25 C          22.1844   -4.8628   -1.2227 C.3       1 UNL1        0.0000
     26 C          24.6827   -7.2348    4.0325 C.ar      1 UNL1        0.0000
     27 C          24.6042   -8.1384    5.0680 C.ar      1 UNL1        0.0000
     28 C          25.6193   -8.1882    6.0341 C.ar      1 UNL1        0.0000
     29 O          25.8149   -5.2789   11.6327 O.2       1 UNL1        0.0000
     30 O          20.7056   -4.9740    1.7033 O.2       1 UNL1        0.0000
     31 O          26.6724   -5.5533    1.9561 O.2       1 UNL1        0.0000
     32 F          23.7183   -7.1489    3.0706 F         1 UNL1        0.0000
     33 H          27.4412   -3.5468   11.4407 H         1 UNL1        0.0000
     34 H          29.3134   -2.4025   10.3915 H         1 UNL1        0.0000
     35 H          30.2160   -3.3334    8.3649 H         1 UNL1        0.0000
     36 H          29.3345   -5.3255    7.3638 H         1 UNL1        0.0000
     37 H          28.1654   -8.3403    7.1706 H         1 UNL1        0.0000
     38 H          28.6169   -6.7529    6.5710 H         1 UNL1        0.0000
     39 H          27.5869   -5.8182    4.8866 H         1 UNL1        0.0000
     40 H          25.2343   -3.9230    0.9139 H         1 UNL1        0.0000
     41 H          25.6255   -2.6531    2.0855 H         1 UNL1        0.0000
     42 H          23.4578   -2.5814    0.5360 H         1 UNL1        0.0000
     43 H          23.5381   -1.8461    2.1139 H         1 UNL1        0.0000
     44 H          21.9384   -4.8488    3.6375 H         1 UNL1        0.0000
     45 H          22.1611   -3.1502    4.0180 H         1 UNL1        0.0000
     46 H          23.9412   -5.1958    4.4970 H         1 UNL1        0.0000
     47 H          24.2481   -3.4517    4.5748 H         1 UNL1        0.0000
     48 H          21.4167   -2.9251   -0.1261 H         1 UNL1        0.0000
     49 H          20.0615   -4.7849   -1.8108 H         1 UNL1        0.0000
     50 H          20.1201   -5.8875   -0.7767 H         1 UNL1        0.0000
     51 H          22.5483   -4.4545   -2.1424 H         1 UNL1        0.0000
     52 H          23.0386   -5.5030   -1.1619 H         1 UNL1        0.0000
     53 H          23.7976   -8.7798    5.1328 H         1 UNL1        0.0000
     54 H          25.5358   -8.8749    6.8003 H         1 UNL1        0.0000
     55 H          25.0981   -7.3611   10.4049 H         1 UNL1        0.0000
@<TRIPOS>BOND
     1    1   18 1
     2    1   21 1
     3    1   17 am
     4    2   19 1
     5    2   20 1
     6    2   22 am
     7    3    4 1
     8    3   12 2
     9    4    5 am
    10    4   55 1
    11    5   29 2
    12    5    6 1
    13    6    7 ar
    14    6   11 ar
    15    7    8 ar
    16    7   33 1
    17    8   34 1
    18    8    9 ar
    19    9   10 ar
    20    9   35 1
    21   10   11 ar
    22   10   36 1
    23   11   12 1
    24   12   13 1
    25   13   37 1
    26   13   38 1
    27   13   14 1
    28   14   15 ar
    29   14   28 ar
    30   15   39 1
    31   15   16 ar
    32   16   26 ar
    33   16   17 1
    34   17   31 2
    35   18   19 1
    36   18   40 1
    37   18   41 1
    38   19   42 1
    39   19   43 1
    40   20   21 1
    41   20   45 1
    42   20   44 1
    43   21   46 1
    44   21   47 1
    45   22   30 2
    46   22   23 1
    47   23   25 1
    48   23   24 1
    49   23   48 1
    50   24   25 1
    51   24   49 1
    52   24   50 1
    53   25   51 1
    54   25   52 1
    55   26   27 ar
    56   26   32 1
    57   27   28 ar
    58   27   53 1
    59   28   54 1
@<TRIPOS>SUBSTRUCTURE
1 UNL1 1
@<TRIPOS>COMMENT
olaparib
PLANTSproteinTorsions
57
1 253.1069
19 44.1776
33 129.0748
53 16.5905
108 35.9500
228 26.8384
405 6.5740
438 284.1154
479 203.4351
492 222.3777
546 168.7850
641 172.7821
776 195.4537
836 203.8150
905 351.7319
919 351.5183
988 167.5044
1139 4.8013
1332 136.3336
1388 185.8258
1606 152.5354
1642 296.3678
1655 38.9589
1759 212.6725
1952 234.9334
1986 50.6712
2049 146.0693
2207 209.3950
2220 14.4471
2267 112.3340
2305 157.6793
2319 220.0708
2601 217.6951
2653 118.4586
2695 348.8042
2741 95.0617
2763 76.5318
2818 203.4097
2847 245.5993
2913 268.9420
2968 150.7261
2982 303.4352
2996 268.6156
3051 156.4172
3105 146.0979
3240 243.9116
3280 268.7150
3290 205.8892
3365 61.5567
3426 251.2124
3477 24.0738
3534 195.1604
3661 33.8812
3685 35.5068
3741 79.7069
3784 269.1108
3862 318.5425
PLANTSmolcadARTstart hb
PLANTSmolcadARTstart HB
LINES
PLANTSmolcadARTstart HBCH
LINES
PLANTSmolcadARTstart HB-CHO
LINES
20.7056 -4.97404 1.70326 19.86 -3.79 3.736 0 255 255 5
PLANTSmolcadARTend
PLANTSmolcadARTstart HB_WATER
LINES
PLANTSmolcadARTend

PLANTSmolcadARTend

