@<TRIPOS>MOLECULE
olaparib_entry_00001_conf_19
55 59 1
SMALL
NO_CHARGES


@<TRIPOS>ATOM
      1 N          24.8344  -16.2252   11.7737 N.am      1 UNL1        0.0000
      2 N          24.6083  -18.0214    9.9107 N.am      1 UNL1        0.0000
      3 N          25.0634  -11.4141    8.8868 N.2       1 UNL1        0.0000
      4 N          25.0146  -11.2333    7.5892 N.am      1 UNL1        0.0000
      5 C          24.2928  -10.2643    7.0087 C.2       1 UNL1        0.0000
      6 C          23.5618   -9.4111    7.8094 C.ar      1 UNL1        0.0000
      7 C          22.7776   -8.3982    7.2560 C.ar      1 UNL1        0.0000
      8 C          22.0388   -7.5711    8.0743 C.ar      1 UNL1        0.0000
      9 C          22.1189   -7.8006    9.4316 C.ar      1 UNL1        0.0000
     10 C          22.8924   -8.8019    9.9944 C.ar      1 UNL1        0.0000
     11 C          23.6217   -9.6132    9.1760 C.ar      1 UNL1        0.0000
     12 C          24.3672  -10.6092    9.7475 C.2       1 UNL1        0.0000
     13 C          24.5596  -10.8750   11.1671 C.3       1 UNL1        0.0000
     14 C          23.6408  -11.9527   11.6273 C.ar      1 UNL1        0.0000
     15 C          24.2582  -13.1675   11.9746 C.ar      1 UNL1        0.0000
     16 C          23.4924  -14.2259   12.4014 C.ar      1 UNL1        0.0000
     17 C          24.1123  -15.5184   12.7707 C.2       1 UNL1        0.0000
     18 C          25.4503  -17.4725   12.0933 C.3       1 UNL1        0.0000
     19 C          25.6074  -18.3722   10.8863 C.3       1 UNL1        0.0000
     20 C          24.6701  -16.6661    9.3530 C.3       1 UNL1        0.0000
     21 C          24.9302  -15.6571   10.4419 C.3       1 UNL1        0.0000
     22 C          23.6145  -18.9144    9.4994 C.2       1 UNL1        0.0000
     23 C          23.4134  -20.2872    9.9706 C.3       1 UNL1        0.0000
     24 C          24.6444  -21.1639   10.0154 C.3       1 UNL1        0.0000
     25 C          23.5775  -21.4443    9.0519 C.3       1 UNL1        0.0000
     26 C          22.1234  -14.1693   12.5138 C.ar      1 UNL1        0.0000
     27 C          21.5201  -12.9797   12.1735 C.ar      1 UNL1        0.0000
     28 C          22.2984  -11.8982   11.7367 C.ar      1 UNL1        0.0000
     29 O          24.2345  -10.0744    5.7668 O.2       1 UNL1        0.0000
     30 O          22.7783  -18.5075    8.6159 O.2       1 UNL1        0.0000
     31 O          24.0187  -15.9990   13.9236 O.2       1 UNL1        0.0000
     32 F          21.4068  -15.2490   12.9422 F         1 UNL1        0.0000
     33 H          22.7512   -8.2676    6.2327 H         1 UNL1        0.0000
     34 H          21.4524   -6.8156    7.6888 H         1 UNL1        0.0000
     35 H          21.5726   -7.1935   10.0618 H         1 UNL1        0.0000
     36 H          22.9175   -8.9327   11.0179 H         1 UNL1        0.0000
     37 H          24.3614   -9.9822   11.7227 H         1 UNL1        0.0000
     38 H          25.5691  -11.1932   11.3252 H         1 UNL1        0.0000
     39 H          25.2833  -13.2642   11.9089 H         1 UNL1        0.0000
     40 H          24.8471  -17.9759   12.8201 H         1 UNL1        0.0000
     41 H          26.4301  -17.2621   12.4697 H         1 UNL1        0.0000
     42 H          25.4807  -19.3929   11.1801 H         1 UNL1        0.0000
     43 H          26.5841  -18.2484   10.4665 H         1 UNL1        0.0000
     44 H          23.7394  -16.4375    8.8774 H         1 UNL1        0.0000
     45 H          25.4689  -16.6199    8.6425 H         1 UNL1        0.0000
     46 H          24.2119  -14.8686   10.3559 H         1 UNL1        0.0000
     47 H          25.9305  -15.3007   10.3168 H         1 UNL1        0.0000
     48 H          22.6356  -19.9797   10.6376 H         1 UNL1        0.0000
     49 H          24.8033  -21.8215   10.8446 H         1 UNL1        0.0000
     50 H          25.6987  -20.9926    9.9503 H         1 UNL1        0.0000
     51 H          22.9648  -22.3127    9.1767 H         1 UNL1        0.0000
     52 H          23.5439  -21.5657    7.9902 H         1 UNL1        0.0000
     53 H          20.4941  -12.8841   12.2404 H         1 UNL1        0.0000
     54 H          21.8209  -11.0176   11.4874 H         1 UNL1        0.0000
     55 H          25.5347  -11.8390    7.0127 H         1 UNL1        0.0000
@<TRIPOS>BOND
     1    1   18 1
     2    1   21 1
     3    1   17 am
     4    2   19 1
     5    2   20 1
     6    2   22 am
     7    3    4 1
     8    3   12 2
     9    4    5 am
    10    4   55 1
    11    5   29 2
    12    5    6 1
    13    6    7 ar
    14    6   11 ar
    15    7    8 ar
    16    7   33 1
    17    8   34 1
    18    8    9 ar
    19    9   10 ar
    20    9   35 1
    21   10   11 ar
    22   10   36 1
    23   11   12 1
    24   12   13 1
    25   13   37 1
    26   13   38 1
    27   13   14 1
    28   14   15 ar
    29   14   28 ar
    30   15   39 1
    31   15   16 ar
    32   16   26 ar
    33   16   17 1
    34   17   31 2
    35   18   19 1
    36   18   40 1
    37   18   41 1
    38   19   42 1
    39   19   43 1
    40   20   21 1
    41   20   45 1
    42   20   44 1
    43   21   46 1
    44   21   47 1
    45   22   30 2
    46   22   23 1
    47   23   25 1
    48   23   24 1
    49   23   48 1
    50   24   25 1
    51   24   49 1
    52   24   50 1
    53   25   51 1
    54   25   52 1
    55   26   27 ar
    56   26   32 1
    57   27   28 ar
    58   27   53 1
    59   28   54 1
@<TRIPOS>SUBSTRUCTURE
1 UNL1 1
@<TRIPOS>COMMENT
olaparib
PLANTSproteinTorsions
57
1 302.9012
19 277.4606
33 106.5579
53 305.7517
108 141.4343
228 47.8592
405 81.1982
438 28.6132
479 122.8966
492 265.6404
546 232.5779
641 99.1940
776 132.0389
836 344.4620
905 25.6052
919 173.3114
988 311.5574
1139 168.5710
1332 299.1362
1388 325.2373
1606 139.9789
1642 176.4575
1655 341.0912
1759 154.8338
1952 43.9842
1986 69.4972
2049 327.2397
2207 350.6923
2220 54.5076
2267 205.0084
2305 20.2450
2319 96.7337
2601 56.5393
2653 243.3377
2695 133.1014
2741 69.4749
2763 181.3487
2818 264.1569
2847 41.5759
2913 103.3129
2968 247.5005
2982 96.0076
2996 265.8318
3051 168.8485
3105 271.4833
3240 268.9990
3280 107.8738
3290 129.8074
3365 304.0092
3426 224.6006
3477 151.2322
3534 103.3064
3661 139.6591
3685 319.7313
3741 4.3911
3784 287.9078
3862 278.5709
PLANTSmolcadARTstart hb
PLANTSmolcadARTstart HB
LINES
25.5347 -11.839 7.01267 27.461 -11.971 7.418 0 255 0 5
24.0187 -15.999 13.9236 23.871 -17.671 15.181 0 255 0 5
PLANTSmolcadARTstart HBCH
LINES
PLANTSmolcadARTstart HB-CHO
LINES
PLANTSmolcadARTend
PLANTSmolcadARTstart HB_WATER
LINES
PLANTSmolcadARTend

PLANTSmolcadARTend

