@<TRIPOS>MOLECULE
olaparib_entry_00001_conf_58
55 59 1
SMALL
NO_CHARGES


@<TRIPOS>ATOM
      1 N          40.3547  -15.9456   10.4898 N.am      1 UNL1        0.0000
      2 N          40.8770  -16.8258   12.8775 N.am      1 UNL1        0.0000
      3 N          36.5427  -18.8473    6.0533 N.2       1 UNL1        0.0000
      4 N          36.0898  -20.0288    5.7102 N.am      1 UNL1        0.0000
      5 C          35.3570  -20.2436    4.6085 C.2       1 UNL1        0.0000
      6 C          35.0601  -19.1733    3.7900 C.ar      1 UNL1        0.0000
      7 C          34.2843  -19.3376    2.6418 C.ar      1 UNL1        0.0000
      8 C          33.9823  -18.2503    1.8505 C.ar      1 UNL1        0.0000
      9 C          34.4776  -17.0278    2.2521 C.ar      1 UNL1        0.0000
     10 C          35.2483  -16.8501    3.3890 C.ar      1 UNL1        0.0000
     11 C          35.5435  -17.9329    4.1637 C.ar      1 UNL1        0.0000
     12 C          36.2916  -17.7370    5.2935 C.2       1 UNL1        0.0000
     13 C          36.9075  -16.4980    5.7502 C.3       1 UNL1        0.0000
     14 C          36.9723  -16.4626    7.2375 C.ar      1 UNL1        0.0000
     15 C          38.1140  -15.8456    7.7793 C.ar      1 UNL1        0.0000
     16 C          38.2695  -15.7730    9.1429 C.ar      1 UNL1        0.0000
     17 C          39.4616  -15.1331    9.7435 C.2       1 UNL1        0.0000
     18 C          41.5176  -15.3655   11.0800 C.3       1 UNL1        0.0000
     19 C          41.9940  -16.1248   12.2996 C.3       1 UNL1        0.0000
     20 C          40.2353  -17.8524   12.0491 C.3       1 UNL1        0.0000
     21 C          40.0615  -17.3593   10.6356 C.3       1 UNL1        0.0000
     22 C          40.4072  -16.5568   14.1663 C.2       1 UNL1        0.0000
     23 C          40.9290  -15.5592   15.1041 C.3       1 UNL1        0.0000
     24 C          40.7775  -15.8818   16.5735 C.3       1 UNL1        0.0000
     25 C          40.0155  -14.7803   15.9808 C.3       1 UNL1        0.0000
     26 C          37.3535  -16.2790   10.0344 C.ar      1 UNL1        0.0000
     27 C          36.2364  -16.8828    9.5029 C.ar      1 UNL1        0.0000
     28 C          36.0751  -16.9594    8.1121 C.ar      1 UNL1        0.0000
     29 O          34.9150  -21.3689    4.2622 O.2       1 UNL1        0.0000
     30 O          39.4126  -17.2458   14.5923 O.2       1 UNL1        0.0000
     31 O          39.7007  -13.9106    9.6128 O.2       1 UNL1        0.0000
     32 F          37.5540  -16.1826   11.3810 F         1 UNL1        0.0000
     33 H          33.9366  -20.2745    2.3843 H         1 UNL1        0.0000
     34 H          33.4114  -18.3468    0.9973 H         1 UNL1        0.0000
     35 H          34.2621  -16.2007    1.6746 H         1 UNL1        0.0000
     36 H          35.5947  -15.9126    3.6466 H         1 UNL1        0.0000
     37 H          36.3282  -15.6679    5.4032 H         1 UNL1        0.0000
     38 H          37.9030  -16.4433    5.3613 H         1 UNL1        0.0000
     39 H          38.8331  -15.4487    7.1549 H         1 UNL1        0.0000
     40 H          41.2898  -14.3605   11.3691 H         1 UNL1        0.0000
     41 H          42.3011  -15.3995   10.3513 H         1 UNL1        0.0000
     42 H          42.3975  -15.4392   13.0147 H         1 UNL1        0.0000
     43 H          42.7546  -16.8231   12.0177 H         1 UNL1        0.0000
     44 H          39.2758  -18.0878   12.4595 H         1 UNL1        0.0000
     45 H          40.8554  -18.7244   12.0359 H         1 UNL1        0.0000
     46 H          39.0481  -17.5291   10.3366 H         1 UNL1        0.0000
     47 H          40.7536  -17.8950   10.0214 H         1 UNL1        0.0000
     48 H          41.7138  -15.2874   14.4300 H         1 UNL1        0.0000
     49 H          41.5784  -15.6744   17.2524 H         1 UNL1        0.0000
     50 H          40.5302  -16.7588   17.1345 H         1 UNL1        0.0000
     51 H          40.2580  -13.7698   16.2362 H         1 UNL1        0.0000
     52 H          38.9774  -14.5275   15.9411 H         1 UNL1        0.0000
     53 H          35.5171  -17.2790   10.1290 H         1 UNL1        0.0000
     54 H          35.2284  -17.4177    7.7397 H         1 UNL1        0.0000
     55 H          36.2989  -20.7965    6.2905 H         1 UNL1        0.0000
@<TRIPOS>BOND
     1    1   18 1
     2    1   21 1
     3    1   17 am
     4    2   19 1
     5    2   20 1
     6    2   22 am
     7    3    4 1
     8    3   12 2
     9    4    5 am
    10    4   55 1
    11    5   29 2
    12    5    6 1
    13    6    7 ar
    14    6   11 ar
    15    7    8 ar
    16    7   33 1
    17    8   34 1
    18    8    9 ar
    19    9   10 ar
    20    9   35 1
    21   10   11 ar
    22   10   36 1
    23   11   12 1
    24   12   13 1
    25   13   37 1
    26   13   38 1
    27   13   14 1
    28   14   15 ar
    29   14   28 ar
    30   15   39 1
    31   15   16 ar
    32   16   26 ar
    33   16   17 1
    34   17   31 2
    35   18   19 1
    36   18   40 1
    37   18   41 1
    38   19   42 1
    39   19   43 1
    40   20   21 1
    41   20   45 1
    42   20   44 1
    43   21   46 1
    44   21   47 1
    45   22   30 2
    46   22   23 1
    47   23   25 1
    48   23   24 1
    49   23   48 1
    50   24   25 1
    51   24   49 1
    52   24   50 1
    53   25   51 1
    54   25   52 1
    55   26   27 ar
    56   26   32 1
    57   27   28 ar
    58   27   53 1
    59   28   54 1
@<TRIPOS>SUBSTRUCTURE
1 UNL1 1
@<TRIPOS>COMMENT
olaparib
PLANTSproteinTorsions
57
1 106.9385
19 79.9592
33 104.7779
53 256.0223
108 250.8211
228 25.8811
405 134.3067
438 158.5294
479 61.9004
492 136.5264
546 147.8786
641 139.6064
776 117.4708
836 79.5274
905 147.8929
919 298.8844
988 240.3244
1139 78.8912
1332 56.3653
1388 281.5452
1606 256.2314
1642 295.8380
1655 310.2261
1759 357.1619
1952 40.8583
1986 279.4347
2049 25.1587
2207 279.8642
2220 182.9433
2267 241.6474
2305 226.3399
2319 255.5021
2601 99.8541
2653 55.8240
2695 112.6733
2741 56.4875
2763 255.0215
2818 92.4574
2847 207.7460
2913 284.0133
2968 253.6349
2982 58.5862
2996 161.8614
3051 282.4473
3105 232.2253
3240 99.9718
3280 126.0482
3290 103.1929
3365 247.5078
3426 11.0657
3477 350.9853
3534 53.8355
3661 345.7652
3685 35.5405
3741 62.1037
3784 298.3585
3862 317.4218
PLANTSmolcadARTstart hb
PLANTSmolcadARTstart HB
LINES
PLANTSmolcadARTstart HBCH
LINES
PLANTSmolcadARTstart HB-CHO
LINES
PLANTSmolcadARTend
PLANTSmolcadARTstart HB_WATER
LINES
PLANTSmolcadARTend

PLANTSmolcadARTend

