@<TRIPOS>MOLECULE
olaparib_entry_00001_conf_90
55 59 1
SMALL
NO_CHARGES


@<TRIPOS>ATOM
      1 N          41.6920  -18.1970   10.8697 N.am      1 UNL1        0.0000
      2 N          42.2842  -20.6445   10.2316 N.am      1 UNL1        0.0000
      3 N          36.5544  -16.9500    7.9971 N.2       1 UNL1        0.0000
      4 N          35.8937  -17.7059    7.1540 N.am      1 UNL1        0.0000
      5 C          35.7560  -17.4102    5.8538 C.2       1 UNL1        0.0000
      6 C          36.3349  -16.2546    5.3711 C.ar      1 UNL1        0.0000
      7 C          36.2054  -15.8891    4.0307 C.ar      1 UNL1        0.0000
      8 C          36.7742  -14.7192    3.5753 C.ar      1 UNL1        0.0000
      9 C          37.4566  -13.9552    4.4982 C.ar      1 UNL1        0.0000
     10 C          37.5927  -14.3053    5.8312 C.ar      1 UNL1        0.0000
     11 C          37.0283  -15.4663    6.2710 C.ar      1 UNL1        0.0000
     12 C          37.1573  -15.7888    7.5953 C.2       1 UNL1        0.0000
     13 C          37.9148  -15.0763    8.6158 C.3       1 UNL1        0.0000
     14 C          38.0324  -15.8995    9.8511 C.ar      1 UNL1        0.0000
     15 C          39.3426  -16.2496   10.2231 C.ar      1 UNL1        0.0000
     16 C          39.5530  -17.0171   11.3436 C.ar      1 UNL1        0.0000
     17 C          40.9198  -17.4049   11.7592 C.2       1 UNL1        0.0000
     18 C          43.0161  -18.5866   11.2332 C.3       1 UNL1        0.0000
     19 C          43.4527  -19.8699   10.5598 C.3       1 UNL1        0.0000
     20 C          41.3373  -20.0502    9.2819 C.3       1 UNL1        0.0000
     21 C          41.1115  -18.5946    9.6006 C.3       1 UNL1        0.0000
     22 C          42.0416  -21.9068   10.7811 C.2       1 UNL1        0.0000
     23 C          42.8790  -22.6234   11.7467 C.3       1 UNL1        0.0000
     24 C          44.0003  -23.4563   11.1681 C.3       1 UNL1        0.0000
     25 C          42.8629  -24.1079   11.8216 C.3       1 UNL1        0.0000
     26 C          38.5349  -17.4758   12.1456 C.ar      1 UNL1        0.0000
     27 C          37.2528  -17.1326   11.7804 C.ar      1 UNL1        0.0000
     28 C          37.0346  -16.3504   10.6372 C.ar      1 UNL1        0.0000
     29 O          35.1276  -18.1229    5.0298 O.2       1 UNL1        0.0000
     30 O          40.9763  -22.5200   10.4144 O.2       1 UNL1        0.0000
     31 O          41.4073  -17.0576   12.8594 O.2       1 UNL1        0.0000
     32 F          38.7956  -18.2363   13.2485 F         1 UNL1        0.0000
     33 H          35.6836  -16.4958    3.3790 H         1 UNL1        0.0000
     34 H          36.6924  -14.4283    2.5894 H         1 UNL1        0.0000
     35 H          37.8889  -13.0748    4.1784 H         1 UNL1        0.0000
     36 H          38.1138  -13.6974    6.4826 H         1 UNL1        0.0000
     37 H          37.4149  -14.1596    8.8499 H         1 UNL1        0.0000
     38 H          38.8972  -14.8771    8.2407 H         1 UNL1        0.0000
     39 H          40.1438  -15.9313    9.6562 H         1 UNL1        0.0000
     40 H          43.0529  -18.7262   12.2937 H         1 UNL1        0.0000
     41 H          43.6807  -17.8108   10.9130 H         1 UNL1        0.0000
     42 H          44.0800  -20.4280   11.2225 H         1 UNL1        0.0000
     43 H          44.0004  -19.6434    9.6686 H         1 UNL1        0.0000
     44 H          40.4048  -20.5714    9.3406 H         1 UNL1        0.0000
     45 H          41.7422  -20.1279    8.2944 H         1 UNL1        0.0000
     46 H          40.0577  -18.4121    9.6365 H         1 UNL1        0.0000
     47 H          41.5898  -18.0207    8.8357 H         1 UNL1        0.0000
     48 H          42.7631  -21.8470   12.4736 H         1 UNL1        0.0000
     49 H          44.9618  -23.4599   11.6380 H         1 UNL1        0.0000
     50 H          44.4695  -23.5330   10.2095 H         1 UNL1        0.0000
     51 H          43.0003  -24.5936   12.7651 H         1 UNL1        0.0000
     52 H          42.1656  -24.8631   11.5274 H         1 UNL1        0.0000
     53 H          36.4519  -17.4512   12.3489 H         1 UNL1        0.0000
     54 H          36.0634  -16.1076   10.3855 H         1 UNL1        0.0000
     55 H          35.4787  -18.5322    7.4927 H         1 UNL1        0.0000
@<TRIPOS>BOND
     1    1   18 1
     2    1   21 1
     3    1   17 am
     4    2   19 1
     5    2   20 1
     6    2   22 am
     7    3    4 1
     8    3   12 2
     9    4    5 am
    10    4   55 1
    11    5   29 2
    12    5    6 1
    13    6    7 ar
    14    6   11 ar
    15    7    8 ar
    16    7   33 1
    17    8   34 1
    18    8    9 ar
    19    9   10 ar
    20    9   35 1
    21   10   11 ar
    22   10   36 1
    23   11   12 1
    24   12   13 1
    25   13   37 1
    26   13   38 1
    27   13   14 1
    28   14   15 ar
    29   14   28 ar
    30   15   39 1
    31   15   16 ar
    32   16   26 ar
    33   16   17 1
    34   17   31 2
    35   18   19 1
    36   18   40 1
    37   18   41 1
    38   19   42 1
    39   19   43 1
    40   20   21 1
    41   20   45 1
    42   20   44 1
    43   21   46 1
    44   21   47 1
    45   22   30 2
    46   22   23 1
    47   23   25 1
    48   23   24 1
    49   23   48 1
    50   24   25 1
    51   24   49 1
    52   24   50 1
    53   25   51 1
    54   25   52 1
    55   26   27 ar
    56   26   32 1
    57   27   28 ar
    58   27   53 1
    59   28   54 1
@<TRIPOS>SUBSTRUCTURE
1 UNL1 1
@<TRIPOS>COMMENT
olaparib
PLANTSproteinTorsions
57
1 101.8194
19 216.1529
33 247.3361
53 49.1564
108 267.1572
228 66.0239
405 301.0118
438 33.8416
479 26.7562
492 148.3232
546 113.3921
641 186.2643
776 241.6356
836 40.0843
905 178.4493
919 324.0431
988 19.3070
1139 186.1396
1332 36.1980
1388 183.7815
1606 183.1889
1642 8.6694
1655 20.5481
1759 146.5535
1952 27.4142
1986 26.9250
2049 199.6235
2207 23.0966
2220 118.4473
2267 7.8803
2305 92.8012
2319 139.1689
2601 105.4568
2653 28.3352
2695 226.3451
2741 214.2765
2763 262.0139
2818 55.4131
2847 122.6074
2913 137.4445
2968 221.9515
2982 127.0945
2996 256.4139
3051 217.7260
3105 209.1335
3240 239.1100
3280 223.7271
3290 219.8520
3365 257.1391
3426 209.1160
3477 171.0304
3534 241.1383
3661 242.3285
3685 58.9674
3741 302.1279
3784 57.2714
3862 174.4726
PLANTSmolcadARTstart hb
PLANTSmolcadARTstart HB
LINES
PLANTSmolcadARTstart HBCH
LINES
PLANTSmolcadARTstart HB-CHO
LINES
PLANTSmolcadARTend
PLANTSmolcadARTstart HB_WATER
LINES
PLANTSmolcadARTend

PLANTSmolcadARTend

