@<TRIPOS>MOLECULE
olaparib_entry_00001_conf_99
55 59 1
SMALL
NO_CHARGES


@<TRIPOS>ATOM
      1 N          23.0492  -23.5358   10.0846 N.am      1 UNL1        0.0000
      2 N          21.4673  -24.8736   11.6519 N.am      1 UNL1        0.0000
      3 N          28.9614  -21.1618   11.1379 N.2       1 UNL1        0.0000
      4 N          30.1105  -21.0389   10.5189 N.am      1 UNL1        0.0000
      5 C          31.2303  -20.6188   11.1243 C.2       1 UNL1        0.0000
      6 C          31.1792  -20.2974   12.4651 C.ar      1 UNL1        0.0000
      7 C          32.3106  -19.8361   13.1391 C.ar      1 UNL1        0.0000
      8 C          32.2310  -19.5006   14.4736 C.ar      1 UNL1        0.0000
      9 C          31.0019  -19.6433   15.0819 C.ar      1 UNL1        0.0000
     10 C          29.8711  -20.0994   14.4253 C.ar      1 UNL1        0.0000
     11 C          29.9612  -20.4311   13.1056 C.ar      1 UNL1        0.0000
     12 C          28.8298  -20.8636   12.4672 C.2       1 UNL1        0.0000
     13 C          27.5163  -21.1062   13.0492 C.3       1 UNL1        0.0000
     14 C          26.4475  -20.9042   12.0322 C.ar      1 UNL1        0.0000
     15 C          25.9419  -22.0771   11.4438 C.ar      1 UNL1        0.0000
     16 C          24.9597  -21.9928   10.4862 C.ar      1 UNL1        0.0000
     17 C          24.4097  -23.2089    9.8460 C.2       1 UNL1        0.0000
     18 C          22.4818  -24.6979    9.4808 C.3       1 UNL1        0.0000
     19 C          21.3203  -25.2593   10.2725 C.3       1 UNL1        0.0000
     20 C          21.4366  -23.4371   11.9478 C.3       1 UNL1        0.0000
     21 C          22.2608  -22.6724   10.9442 C.3       1 UNL1        0.0000
     22 C          21.6339  -25.8072   12.6789 C.2       1 UNL1        0.0000
     23 C          21.6990  -27.2647   12.5429 C.3       1 UNL1        0.0000
     24 C          20.4379  -28.0238   12.8887 C.3       1 UNL1        0.0000
     25 C          21.6265  -28.1495   13.7352 C.3       1 UNL1        0.0000
     26 C          24.4256  -20.8012   10.0565 C.ar      1 UNL1        0.0000
     27 C          24.9213  -19.6537   10.6331 C.ar      1 UNL1        0.0000
     28 C          25.9242  -19.7360   11.6098 C.ar      1 UNL1        0.0000
     29 O          32.3414  -20.4958   10.5481 O.2       1 UNL1        0.0000
     30 O          21.7443  -25.3605   13.8762 O.2       1 UNL1        0.0000
     31 O          25.1027  -23.9474    9.1089 O.2       1 UNL1        0.0000
     32 F          23.4512  -20.7700    9.1014 F         1 UNL1        0.0000
     33 H          33.2084  -19.7465   12.6382 H         1 UNL1        0.0000
     34 H          33.0532  -19.1580   14.9930 H         1 UNL1        0.0000
     35 H          30.9202  -19.3964   16.0802 H         1 UNL1        0.0000
     36 H          28.9732  -20.1877   14.9267 H         1 UNL1        0.0000
     37 H          27.3608  -20.4287   13.8627 H         1 UNL1        0.0000
     38 H          27.4738  -22.1177   13.3962 H         1 UNL1        0.0000
     39 H          26.3076  -22.9985   11.7300 H         1 UNL1        0.0000
     40 H          23.2402  -25.4493    9.4050 H         1 UNL1        0.0000
     41 H          22.1096  -24.4131    8.5183 H         1 UNL1        0.0000
     42 H          21.3155  -26.3263   10.1958 H         1 UNL1        0.0000
     43 H          20.3989  -24.8772    9.8847 H         1 UNL1        0.0000
     44 H          21.8326  -23.2703   12.9275 H         1 UNL1        0.0000
     45 H          20.4244  -23.0941   11.8953 H         1 UNL1        0.0000
     46 H          22.9248  -22.0207   11.4728 H         1 UNL1        0.0000
     47 H          21.5835  -22.1302   10.3192 H         1 UNL1        0.0000
     48 H          22.3781  -27.1908   11.7196 H         1 UNL1        0.0000
     49 H          20.1245  -28.8465   12.2802 H         1 UNL1        0.0000
     50 H          19.4148  -27.7570   13.0534 H         1 UNL1        0.0000
     51 H          22.1735  -29.0690   13.7483 H         1 UNL1        0.0000
     52 H          21.8172  -28.0141   14.7785 H         1 UNL1        0.0000
     53 H          24.5540  -18.7322   10.3463 H         1 UNL1        0.0000
     54 H          26.2785  -18.8603   12.0259 H         1 UNL1        0.0000
     55 H          30.1530  -21.2671    9.5619 H         1 UNL1        0.0000
@<TRIPOS>BOND
     1    1   18 1
     2    1   21 1
     3    1   17 am
     4    2   19 1
     5    2   20 1
     6    2   22 am
     7    3    4 1
     8    3   12 2
     9    4    5 am
    10    4   55 1
    11    5   29 2
    12    5    6 1
    13    6    7 ar
    14    6   11 ar
    15    7    8 ar
    16    7   33 1
    17    8   34 1
    18    8    9 ar
    19    9   10 ar
    20    9   35 1
    21   10   11 ar
    22   10   36 1
    23   11   12 1
    24   12   13 1
    25   13   37 1
    26   13   38 1
    27   13   14 1
    28   14   15 ar
    29   14   28 ar
    30   15   39 1
    31   15   16 ar
    32   16   26 ar
    33   16   17 1
    34   17   31 2
    35   18   19 1
    36   18   40 1
    37   18   41 1
    38   19   42 1
    39   19   43 1
    40   20   21 1
    41   20   45 1
    42   20   44 1
    43   21   46 1
    44   21   47 1
    45   22   30 2
    46   22   23 1
    47   23   25 1
    48   23   24 1
    49   23   48 1
    50   24   25 1
    51   24   49 1
    52   24   50 1
    53   25   51 1
    54   25   52 1
    55   26   27 ar
    56   26   32 1
    57   27   28 ar
    58   27   53 1
    59   28   54 1
@<TRIPOS>SUBSTRUCTURE
1 UNL1 1
@<TRIPOS>COMMENT
olaparib
PLANTSproteinTorsions
57
1 19.1222
19 156.4895
33 87.0894
53 111.1958
108 31.0043
228 228.1340
405 175.5869
438 50.3041
479 179.6617
492 55.1565
546 355.7556
641 176.5348
776 51.8173
836 78.0359
905 252.0880
919 270.5999
988 122.6543
1139 2.1935
1332 160.9734
1388 49.2308
1606 119.8896
1642 294.0919
1655 210.2365
1759 148.7823
1952 218.3995
1986 100.6924
2049 225.2987
2207 12.4470
2220 282.5190
2267 247.0508
2305 332.7773
2319 118.5002
2601 257.4493
2653 310.4390
2695 47.4402
2741 245.7166
2763 354.4218
2818 229.9658
2847 248.1635
2913 101.6909
2968 55.5757
2982 205.1027
2996 150.6341
3051 27.0924
3105 135.5303
3240 187.6090
3280 52.4126
3290 70.2962
3365 236.4955
3426 22.6883
3477 304.6725
3534 73.2500
3661 33.6367
3685 92.9988
3741 247.7083
3784 265.4642
3862 148.4713
PLANTSmolcadARTstart hb
PLANTSmolcadARTstart HB
LINES
PLANTSmolcadARTstart HBCH
LINES
PLANTSmolcadARTstart HB-CHO
LINES
PLANTSmolcadARTend
PLANTSmolcadARTstart HB_WATER
LINES
PLANTSmolcadARTend

PLANTSmolcadARTend

