@<TRIPOS>MOLECULE
olaparib_entry_00001_conf_83
55 59 1
SMALL
NO_CHARGES


@<TRIPOS>ATOM
      1 N          23.3251  -23.1045    9.6888 N.am      1 UNL1        0.0000
      2 N          23.3795  -25.6381   10.2600 N.am      1 UNL1        0.0000
      3 N          29.5777  -21.2590   10.5115 N.2       1 UNL1        0.0000
      4 N          30.7375  -20.8167   10.0899 N.am      1 UNL1        0.0000
      5 C          31.6411  -20.2400   10.8947 C.2       1 UNL1        0.0000
      6 C          31.3431  -20.1009   12.2347 C.ar      1 UNL1        0.0000
      7 C          32.2394  -19.4901   13.1126 C.ar      1 UNL1        0.0000
      8 C          31.9115  -19.3428   14.4432 C.ar      1 UNL1        0.0000
      9 C          30.6804  -19.8203   14.8404 C.ar      1 UNL1        0.0000
     10 C          29.7812  -20.4282   13.9802 C.ar      1 UNL1        0.0000
     11 C          30.1165  -20.5713   12.6661 C.ar      1 UNL1        0.0000
     12 C          29.2090  -21.1585   11.8258 C.2       1 UNL1        0.0000
     13 C          27.9231  -21.7480   12.1752 C.3       1 UNL1        0.0000
     14 C          26.8137  -21.0280   11.4910 C.ar      1 UNL1        0.0000
     15 C          25.9959  -21.8202   10.6656 C.ar      1 UNL1        0.0000
     16 C          24.9513  -21.2441    9.9832 C.ar      1 UNL1        0.0000
     17 C          24.0749  -22.0505    9.1041 C.2       1 UNL1        0.0000
     18 C          22.4653  -23.9009    8.8742 C.3       1 UNL1        0.0000
     19 C          22.2517  -25.2904    9.4352 C.3       1 UNL1        0.0000
     20 C          23.6163  -24.8092   11.4468 C.3       1 UNL1        0.0000
     21 C          23.4517  -23.3486   11.1136 C.3       1 UNL1        0.0000
     22 C          24.2246  -26.7113    9.9626 C.2       1 UNL1        0.0000
     23 C          24.1284  -27.6169    8.8147 C.3       1 UNL1        0.0000
     24 C          23.2560  -28.8378    8.9998 C.3       1 UNL1        0.0000
     25 C          24.7072  -28.9850    8.8676 C.3       1 UNL1        0.0000
     26 C          24.6472  -19.9055   10.0599 C.ar      1 UNL1        0.0000
     27 C          25.4484  -19.1311   10.8682 C.ar      1 UNL1        0.0000
     28 C          26.5157  -19.7155   11.5650 C.ar      1 UNL1        0.0000
     29 O          32.7587  -19.8109   10.5094 O.2       1 UNL1        0.0000
     30 O          25.1950  -26.9446   10.7682 O.2       1 UNL1        0.0000
     31 O          23.9778  -21.8310    7.8748 O.2       1 UNL1        0.0000
     32 F          23.5986  -19.3806    9.3616 F         1 UNL1        0.0000
     33 H          33.1493  -19.1486   12.7656 H         1 UNL1        0.0000
     34 H          32.5573  -18.8953   15.1110 H         1 UNL1        0.0000
     35 H          30.4148  -19.7189   15.8320 H         1 UNL1        0.0000
     36 H          28.8709  -20.7684   14.3278 H         1 UNL1        0.0000
     37 H          27.7831  -21.6856   13.2342 H         1 UNL1        0.0000
     38 H          27.9151  -22.7707   11.8602 H         1 UNL1        0.0000
     39 H          26.1799  -22.8311   10.5722 H         1 UNL1        0.0000
     40 H          22.9001  -23.9875    7.9001 H         1 UNL1        0.0000
     41 H          21.5117  -23.4157    8.8400 H         1 UNL1        0.0000
     42 H          22.1628  -25.9921    8.6327 H         1 UNL1        0.0000
     43 H          21.3547  -25.3118   10.0187 H         1 UNL1        0.0000
     44 H          24.6110  -24.9784   11.8025 H         1 UNL1        0.0000
     45 H          22.9046  -25.0728   12.2011 H         1 UNL1        0.0000
     46 H          24.3073  -22.8171   11.4751 H         1 UNL1        0.0000
     47 H          22.5486  -23.0134   11.5776 H         1 UNL1        0.0000
     48 H          24.2175  -26.8047    8.1242 H         1 UNL1        0.0000
     49 H          22.6110  -29.1596    8.2088 H         1 UNL1        0.0000
     50 H          22.5254  -29.1443    9.7190 H         1 UNL1        0.0000
     51 H          25.1175  -29.4228    7.9816 H         1 UNL1        0.0000
     52 H          25.4666  -29.4525    9.4575 H         1 UNL1        0.0000
     53 H          25.2628  -18.1196   10.9612 H         1 UNL1        0.0000
     54 H          27.1012  -19.1122   12.1639 H         1 UNL1        0.0000
     55 H          30.9558  -20.9135    9.1345 H         1 UNL1        0.0000
@<TRIPOS>BOND
     1    1   18 1
     2    1   21 1
     3    1   17 am
     4    2   19 1
     5    2   20 1
     6    2   22 am
     7    3    4 1
     8    3   12 2
     9    4    5 am
    10    4   55 1
    11    5   29 2
    12    5    6 1
    13    6    7 ar
    14    6   11 ar
    15    7    8 ar
    16    7   33 1
    17    8   34 1
    18    8    9 ar
    19    9   10 ar
    20    9   35 1
    21   10   11 ar
    22   10   36 1
    23   11   12 1
    24   12   13 1
    25   13   37 1
    26   13   38 1
    27   13   14 1
    28   14   15 ar
    29   14   28 ar
    30   15   39 1
    31   15   16 ar
    32   16   26 ar
    33   16   17 1
    34   17   31 2
    35   18   19 1
    36   18   40 1
    37   18   41 1
    38   19   42 1
    39   19   43 1
    40   20   21 1
    41   20   45 1
    42   20   44 1
    43   21   46 1
    44   21   47 1
    45   22   30 2
    46   22   23 1
    47   23   25 1
    48   23   24 1
    49   23   48 1
    50   24   25 1
    51   24   49 1
    52   24   50 1
    53   25   51 1
    54   25   52 1
    55   26   27 ar
    56   26   32 1
    57   27   28 ar
    58   27   53 1
    59   28   54 1
@<TRIPOS>SUBSTRUCTURE
1 UNL1 1
@<TRIPOS>COMMENT
olaparib
PLANTSproteinTorsions
57
1 22.8225
19 230.9895
33 34.8176
53 89.6264
108 133.0368
228 49.4195
405 185.7536
438 343.8773
479 350.2391
492 41.7935
546 222.4690
641 9.8547
776 201.1734
836 86.1269
905 50.1029
919 122.3325
988 64.1167
1139 145.0652
1332 195.7071
1388 217.5493
1606 44.9008
1642 354.5260
1655 185.0023
1759 130.8334
1952 113.9415
1986 100.8540
2049 136.0745
2207 210.8308
2220 232.2238
2267 118.3555
2305 260.5962
2319 27.3514
2601 314.4386
2653 177.4856
2695 22.8331
2741 225.7444
2763 101.4280
2818 215.0900
2847 269.8506
2913 101.8136
2968 254.1679
2982 239.0932
2996 213.6981
3051 236.6659
3105 103.1570
3240 71.5361
3280 234.6910
3290 168.8172
3365 274.7443
3426 267.6621
3477 273.0528
3534 141.1346
3661 54.9513
3685 267.8299
3741 180.6142
3784 288.2287
3862 116.0790
PLANTSmolcadARTstart hb
PLANTSmolcadARTstart HB
LINES
PLANTSmolcadARTstart HBCH
LINES
PLANTSmolcadARTstart HB-CHO
LINES
PLANTSmolcadARTend
PLANTSmolcadARTstart HB_WATER
LINES
PLANTSmolcadARTend

PLANTSmolcadARTend

