@<TRIPOS>MOLECULE
olaparib_entry_00001_conf_34
55 59 1
SMALL
NO_CHARGES


@<TRIPOS>ATOM
      1 N          27.0645   -7.2852    7.0152 N.am      1 UNL1        0.0000
      2 N          26.7948   -6.9324    9.5747 N.am      1 UNL1        0.0000
      3 N          21.3628   -7.1158    1.9708 N.2       1 UNL1        0.0000
      4 N          21.3496   -6.4321    0.8523 N.am      1 UNL1        0.0000
      5 C          21.7855   -5.1680    0.7583 C.2       1 UNL1        0.0000
      6 C          22.2735   -4.5484    1.8904 C.ar      1 UNL1        0.0000
      7 C          22.7212   -3.2273    1.8527 C.ar      1 UNL1        0.0000
      8 C          23.1847   -2.6218    3.0008 C.ar      1 UNL1        0.0000
      9 C          23.1773   -3.3784    4.1535 C.ar      1 UNL1        0.0000
     10 C          22.7357   -4.6900    4.2055 C.ar      1 UNL1        0.0000
     11 C          22.2814   -5.2806    3.0633 C.ar      1 UNL1        0.0000
     12 C          21.8321   -6.5719    3.1358 C.2       1 UNL1        0.0000
     13 C          21.8534   -7.4588    4.2916 C.3       1 UNL1        0.0000
     14 C          23.1937   -8.0898    4.4429 C.ar      1 UNL1        0.0000
     15 C          24.1902   -7.2687    5.0001 C.ar      1 UNL1        0.0000
     16 C          25.4630   -7.7583    5.1703 C.ar      1 UNL1        0.0000
     17 C          26.5343   -6.9176    5.7508 C.2       1 UNL1        0.0000
     18 C          28.1018   -6.5020    7.6048 C.3       1 UNL1        0.0000
     19 C          28.1173   -6.5958    9.1155 C.3       1 UNL1        0.0000
     20 C          26.2502   -8.2249    9.1448 C.3       1 UNL1        0.0000
     21 C          26.5346   -8.4592    7.6835 C.3       1 UNL1        0.0000
     22 C          26.0449   -6.0819   10.3923 C.2       1 UNL1        0.0000
     23 C          26.4419   -4.7623   10.8905 C.3       1 UNL1        0.0000
     24 C          26.6289   -4.6427   12.3861 C.3       1 UNL1        0.0000
     25 C          25.5197   -3.9498   11.7267 C.3       1 UNL1        0.0000
     26 C          25.8328   -9.0354    4.8209 C.ar      1 UNL1        0.0000
     27 C          24.8566   -9.8382    4.2755 C.ar      1 UNL1        0.0000
     28 C          23.5571   -9.3416    4.0996 C.ar      1 UNL1        0.0000
     29 O          21.7820   -4.4966   -0.3052 O.2       1 UNL1        0.0000
     30 O          24.8813   -6.4805   10.7560 O.2       1 UNL1        0.0000
     31 O          26.9801   -5.9045    5.1645 O.2       1 UNL1        0.0000
     32 F          27.1111   -9.4748    5.0094 F         1 UNL1        0.0000
     33 H          22.7060   -2.7030    0.9640 H         1 UNL1        0.0000
     34 H          23.5211   -1.6471    2.9978 H         1 UNL1        0.0000
     35 H          23.5189   -2.9437    5.0244 H         1 UNL1        0.0000
     36 H          22.7501   -5.2134    5.0949 H         1 UNL1        0.0000
     37 H          21.1166   -8.2239    4.1622 H         1 UNL1        0.0000
     38 H          21.6420   -6.8859    5.1705 H         1 UNL1        0.0000
     39 H          23.9664   -6.3012    5.2802 H         1 UNL1        0.0000
     40 H          27.9586   -5.4786    7.3263 H         1 UNL1        0.0000
     41 H          29.0366   -6.8821    7.2475 H         1 UNL1        0.0000
     42 H          28.4141   -5.6558    9.5308 H         1 UNL1        0.0000
     43 H          28.8118   -7.3491    9.4248 H         1 UNL1        0.0000
     44 H          25.1921   -8.2317    9.3022 H         1 UNL1        0.0000
     45 H          26.7134   -9.0029    9.7150 H         1 UNL1        0.0000
     46 H          25.6237   -8.7440    7.1994 H         1 UNL1        0.0000
     47 H          27.2767   -9.2263    7.6199 H         1 UNL1        0.0000
     48 H          27.0046   -4.5600   10.0035 H         1 UNL1        0.0000
     49 H          27.4517   -4.0828   12.7795 H         1 UNL1        0.0000
     50 H          26.7148   -5.3365   13.1962 H         1 UNL1        0.0000
     51 H          25.5325   -2.8827   11.6482 H         1 UNL1        0.0000
     52 H          24.4602   -3.9327   11.8694 H         1 UNL1        0.0000
     53 H          25.0818  -10.8065    3.9962 H         1 UNL1        0.0000
     54 H          22.8441   -9.9643    3.6880 H         1 UNL1        0.0000
     55 H          21.0026   -6.8693    0.0409 H         1 UNL1        0.0000
@<TRIPOS>BOND
     1    1   18 1
     2    1   21 1
     3    1   17 am
     4    2   19 1
     5    2   20 1
     6    2   22 am
     7    3    4 1
     8    3   12 2
     9    4    5 am
    10    4   55 1
    11    5   29 2
    12    5    6 1
    13    6    7 ar
    14    6   11 ar
    15    7    8 ar
    16    7   33 1
    17    8   34 1
    18    8    9 ar
    19    9   10 ar
    20    9   35 1
    21   10   11 ar
    22   10   36 1
    23   11   12 1
    24   12   13 1
    25   13   37 1
    26   13   38 1
    27   13   14 1
    28   14   15 ar
    29   14   28 ar
    30   15   39 1
    31   15   16 ar
    32   16   26 ar
    33   16   17 1
    34   17   31 2
    35   18   19 1
    36   18   40 1
    37   18   41 1
    38   19   42 1
    39   19   43 1
    40   20   21 1
    41   20   45 1
    42   20   44 1
    43   21   46 1
    44   21   47 1
    45   22   30 2
    46   22   23 1
    47   23   25 1
    48   23   24 1
    49   23   48 1
    50   24   25 1
    51   24   49 1
    52   24   50 1
    53   25   51 1
    54   25   52 1
    55   26   27 ar
    56   26   32 1
    57   27   28 ar
    58   27   53 1
    59   28   54 1
@<TRIPOS>SUBSTRUCTURE
1 UNL1 1
@<TRIPOS>COMMENT
olaparib
PLANTSproteinTorsions
57
1 63.8214
19 237.9769
33 124.1897
53 89.2195
108 33.1922
228 77.2174
405 140.8053
438 85.0316
479 212.1541
492 186.4174
546 179.9179
641 164.0838
776 65.9082
836 264.6649
905 60.8191
919 344.8533
988 50.4342
1139 126.7075
1332 123.7275
1388 87.0722
1606 221.7938
1642 34.6970
1655 20.5950
1759 321.5169
1952 187.1215
1986 31.2954
2049 194.7711
2207 142.0100
2220 15.1543
2267 42.9578
2305 223.1516
2319 233.3970
2601 344.9710
2653 62.9287
2695 76.0665
2741 81.8418
2763 80.3577
2818 217.7050
2847 104.3748
2913 99.9108
2968 130.1130
2982 94.3590
2996 119.7252
3051 130.3714
3105 147.7580
3240 155.3885
3280 110.2448
3290 298.5383
3365 225.2578
3426 155.1045
3477 334.1364
3534 112.5337
3661 126.9951
3685 183.1395
3741 163.6894
3784 254.1181
3862 3.3612
PLANTSmolcadARTstart hb
PLANTSmolcadARTstart HB
LINES
PLANTSmolcadARTstart HBCH
LINES
PLANTSmolcadARTstart HB-CHO
LINES
PLANTSmolcadARTend
PLANTSmolcadARTstart HB_WATER
LINES
PLANTSmolcadARTend

PLANTSmolcadARTend

