@<TRIPOS>MOLECULE
olaparib_entry_00001_conf_89
55 59 1
SMALL
NO_CHARGES


@<TRIPOS>ATOM
      1 N          10.4495  -16.1678   34.1375 N.am      1 UNL1        0.0000
      2 N          10.9926  -13.8163   35.0987 N.am      1 UNL1        0.0000
      3 N           7.9784  -21.9707   32.6639 N.2       1 UNL1        0.0000
      4 N           8.1882  -22.4647   31.4679 N.am      1 UNL1        0.0000
      5 C           7.3144  -22.3431   30.4586 C.2       1 UNL1        0.0000
      6 C           6.1330  -21.6662   30.6817 C.ar      1 UNL1        0.0000
      7 C           5.1800  -21.5278   29.6719 C.ar      1 UNL1        0.0000
      8 C           3.9976  -20.8660   29.9237 C.ar      1 UNL1        0.0000
      9 C           3.8196  -20.3660   31.1964 C.ar      1 UNL1        0.0000
     10 C           4.7564  -20.4963   32.2080 C.ar      1 UNL1        0.0000
     11 C           5.9242  -21.1507   31.9476 C.ar      1 UNL1        0.0000
     12 C           6.8319  -21.2859   32.9636 C.2       1 UNL1        0.0000
     13 C           6.7521  -20.7320   34.3089 C.3       1 UNL1        0.0000
     14 C           6.8834  -19.2492   34.2734 C.ar      1 UNL1        0.0000
     15 C           8.1101  -18.7613   33.7887 C.ar      1 UNL1        0.0000
     16 C           8.3304  -17.4061   33.7273 C.ar      1 UNL1        0.0000
     17 C           9.6122  -16.8619   33.2252 C.2       1 UNL1        0.0000
     18 C          11.6954  -15.6330   33.6917 C.3       1 UNL1        0.0000
     19 C          12.1480  -14.4448   34.5129 C.3       1 UNL1        0.0000
     20 C          10.2048  -14.6189   36.0407 C.3       1 UNL1        0.0000
     21 C          10.0147  -16.0180   35.5138 C.3       1 UNL1        0.0000
     22 C          10.6186  -12.5034   34.7979 C.2       1 UNL1        0.0000
     23 C          11.2897  -11.5858   33.8734 C.3       1 UNL1        0.0000
     24 C          12.6595  -11.1013   34.2917 C.3       1 UNL1        0.0000
     25 C          11.5327  -10.1668   34.2439 C.3       1 UNL1        0.0000
     26 C           7.4010  -16.4724   34.1200 C.ar      1 UNL1        0.0000
     27 C           6.2007  -16.9510   34.5943 C.ar      1 UNL1        0.0000
     28 C           5.9730  -18.3332   34.6593 C.ar      1 UNL1        0.0000
     29 O           7.4983  -22.8086   29.3048 O.2       1 UNL1        0.0000
     30 O           9.5786  -12.0327   35.3828 O.2       1 UNL1        0.0000
     31 O           9.9736  -16.9954   32.0335 O.2       1 UNL1        0.0000
     32 F           7.6681  -15.1363   34.0402 F         1 UNL1        0.0000
     33 H           5.3608  -21.9208   28.7350 H         1 UNL1        0.0000
     34 H           3.2786  -20.7506   29.1937 H         1 UNL1        0.0000
     35 H           2.9408  -19.8682   31.4063 H         1 UNL1        0.0000
     36 H           4.5744  -20.1039   33.1451 H         1 UNL1        0.0000
     37 H           7.5404  -21.1411   34.9058 H         1 UNL1        0.0000
     38 H           5.8006  -20.9828   34.7297 H         1 UNL1        0.0000
     39 H           8.8429  -19.4190   33.4803 H         1 UNL1        0.0000
     40 H          11.5907  -15.3252   32.6720 H         1 UNL1        0.0000
     41 H          12.4337  -16.4007   33.7994 H         1 UNL1        0.0000
     42 H          12.6573  -13.7459   33.8832 H         1 UNL1        0.0000
     43 H          12.8148  -14.7701   35.2843 H         1 UNL1        0.0000
     44 H           9.2472  -14.1621   36.1782 H         1 UNL1        0.0000
     45 H          10.7269  -14.6699   36.9734 H         1 UNL1        0.0000
     46 H           8.9755  -16.2665   35.5712 H         1 UNL1        0.0000
     47 H          10.6144  -16.6704   36.1121 H         1 UNL1        0.0000
     48 H          10.8425  -12.0603   33.0254 H         1 UNL1        0.0000
     49 H          13.4455  -11.0295   33.5690 H         1 UNL1        0.0000
     50 H          13.3712  -11.3931   35.0356 H         1 UNL1        0.0000
     51 H          11.5041   -9.4085   33.4895 H         1 UNL1        0.0000
     52 H          11.0922   -9.4925   34.9471 H         1 UNL1        0.0000
     53 H           5.4680  -16.2918   34.9021 H         1 UNL1        0.0000
     54 H           5.0644  -18.6655   35.0193 H         1 UNL1        0.0000
     55 H           9.0299  -22.9486   31.3026 H         1 UNL1        0.0000
@<TRIPOS>BOND
     1    1   18 1
     2    1   21 1
     3    1   17 am
     4    2   19 1
     5    2   20 1
     6    2   22 am
     7    3    4 1
     8    3   12 2
     9    4    5 am
    10    4   55 1
    11    5   29 2
    12    5    6 1
    13    6    7 ar
    14    6   11 ar
    15    7    8 ar
    16    7   33 1
    17    8   34 1
    18    8    9 ar
    19    9   10 ar
    20    9   35 1
    21   10   11 ar
    22   10   36 1
    23   11   12 1
    24   12   13 1
    25   13   37 1
    26   13   38 1
    27   13   14 1
    28   14   15 ar
    29   14   28 ar
    30   15   39 1
    31   15   16 ar
    32   16   26 ar
    33   16   17 1
    34   17   31 2
    35   18   19 1
    36   18   40 1
    37   18   41 1
    38   19   42 1
    39   19   43 1
    40   20   21 1
    41   20   45 1
    42   20   44 1
    43   21   46 1
    44   21   47 1
    45   22   30 2
    46   22   23 1
    47   23   25 1
    48   23   24 1
    49   23   48 1
    50   24   25 1
    51   24   49 1
    52   24   50 1
    53   25   51 1
    54   25   52 1
    55   26   27 ar
    56   26   32 1
    57   27   28 ar
    58   27   53 1
    59   28   54 1
@<TRIPOS>SUBSTRUCTURE
1 UNL1 1
@<TRIPOS>COMMENT
olaparib
PLANTSproteinTorsions
57
1 335.8942
19 358.1774
33 91.6122
53 292.8603
108 193.5004
228 115.9384
405 231.2134
438 14.3808
479 3.4748
492 152.8998
546 35.7880
641 248.4886
776 76.7021
836 99.4520
905 94.6584
919 95.7899
988 267.3739
1139 288.8766
1332 47.5714
1388 307.9532
1606 77.0856
1642 172.8965
1655 186.8557
1759 6.0381
1952 217.9448
1986 77.5052
2049 111.3228
2207 214.8681
2220 11.1854
2267 132.1323
2305 31.0075
2319 215.5599
2601 126.6963
2653 123.4673
2695 58.7940
2741 98.9390
2763 42.0088
2818 320.8729
2847 192.9957
2913 228.2251
2968 73.0274
2982 231.2535
2996 42.1905
3051 148.2658
3105 191.0737
3240 54.2437
3280 229.6109
3290 49.9798
3365 225.0254
3426 49.5391
3477 92.8845
3534 347.8684
3661 97.9841
3685 37.7150
3741 134.6865
3784 52.0995
3862 245.1663
PLANTSmolcadARTstart hb
PLANTSmolcadARTstart HB
LINES
9.0299 -22.9486 31.3026 10.895 -22.486 30.473 0 255 0 5
PLANTSmolcadARTstart HBCH
LINES
PLANTSmolcadARTstart HB-CHO
LINES
PLANTSmolcadARTend
PLANTSmolcadARTstart HB_WATER
LINES
PLANTSmolcadARTend

PLANTSmolcadARTend

