@<TRIPOS>MOLECULE
olaparib_entry_00001_conf_51
55 59 1
SMALL
NO_CHARGES


@<TRIPOS>ATOM
      1 N          24.0890   -9.1012    4.7961 N.am      1 UNL1        0.0000
      2 N          21.5959   -8.7684    4.1464 N.am      1 UNL1        0.0000
      3 N          25.9734  -11.5378    9.8398 N.2       1 UNL1        0.0000
      4 N          26.2962  -12.8033    9.7262 N.am      1 UNL1        0.0000
      5 C          25.6269  -13.7905   10.3380 C.2       1 UNL1        0.0000
      6 C          24.5435  -13.4669   11.1288 C.ar      1 UNL1        0.0000
      7 C          23.8241  -14.4534   11.8042 C.ar      1 UNL1        0.0000
      8 C          22.7584  -14.1049   12.6057 C.ar      1 UNL1        0.0000
      9 C          22.4576  -12.7624   12.6972 C.ar      1 UNL1        0.0000
     10 C          23.1630  -11.7728   12.0330 C.ar      1 UNL1        0.0000
     11 C          24.2142  -12.1286   11.2404 C.ar      1 UNL1        0.0000
     12 C          24.9117  -11.1366   10.6049 C.2       1 UNL1        0.0000
     13 C          24.6197   -9.7092   10.5937 C.3       1 UNL1        0.0000
     14 C          25.1753   -9.0705    9.3687 C.ar      1 UNL1        0.0000
     15 C          24.8276   -9.6869    8.1535 C.ar      1 UNL1        0.0000
     16 C          25.3006   -9.1766    6.9683 C.ar      1 UNL1        0.0000
     17 C          24.9552   -9.8049    5.6733 C.2       1 UNL1        0.0000
     18 C          23.7369   -9.6726    3.5365 C.3       1 UNL1        0.0000
     19 C          22.3999   -9.1806    3.0254 C.3       1 UNL1        0.0000
     20 C          22.1005   -7.6510    4.9518 C.3       1 UNL1        0.0000
     21 C          23.5781   -7.8059    5.2048 C.3       1 UNL1        0.0000
     22 C          20.3870   -9.3902    4.4724 C.2       1 UNL1        0.0000
     23 C          19.7618  -10.5194    3.7787 C.3       1 UNL1        0.0000
     24 C          18.5841  -10.1872    2.8906 C.3       1 UNL1        0.0000
     25 C          18.3832  -10.9593    4.1189 C.3       1 UNL1        0.0000
     26 C          26.1139   -8.0706    6.8946 C.ar      1 UNL1        0.0000
     27 C          26.4537   -7.4681    8.0847 C.ar      1 UNL1        0.0000
     28 C          25.9737   -7.9868    9.2958 C.ar      1 UNL1        0.0000
     29 O          25.9204  -15.0095   10.2402 O.2       1 UNL1        0.0000
     30 O          19.7406   -8.9395    5.4844 O.2       1 UNL1        0.0000
     31 O          25.4006  -10.9255    5.3346 O.2       1 UNL1        0.0000
     32 F          26.5585   -7.6025    5.6921 F         1 UNL1        0.0000
     33 H          24.0896  -15.4455   11.7031 H         1 UNL1        0.0000
     34 H          22.2114  -14.8159   13.1142 H         1 UNL1        0.0000
     35 H          21.6643  -12.4798   13.2930 H         1 UNL1        0.0000
     36 H          22.8975  -10.7807   12.1355 H         1 UNL1        0.0000
     37 H          25.0568   -9.2534   11.4576 H         1 UNL1        0.0000
     38 H          23.5581   -9.5738   10.6007 H         1 UNL1        0.0000
     39 H          24.2193  -10.5203    8.1517 H         1 UNL1        0.0000
     40 H          23.6927  -10.7366    3.6435 H         1 UNL1        0.0000
     41 H          24.4829   -9.3771    2.8277 H         1 UNL1        0.0000
     42 H          21.9048   -9.9686    2.4979 H         1 UNL1        0.0000
     43 H          22.5474   -8.3546    2.3610 H         1 UNL1        0.0000
     44 H          21.5840   -7.6299    5.8885 H         1 UNL1        0.0000
     45 H          21.9361   -6.7378    4.4189 H         1 UNL1        0.0000
     46 H          23.7601   -7.6835    6.2522 H         1 UNL1        0.0000
     47 H          24.0827   -7.0644    4.6229 H         1 UNL1        0.0000
     48 H          20.6985  -11.0290    3.6939 H         1 UNL1        0.0000
     49 H          18.4821  -10.6621    1.9371 H         1 UNL1        0.0000
     50 H          18.1717   -9.2868    2.4853 H         1 UNL1        0.0000
     51 H          18.1262  -11.9962    4.0576 H         1 UNL1        0.0000
     52 H          17.7536  -10.8476    4.9759 H         1 UNL1        0.0000
     53 H          27.0621   -6.6338    8.0851 H         1 UNL1        0.0000
     54 H          26.2438   -7.5162   10.1739 H         1 UNL1        0.0000
     55 H          27.0684  -13.0403    9.1628 H         1 UNL1        0.0000
@<TRIPOS>BOND
     1    1   18 1
     2    1   21 1
     3    1   17 am
     4    2   19 1
     5    2   20 1
     6    2   22 am
     7    3    4 1
     8    3   12 2
     9    4    5 am
    10    4   55 1
    11    5   29 2
    12    5    6 1
    13    6    7 ar
    14    6   11 ar
    15    7    8 ar
    16    7   33 1
    17    8   34 1
    18    8    9 ar
    19    9   10 ar
    20    9   35 1
    21   10   11 ar
    22   10   36 1
    23   11   12 1
    24   12   13 1
    25   13   37 1
    26   13   38 1
    27   13   14 1
    28   14   15 ar
    29   14   28 ar
    30   15   39 1
    31   15   16 ar
    32   16   26 ar
    33   16   17 1
    34   17   31 2
    35   18   19 1
    36   18   40 1
    37   18   41 1
    38   19   42 1
    39   19   43 1
    40   20   21 1
    41   20   45 1
    42   20   44 1
    43   21   46 1
    44   21   47 1
    45   22   30 2
    46   22   23 1
    47   23   25 1
    48   23   24 1
    49   23   48 1
    50   24   25 1
    51   24   49 1
    52   24   50 1
    53   25   51 1
    54   25   52 1
    55   26   27 ar
    56   26   32 1
    57   27   28 ar
    58   27   53 1
    59   28   54 1
@<TRIPOS>SUBSTRUCTURE
1 UNL1 1
@<TRIPOS>COMMENT
olaparib
PLANTSproteinTorsions
57
1 188.0202
19 210.3170
33 152.1217
53 88.7335
108 8.8208
228 122.3320
405 81.4421
438 297.2860
479 122.3259
492 39.2512
546 185.1835
641 50.3045
776 60.2138
836 288.8837
905 226.8862
919 308.0329
988 215.2832
1139 243.4587
1332 34.3588
1388 307.2544
1606 249.7691
1642 42.3912
1655 93.7453
1759 160.4340
1952 280.1865
1986 213.9339
2049 168.1720
2207 354.4307
2220 28.8818
2267 177.3370
2305 260.5735
2319 150.1804
2601 267.6609
2653 207.4128
2695 197.3879
2741 336.0431
2763 51.0910
2818 122.0724
2847 182.4094
2913 255.1129
2968 158.7816
2982 225.3752
2996 77.5709
3051 334.4232
3105 158.6068
3240 200.6202
3280 160.3438
3290 353.5959
3365 278.6030
3426 97.8284
3477 60.7491
3534 283.4369
3661 95.5485
3685 65.3861
3741 294.4557
3784 194.6913
3862 100.2130
PLANTSmolcadARTstart hb
PLANTSmolcadARTstart HB
LINES
27.0684 -13.0403 9.1628 27.461 -11.971 7.418 0 255 0 5
19.7406 -8.93949 5.48438 17.644 -8.823 5.515 0 255 0 5
25.4006 -10.9255 5.3346 26.6274 -11.7634 6.90441 0 255 0 5
PLANTSmolcadARTstart HBCH
LINES
PLANTSmolcadARTstart HB-CHO
LINES
PLANTSmolcadARTend
PLANTSmolcadARTstart HB_WATER
LINES
PLANTSmolcadARTend

PLANTSmolcadARTend

