@<TRIPOS>MOLECULE
olaparib_entry_00001_conf_86
55 59 1
SMALL
NO_CHARGES


@<TRIPOS>ATOM
      1 N          24.4512  -20.3323   10.5481 N.am      1 UNL1        0.0000
      2 N          24.2849  -17.7399   10.5368 N.am      1 UNL1        0.0000
      3 N          31.3261  -22.7141   10.6840 N.2       1 UNL1        0.0000
      4 N          32.4153  -23.4175   10.4903 N.am      1 UNL1        0.0000
      5 C          33.4019  -23.0333    9.6681 C.2       1 UNL1        0.0000
      6 C          33.2721  -21.8399    8.9881 C.ar      1 UNL1        0.0000
      7 C          34.2600  -21.4026    8.1049 C.ar      1 UNL1        0.0000
      8 C          34.0991  -20.2174    7.4201 C.ar      1 UNL1        0.0000
      9 C          32.9369  -19.5132    7.6534 C.ar      1 UNL1        0.0000
     10 C          31.9483  -19.9352    8.5266 C.ar      1 UNL1        0.0000
     11 C          32.1184  -21.1082    9.2011 C.ar      1 UNL1        0.0000
     12 C          31.1236  -21.5196   10.0471 C.2       1 UNL1        0.0000
     13 C          29.9031  -20.8065   10.4002 C.3       1 UNL1        0.0000
     14 C          28.7136  -21.6846   10.2233 C.ar      1 UNL1        0.0000
     15 C          27.5089  -21.1858   10.7501 C.ar      1 UNL1        0.0000
     16 C          26.3575  -21.9288   10.6451 C.ar      1 UNL1        0.0000
     17 C          25.0747  -21.4327   11.1926 C.2       1 UNL1        0.0000
     18 C          23.2111  -19.8288   11.0439 C.3       1 UNL1        0.0000
     19 C          23.0008  -18.3667   10.7139 C.3       1 UNL1        0.0000
     20 C          25.1207  -18.2348    9.4375 C.3       1 UNL1        0.0000
     21 C          25.0953  -19.7409    9.3900 C.3       1 UNL1        0.0000
     22 C          24.7361  -16.7063   11.3628 C.2       1 UNL1        0.0000
     23 C          24.0289  -16.1165   12.5026 C.3       1 UNL1        0.0000
     24 C          23.0306  -15.0285   12.1775 C.3       1 UNL1        0.0000
     25 C          24.2619  -14.7035   12.9010 C.3       1 UNL1        0.0000
     26 C          26.3085  -23.1624   10.0403 C.ar      1 UNL1        0.0000
     27 C          27.4883  -23.6497    9.5251 C.ar      1 UNL1        0.0000
     28 C          28.6651  -22.8946    9.6313 C.ar      1 UNL1        0.0000
     29 O          34.4541  -23.6933    9.4704 O.2       1 UNL1        0.0000
     30 O          25.8912  -16.2074   11.1135 O.2       1 UNL1        0.0000
     31 O          24.5315  -21.9505   12.1953 O.2       1 UNL1        0.0000
     32 F          25.1394  -23.8622    9.9618 F         1 UNL1        0.0000
     33 H          35.1125  -21.9669    7.9645 H         1 UNL1        0.0000
     34 H          34.8152  -19.8734    6.7627 H         1 UNL1        0.0000
     35 H          32.7960  -18.6239    7.1500 H         1 UNL1        0.0000
     36 H          31.0953  -19.3709    8.6655 H         1 UNL1        0.0000
     37 H          29.8028  -19.9468    9.7710 H         1 UNL1        0.0000
     38 H          29.9614  -20.5094   11.4267 H         1 UNL1        0.0000
     39 H          27.4895  -20.2646   11.2145 H         1 UNL1        0.0000
     40 H          23.1947  -19.9461   12.1076 H         1 UNL1        0.0000
     41 H          22.4257  -20.3831   10.5727 H         1 UNL1        0.0000
     42 H          22.4749  -17.8898   11.5140 H         1 UNL1        0.0000
     43 H          22.4258  -18.2769    9.8156 H         1 UNL1        0.0000
     44 H          26.1278  -17.9049    9.5841 H         1 UNL1        0.0000
     45 H          24.7384  -17.8544    8.5133 H         1 UNL1        0.0000
     46 H          26.1028  -20.0983    9.3416 H         1 UNL1        0.0000
     47 H          24.5294  -20.0253    8.5286 H         1 UNL1        0.0000
     48 H          24.0434  -17.0446   13.0343 H         1 UNL1        0.0000
     49 H          22.0883  -14.9980   12.6838 H         1 UNL1        0.0000
     50 H          22.5608  -14.6745   11.2836 H         1 UNL1        0.0000
     51 H          24.2133  -14.4280   13.9338 H         1 UNL1        0.0000
     52 H          25.0564  -14.0050   12.7457 H         1 UNL1        0.0000
     53 H          27.5062  -24.5715    9.0601 H         1 UNL1        0.0000
     54 H          29.5362  -23.2834    9.2369 H         1 UNL1        0.0000
     55 H          32.5136  -24.2700   10.9732 H         1 UNL1        0.0000
@<TRIPOS>BOND
     1    1   18 1
     2    1   21 1
     3    1   17 am
     4    2   19 1
     5    2   20 1
     6    2   22 am
     7    3    4 1
     8    3   12 2
     9    4    5 am
    10    4   55 1
    11    5   29 2
    12    5    6 1
    13    6    7 ar
    14    6   11 ar
    15    7    8 ar
    16    7   33 1
    17    8   34 1
    18    8    9 ar
    19    9   10 ar
    20    9   35 1
    21   10   11 ar
    22   10   36 1
    23   11   12 1
    24   12   13 1
    25   13   37 1
    26   13   38 1
    27   13   14 1
    28   14   15 ar
    29   14   28 ar
    30   15   39 1
    31   15   16 ar
    32   16   26 ar
    33   16   17 1
    34   17   31 2
    35   18   19 1
    36   18   40 1
    37   18   41 1
    38   19   42 1
    39   19   43 1
    40   20   21 1
    41   20   45 1
    42   20   44 1
    43   21   46 1
    44   21   47 1
    45   22   30 2
    46   22   23 1
    47   23   25 1
    48   23   24 1
    49   23   48 1
    50   24   25 1
    51   24   49 1
    52   24   50 1
    53   25   51 1
    54   25   52 1
    55   26   27 ar
    56   26   32 1
    57   27   28 ar
    58   27   53 1
    59   28   54 1
@<TRIPOS>SUBSTRUCTURE
1 UNL1 1
@<TRIPOS>COMMENT
olaparib
PLANTSproteinTorsions
57
1 29.6115
19 194.2859
33 342.8304
53 53.0788
108 82.1013
228 49.3590
405 204.7875
438 16.8174
479 237.9864
492 35.8758
546 319.2032
641 267.7670
776 207.9470
836 95.0549
905 233.5214
919 81.1012
988 72.8713
1139 170.7506
1332 190.6616
1388 82.5732
1606 272.7768
1642 44.8261
1655 73.7135
1759 132.8528
1952 103.9308
1986 296.9300
2049 92.8212
2207 250.2804
2220 232.8727
2267 46.7815
2305 135.9592
2319 221.1468
2601 327.8396
2653 191.6190
2695 260.6753
2741 24.5402
2763 61.3735
2818 80.9903
2847 276.9671
2913 105.2018
2968 266.5862
2982 208.3344
2996 217.0440
3051 189.2302
3105 230.6473
3240 200.9489
3280 84.2375
3290 182.2525
3365 168.3174
3426 30.0884
3477 30.1050
3534 91.0198
3661 352.8426
3685 239.7764
3741 195.8139
3784 169.4036
3862 282.4956
PLANTSmolcadARTstart hb
PLANTSmolcadARTstart HB
LINES
24.5315 -21.9505 12.1953 23.761 -21.006 14.021 0 255 0 5
PLANTSmolcadARTstart HBCH
LINES
PLANTSmolcadARTstart HB-CHO
LINES
PLANTSmolcadARTend
PLANTSmolcadARTstart HB_WATER
LINES
PLANTSmolcadARTend

PLANTSmolcadARTend

