@<TRIPOS>MOLECULE
olaparib_entry_00001_conf_37
55 59 1
SMALL
NO_CHARGES


@<TRIPOS>ATOM
      1 N          26.1152   -8.2844    7.6874 N.am      1 UNL1        0.0000
      2 N          27.1452   -6.9884    9.6894 N.am      1 UNL1        0.0000
      3 N          26.2007  -11.6945   10.4127 N.2       1 UNL1        0.0000
      4 N          26.7530  -11.2839   11.5284 N.am      1 UNL1        0.0000
      5 C          26.3610  -11.7022   12.7401 C.2       1 UNL1        0.0000
      6 C          25.3252  -12.6097   12.8258 C.ar      1 UNL1        0.0000
      7 C          24.8645  -13.0627   14.0626 C.ar      1 UNL1        0.0000
      8 C          23.8142  -13.9530   14.1248 C.ar      1 UNL1        0.0000
      9 C          23.2631  -14.3545   12.9264 C.ar      1 UNL1        0.0000
     10 C          23.7098  -13.9130   11.6922 C.ar      1 UNL1        0.0000
     11 C          24.7514  -13.0341   11.6416 C.ar      1 UNL1        0.0000
     12 C          25.1692  -12.5940   10.4143 C.2       1 UNL1        0.0000
     13 C          24.6895  -13.0180    9.1054 C.3       1 UNL1        0.0000
     14 C          23.9408  -11.9163    8.4399 C.ar      1 UNL1        0.0000
     15 C          24.7144  -10.8099    8.0461 C.ar      1 UNL1        0.0000
     16 C          24.1115   -9.7379    7.4329 C.ar      1 UNL1        0.0000
     17 C          24.8980   -8.5573    7.0099 C.2       1 UNL1        0.0000
     18 C          26.9035   -7.1578    7.3048 C.3       1 UNL1        0.0000
     19 C          27.7599   -6.6328    8.4370 C.3       1 UNL1        0.0000
     20 C          27.0100   -8.4197    9.9814 C.3       1 UNL1        0.0000
     21 C          26.5325   -9.1657    8.7621 C.3       1 UNL1        0.0000
     22 C          26.6893   -6.0313   10.6006 C.2       1 UNL1        0.0000
     23 C          26.7397   -4.5748   10.4479 C.3       1 UNL1        0.0000
     24 C          27.9809   -3.8915   10.9757 C.3       1 UNL1        0.0000
     25 C          26.6892   -3.6780   11.6323 C.3       1 UNL1        0.0000
     26 C          22.7629   -9.6783    7.1725 C.ar      1 UNL1        0.0000
     27 C          22.0066  -10.7619    7.5584 C.ar      1 UNL1        0.0000
     28 C          22.6184  -11.8569    8.1853 C.ar      1 UNL1        0.0000
     29 O          26.8790  -11.3211   13.8210 O.2       1 UNL1        0.0000
     30 O          26.1667   -6.4525   11.6936 O.2       1 UNL1        0.0000
     31 O          24.5241   -7.8027    6.0828 O.2       1 UNL1        0.0000
     32 F          22.2112   -8.5900    6.5611 F         1 UNL1        0.0000
     33 H          25.3110  -12.7313   14.9320 H         1 UNL1        0.0000
     34 H          23.4566  -14.3023   15.0267 H         1 UNL1        0.0000
     35 H          22.4750  -15.0197   12.9507 H         1 UNL1        0.0000
     36 H          23.2620  -14.2439   10.8231 H         1 UNL1        0.0000
     37 H          24.0426  -13.8621    9.2237 H         1 UNL1        0.0000
     38 H          25.5307  -13.2784    8.4971 H         1 UNL1        0.0000
     39 H          25.7318  -10.8028    8.2175 H         1 UNL1        0.0000
     40 H          26.2486   -6.3763    6.9793 H         1 UNL1        0.0000
     41 H          27.5612   -7.4745    6.5217 H         1 UNL1        0.0000
     42 H          27.8386   -5.5685    8.3642 H         1 UNL1        0.0000
     43 H          28.7394   -7.0601    8.3789 H         1 UNL1        0.0000
     44 H          26.3036   -8.5529   10.7737 H         1 UNL1        0.0000
     45 H          27.9653   -8.8061   10.2696 H         1 UNL1        0.0000
     46 H          25.7015   -9.7796    9.0407 H         1 UNL1        0.0000
     47 H          27.3536   -9.7466    8.3994 H         1 UNL1        0.0000
     48 H          26.1888   -4.6185    9.5320 H         1 UNL1        0.0000
     49 H          28.4347   -3.0997   10.4168 H         1 UNL1        0.0000
     50 H          28.9482   -4.2196   11.2946 H         1 UNL1        0.0000
     51 H          26.2070   -2.7257   11.5573 H         1 UNL1        0.0000
     52 H          26.3354   -3.7850   12.6356 H         1 UNL1        0.0000
     53 H          20.9886  -10.7680    7.3858 H         1 UNL1        0.0000
     54 H          22.0283  -12.6564    8.4649 H         1 UNL1        0.0000
     55 H          27.4930  -10.6364   11.4735 H         1 UNL1        0.0000
@<TRIPOS>BOND
     1    1   18 1
     2    1   21 1
     3    1   17 am
     4    2   19 1
     5    2   20 1
     6    2   22 am
     7    3    4 1
     8    3   12 2
     9    4    5 am
    10    4   55 1
    11    5   29 2
    12    5    6 1
    13    6    7 ar
    14    6   11 ar
    15    7    8 ar
    16    7   33 1
    17    8   34 1
    18    8    9 ar
    19    9   10 ar
    20    9   35 1
    21   10   11 ar
    22   10   36 1
    23   11   12 1
    24   12   13 1
    25   13   37 1
    26   13   38 1
    27   13   14 1
    28   14   15 ar
    29   14   28 ar
    30   15   39 1
    31   15   16 ar
    32   16   26 ar
    33   16   17 1
    34   17   31 2
    35   18   19 1
    36   18   40 1
    37   18   41 1
    38   19   42 1
    39   19   43 1
    40   20   21 1
    41   20   45 1
    42   20   44 1
    43   21   46 1
    44   21   47 1
    45   22   30 2
    46   22   23 1
    47   23   25 1
    48   23   24 1
    49   23   48 1
    50   24   25 1
    51   24   49 1
    52   24   50 1
    53   25   51 1
    54   25   52 1
    55   26   27 ar
    56   26   32 1
    57   27   28 ar
    58   27   53 1
    59   28   54 1
@<TRIPOS>SUBSTRUCTURE
1 UNL1 1
@<TRIPOS>COMMENT
olaparib
PLANTSproteinTorsions
57
1 254.4420
19 169.1519
33 179.7261
53 32.5613
108 6.1923
228 4.3958
405 291.2139
438 243.8598
479 23.7355
492 190.7487
546 307.4794
641 271.5994
776 158.2942
836 229.8336
905 268.7144
919 246.8201
988 184.3053
1139 114.9654
1332 331.2333
1388 156.6939
1606 284.6609
1642 254.2738
1655 189.9430
1759 268.6237
1952 70.3083
1986 91.0272
2049 13.1304
2207 119.0469
2220 203.5982
2267 120.2403
2305 70.6758
2319 338.5421
2601 205.6108
2653 49.0490
2695 105.0621
2741 285.0896
2763 330.6401
2818 68.8421
2847 308.5146
2913 117.2442
2968 206.1429
2982 238.3006
2996 19.4566
3051 171.2210
3105 74.4282
3240 128.8649
3280 132.4999
3290 102.1391
3365 146.0074
3426 299.5457
3477 196.0291
3534 56.1194
3661 7.2769
3685 268.7847
3741 283.9754
3784 87.4668
3862 330.0681
PLANTSmolcadARTstart hb
PLANTSmolcadARTstart HB
LINES
26.2007 -11.6945 10.4127 27.4099 -11.6319 8.35828 0 255 0 5
PLANTSmolcadARTstart HBCH
LINES
PLANTSmolcadARTstart HB-CHO
LINES
PLANTSmolcadARTend
PLANTSmolcadARTstart HB_WATER
LINES
PLANTSmolcadARTend

PLANTSmolcadARTend

