@<TRIPOS>MOLECULE
olaparib_entry_00001_conf_24
55 59 1
SMALL
NO_CHARGES


@<TRIPOS>ATOM
      1 N          23.4539  -12.3282    7.6003 N.am      1 UNL1        0.0000
      2 N          22.7338  -13.8085    5.5907 N.am      1 UNL1        0.0000
      3 N          28.3580   -6.9889    7.7889 N.2       1 UNL1        0.0000
      4 N          29.1739   -6.1023    7.2722 N.am      1 UNL1        0.0000
      5 C          29.3429   -4.8740    7.7815 C.2       1 UNL1        0.0000
      6 C          28.6259   -4.5171    8.9051 C.ar      1 UNL1        0.0000
      7 C          28.7489   -3.2446    9.4643 C.ar      1 UNL1        0.0000
      8 C          28.0067   -2.9029   10.5742 C.ar      1 UNL1        0.0000
      9 C          27.1602   -3.8661   11.0811 C.ar      1 UNL1        0.0000
     10 C          27.0280   -5.1324   10.5363 C.ar      1 UNL1        0.0000
     11 C          27.7688   -5.4612    9.4395 C.ar      1 UNL1        0.0000
     12 C          27.6130   -6.7112    8.9030 C.2       1 UNL1        0.0000
     13 C          26.7965   -7.8044    9.4140 C.3       1 UNL1        0.0000
     14 C          25.9371   -8.3650    8.3349 C.ar      1 UNL1        0.0000
     15 C          25.0532   -9.3840    8.7325 C.ar      1 UNL1        0.0000
     16 C          24.2261   -9.9715    7.8055 C.ar      1 UNL1        0.0000
     17 C          23.2874  -11.0488    8.1923 C.2       1 UNL1        0.0000
     18 C          22.5713  -13.3933    7.9519 C.3       1 UNL1        0.0000
     19 C          22.4415  -14.4297    6.8563 C.3       1 UNL1        0.0000
     20 C          24.0864  -13.2700    5.4107 C.3       1 UNL1        0.0000
     21 C          24.5274  -12.5240    6.6438 C.3       1 UNL1        0.0000
     22 C          21.7879  -13.7105    4.5661 C.2       1 UNL1        0.0000
     23 C          20.4014  -14.1838    4.5986 C.3       1 UNL1        0.0000
     24 C          19.5286  -13.7713    3.4349 C.3       1 UNL1        0.0000
     25 C          19.2715  -13.2337    4.7729 C.3       1 UNL1        0.0000
     26 C          24.2077   -9.6150    6.4779 C.ar      1 UNL1        0.0000
     27 C          25.0734   -8.6175    6.0898 C.ar      1 UNL1        0.0000
     28 C          25.9194   -8.0167    7.0329 C.ar      1 UNL1        0.0000
     29 O          30.1213   -4.0107    7.3011 O.2       1 UNL1        0.0000
     30 O          22.1524  -13.1487    3.4722 O.2       1 UNL1        0.0000
     31 O          22.3626  -10.8649    9.0168 O.2       1 UNL1        0.0000
     32 F          23.3674  -10.2296    5.5953 F         1 UNL1        0.0000
     33 H          29.3968   -2.5584    9.0468 H         1 UNL1        0.0000
     34 H          28.0808   -1.9692   11.0055 H         1 UNL1        0.0000
     35 H          26.5946   -3.6305   11.9110 H         1 UNL1        0.0000
     36 H          26.3788   -5.8178   10.9537 H         1 UNL1        0.0000
     37 H          26.1752   -7.4400   10.2054 H         1 UNL1        0.0000
     38 H          27.4420   -8.5775    9.7760 H         1 UNL1        0.0000
     39 H          25.0260   -9.6900    9.7175 H         1 UNL1        0.0000
     40 H          21.6032  -12.9837    8.1529 H         1 UNL1        0.0000
     41 H          22.9806  -13.8816    8.8122 H         1 UNL1        0.0000
     42 H          21.4446  -14.8176    6.8451 H         1 UNL1        0.0000
     43 H          23.1266  -15.2325    7.0338 H         1 UNL1        0.0000
     44 H          24.0917  -12.6017    4.5752 H         1 UNL1        0.0000
     45 H          24.7624  -14.0815    5.2388 H         1 UNL1        0.0000
     46 H          24.8989  -11.5649    6.3484 H         1 UNL1        0.0000
     47 H          25.2801  -13.1129    7.1231 H         1 UNL1        0.0000
     48 H          20.6869  -15.0887    5.0925 H         1 UNL1        0.0000
     49 H          18.8484  -14.4741    3.0005 H         1 UNL1        0.0000
     50 H          19.7058  -13.3469    2.4688 H         1 UNL1        0.0000
     51 H          18.3976  -13.5404    5.3089 H         1 UNL1        0.0000
     52 H          19.1801  -12.2477    5.1761 H         1 UNL1        0.0000
     53 H          25.0991   -8.3118    5.1039 H         1 UNL1        0.0000
     54 H          26.5591   -7.2713    6.7154 H         1 UNL1        0.0000
     55 H          29.6885   -6.3515    6.4704 H         1 UNL1        0.0000
@<TRIPOS>BOND
     1    1   18 1
     2    1   21 1
     3    1   17 am
     4    2   19 1
     5    2   20 1
     6    2   22 am
     7    3    4 1
     8    3   12 2
     9    4    5 am
    10    4   55 1
    11    5   29 2
    12    5    6 1
    13    6    7 ar
    14    6   11 ar
    15    7    8 ar
    16    7   33 1
    17    8   34 1
    18    8    9 ar
    19    9   10 ar
    20    9   35 1
    21   10   11 ar
    22   10   36 1
    23   11   12 1
    24   12   13 1
    25   13   37 1
    26   13   38 1
    27   13   14 1
    28   14   15 ar
    29   14   28 ar
    30   15   39 1
    31   15   16 ar
    32   16   26 ar
    33   16   17 1
    34   17   31 2
    35   18   19 1
    36   18   40 1
    37   18   41 1
    38   19   42 1
    39   19   43 1
    40   20   21 1
    41   20   45 1
    42   20   44 1
    43   21   46 1
    44   21   47 1
    45   22   30 2
    46   22   23 1
    47   23   25 1
    48   23   24 1
    49   23   48 1
    50   24   25 1
    51   24   49 1
    52   24   50 1
    53   25   51 1
    54   25   52 1
    55   26   27 ar
    56   26   32 1
    57   27   28 ar
    58   27   53 1
    59   28   54 1
@<TRIPOS>SUBSTRUCTURE
1 UNL1 1
@<TRIPOS>COMMENT
olaparib
PLANTSproteinTorsions
57
1 130.4649
19 174.8213
33 10.0019
53 260.1900
108 8.6441
228 120.8101
405 304.6981
438 0.6768
479 63.9897
492 251.1742
546 209.6553
641 60.9740
776 78.3383
836 198.9991
905 163.4010
919 303.7729
988 224.2649
1139 88.1075
1332 55.1626
1388 34.4127
1606 258.5962
1642 160.1530
1655 337.5477
1759 55.2900
1952 171.3259
1986 77.5521
2049 26.8638
2207 199.3847
2220 266.4834
2267 58.7169
2305 330.5687
2319 145.9253
2601 226.4144
2653 271.6465
2695 190.4965
2741 105.6982
2763 131.3286
2818 316.3130
2847 100.8366
2913 231.2510
2968 204.9233
2982 204.9547
2996 229.4570
3051 175.1749
3105 72.0246
3240 160.0591
3280 356.2286
3290 81.2474
3365 246.5323
3426 259.4324
3477 208.5205
3534 258.1510
3661 80.1227
3685 80.1631
3741 162.9950
3784 195.7827
3862 44.4517
PLANTSmolcadARTstart hb
PLANTSmolcadARTstart HB
LINES
29.6885 -6.35155 6.47042 29.834 -6.332 4.456 0 255 0 5
PLANTSmolcadARTstart HBCH
LINES
PLANTSmolcadARTstart HB-CHO
LINES
PLANTSmolcadARTend
PLANTSmolcadARTstart HB_WATER
LINES
PLANTSmolcadARTend

PLANTSmolcadARTend

