@<TRIPOS>MOLECULE
olaparib_entry_00001_conf_43
55 59 1
SMALL
NO_CHARGES


@<TRIPOS>ATOM
      1 N          42.1120  -16.5913   11.9955 N.am      1 UNL1        0.0000
      2 N          42.2055  -15.7618   14.4555 N.am      1 UNL1        0.0000
      3 N          46.0589  -18.2008    7.2923 N.2       1 UNL1        0.0000
      4 N          47.1893  -17.5567    7.1319 N.am      1 UNL1        0.0000
      5 C          48.3557  -17.9816    7.6378 C.2       1 UNL1        0.0000
      6 C          48.3758  -19.1539    8.3651 C.ar      1 UNL1        0.0000
      7 C          49.5589  -19.6309    8.9307 C.ar      1 UNL1        0.0000
      8 C          49.5512  -20.7932    9.6713 C.ar      1 UNL1        0.0000
      9 C          48.3392  -21.4347    9.8155 C.ar      1 UNL1        0.0000
     10 C          47.1576  -20.9727    9.2602 C.ar      1 UNL1        0.0000
     11 C          47.1766  -19.8230    8.5270 C.ar      1 UNL1        0.0000
     12 C          45.9968  -19.3708    7.9998 C.2       1 UNL1        0.0000
     13 C          44.6932  -20.0200    8.0473 C.3       1 UNL1        0.0000
     14 C          44.1253  -19.9547    9.4222 C.ar      1 UNL1        0.0000
     15 C          43.2154  -18.9075    9.6525 C.ar      1 UNL1        0.0000
     16 C          42.6453  -18.7581   10.8941 C.ar      1 UNL1        0.0000
     17 C          41.6868  -17.6639   11.1686 C.2       1 UNL1        0.0000
     18 C          41.2177  -15.5157   12.2789 C.3       1 UNL1        0.0000
     19 C          41.5265  -14.8304   13.5926 C.3       1 UNL1        0.0000
     20 C          43.5080  -16.2612   14.0014 C.3       1 UNL1        0.0000
     21 C          43.4580  -16.6144   12.5371 C.3       1 UNL1        0.0000
     22 C          41.6673  -16.1860   15.6739 C.2       1 UNL1        0.0000
     23 C          40.3808  -15.7918   16.2539 C.3       1 UNL1        0.0000
     24 C          40.0993  -14.3071   16.3051 C.3       1 UNL1        0.0000
     25 C          40.3152  -15.0571   17.5445 C.3       1 UNL1        0.0000
     26 C          42.9157  -19.5915   11.9534 C.ar      1 UNL1        0.0000
     27 C          43.8066  -20.6162   11.7269 C.ar      1 UNL1        0.0000
     28 C          44.3909  -20.7709   10.4616 C.ar      1 UNL1        0.0000
     29 O          49.4500  -17.3786    7.4937 O.2       1 UNL1        0.0000
     30 O          42.3578  -17.0095   16.3742 O.2       1 UNL1        0.0000
     31 O          40.5263  -17.6585   10.6973 O.2       1 UNL1        0.0000
     32 F          42.3238  -19.4009   13.1683 F         1 UNL1        0.0000
     33 H          50.4411  -19.1132    8.7939 H         1 UNL1        0.0000
     34 H          50.4126  -21.1656   10.0986 H         1 UNL1        0.0000
     35 H          48.3111  -22.3059   10.3673 H         1 UNL1        0.0000
     36 H          46.2755  -21.4904    9.3985 H         1 UNL1        0.0000
     37 H          44.7994  -21.0449    7.7584 H         1 UNL1        0.0000
     38 H          44.0304  -19.5131    7.3772 H         1 UNL1        0.0000
     39 H          42.9767  -18.2529    8.8916 H         1 UNL1        0.0000
     40 H          40.2202  -15.9015   12.3195 H         1 UNL1        0.0000
     41 H          41.3294  -14.7890   11.5008 H         1 UNL1        0.0000
     42 H          40.6158  -14.5107   14.0539 H         1 UNL1        0.0000
     43 H          42.1482  -13.9767   13.4188 H         1 UNL1        0.0000
     44 H          43.7672  -17.1332   14.5644 H         1 UNL1        0.0000
     45 H          44.2420  -15.4963   14.1465 H         1 UNL1        0.0000
     46 H          43.8595  -17.5981   12.4090 H         1 UNL1        0.0000
     47 H          44.0281  -15.8793   12.0101 H         1 UNL1        0.0000
     48 H          39.9053  -16.6756   15.8835 H         1 UNL1        0.0000
     49 H          39.1235  -13.9388   16.0653 H         1 UNL1        0.0000
     50 H          40.5360  -13.4380   15.8593 H         1 UNL1        0.0000
     51 H          39.4957  -15.2270   18.2113 H         1 UNL1        0.0000
     52 H          40.9777  -14.9484   18.3767 H         1 UNL1        0.0000
     53 H          44.0441  -21.2710   12.4891 H         1 UNL1        0.0000
     54 H          45.0559  -21.5473   10.3186 H         1 UNL1        0.0000
     55 H          47.1812  -16.7194    6.6135 H         1 UNL1        0.0000
@<TRIPOS>BOND
     1    1   18 1
     2    1   21 1
     3    1   17 am
     4    2   19 1
     5    2   20 1
     6    2   22 am
     7    3    4 1
     8    3   12 2
     9    4    5 am
    10    4   55 1
    11    5   29 2
    12    5    6 1
    13    6    7 ar
    14    6   11 ar
    15    7    8 ar
    16    7   33 1
    17    8   34 1
    18    8    9 ar
    19    9   10 ar
    20    9   35 1
    21   10   11 ar
    22   10   36 1
    23   11   12 1
    24   12   13 1
    25   13   37 1
    26   13   38 1
    27   13   14 1
    28   14   15 ar
    29   14   28 ar
    30   15   39 1
    31   15   16 ar
    32   16   26 ar
    33   16   17 1
    34   17   31 2
    35   18   19 1
    36   18   40 1
    37   18   41 1
    38   19   42 1
    39   19   43 1
    40   20   21 1
    41   20   45 1
    42   20   44 1
    43   21   46 1
    44   21   47 1
    45   22   30 2
    46   22   23 1
    47   23   25 1
    48   23   24 1
    49   23   48 1
    50   24   25 1
    51   24   49 1
    52   24   50 1
    53   25   51 1
    54   25   52 1
    55   26   27 ar
    56   26   32 1
    57   27   28 ar
    58   27   53 1
    59   28   54 1
@<TRIPOS>SUBSTRUCTURE
1 UNL1 1
@<TRIPOS>COMMENT
olaparib
PLANTSproteinTorsions
57
1 176.7537
19 21.3909
33 256.0638
53 72.3925
108 189.5005
228 193.2112
405 204.2070
438 3.7640
479 11.6877
492 208.4431
546 72.3853
641 82.2117
776 71.8016
836 160.8997
905 36.1053
919 250.5678
988 232.7335
1139 22.4110
1332 60.7729
1388 327.4451
1606 90.2312
1642 85.4216
1655 263.2996
1759 170.1131
1952 143.0520
1986 281.4984
2049 246.3821
2207 20.5340
2220 169.3968
2267 27.3101
2305 54.0122
2319 169.9421
2601 180.7917
2653 348.4314
2695 161.8315
2741 255.6714
2763 295.2112
2818 85.4041
2847 120.6479
2913 110.5901
2968 183.1400
2982 269.1606
2996 212.7598
3051 200.6119
3105 54.1881
3240 205.5746
3280 10.0212
3290 251.8289
3365 273.4500
3426 62.7038
3477 164.6015
3534 190.7234
3661 190.6558
3685 253.7658
3741 49.0568
3784 163.6628
3862 130.0661
PLANTSmolcadARTstart hb
PLANTSmolcadARTstart HB
LINES
47.1812 -16.7194 6.61347 45.848 -15.529 5.762 0 255 0 5
PLANTSmolcadARTstart HBCH
LINES
PLANTSmolcadARTstart HB-CHO
LINES
PLANTSmolcadARTend
PLANTSmolcadARTstart HB_WATER
LINES
PLANTSmolcadARTend

PLANTSmolcadARTend

