@<TRIPOS>MOLECULE
olaparib_entry_00001_conf_01
55 59 1
SMALL
NO_CHARGES


@<TRIPOS>ATOM
      1 N          23.1509   -9.9155    5.7523 N.am      1 UNL1        0.0000
      2 N          23.7193  -12.4058    5.2792 N.am      1 UNL1        0.0000
      3 N          28.3646   -5.9403    8.4572 N.2       1 UNL1        0.0000
      4 N          28.8852   -4.7404    8.3689 N.am      1 UNL1        0.0000
      5 C          28.6134   -3.7555    9.2366 C.2       1 UNL1        0.0000
      6 C          27.7430   -4.0090   10.2768 C.ar      1 UNL1        0.0000
      7 C          27.4100   -3.0139   11.1965 C.ar      1 UNL1        0.0000
      8 C          26.5217   -3.2837   12.2152 C.ar      1 UNL1        0.0000
      9 C          25.9975   -4.5581   12.2665 C.ar      1 UNL1        0.0000
     10 C          26.3188   -5.5550   11.3605 C.ar      1 UNL1        0.0000
     11 C          27.2008   -5.2783   10.3579 C.ar      1 UNL1        0.0000
     12 C          27.4939   -6.2699    9.4605 C.2       1 UNL1        0.0000
     13 C          27.0397   -7.6542    9.4828 C.3       1 UNL1        0.0000
     14 C          25.5993   -7.7387    9.1146 C.ar      1 UNL1        0.0000
     15 C          25.3348   -8.1308    7.7903 C.ar      1 UNL1        0.0000
     16 C          24.0356   -8.2278    7.3528 C.ar      1 UNL1        0.0000
     17 C          23.7249   -8.6345    5.9637 C.2       1 UNL1        0.0000
     18 C          22.8329  -10.3411    4.4276 C.3       1 UNL1        0.0000
     19 C          22.8470  -11.8473    4.2791 C.3       1 UNL1        0.0000
     20 C          23.3465  -12.1913    6.6817 C.3       1 UNL1        0.0000
     21 C          22.8985  -10.7688    6.8986 C.3       1 UNL1        0.0000
     22 C          24.8744  -13.1221    4.9526 C.2       1 UNL1        0.0000
     23 C          25.3846  -13.4064    3.6087 C.3       1 UNL1        0.0000
     24 C          25.3044  -12.2728    2.6114 C.3       1 UNL1        0.0000
     25 C          24.4700  -13.4639    2.4383 C.3       1 UNL1        0.0000
     26 C          22.9489   -7.9589    8.1508 C.ar      1 UNL1        0.0000
     27 C          23.2091   -7.5751    9.4470 C.ar      1 UNL1        0.0000
     28 C          24.5336   -7.4742    9.8963 C.ar      1 UNL1        0.0000
     29 O          29.1036   -2.5992    9.1693 O.2       1 UNL1        0.0000
     30 O          25.5777  -13.5885    5.9185 O.2       1 UNL1        0.0000
     31 O          23.9513   -7.8892    4.9829 O.2       1 UNL1        0.0000
     32 F          21.6768   -8.0692    7.6689 F         1 UNL1        0.0000
     33 H          27.8297   -2.0747   11.1145 H         1 UNL1        0.0000
     34 H          26.2605   -2.5650   12.9070 H         1 UNL1        0.0000
     35 H          25.3296   -4.7806   13.0205 H         1 UNL1        0.0000
     36 H          25.8977   -6.4938   11.4425 H         1 UNL1        0.0000
     37 H          27.1759   -8.0539   10.4660 H         1 UNL1        0.0000
     38 H          27.6096   -8.2161    8.7723 H         1 UNL1        0.0000
     39 H          26.1140   -8.3448    7.1486 H         1 UNL1        0.0000
     40 H          23.5504   -9.9232    3.7522 H         1 UNL1        0.0000
     41 H          21.8407  -10.0037    4.2091 H         1 UNL1        0.0000
     42 H          23.2026  -12.1089    3.3047 H         1 UNL1        0.0000
     43 H          21.8566  -12.2332    4.4045 H         1 UNL1        0.0000
     44 H          24.1917  -12.3925    7.3060 H         1 UNL1        0.0000
     45 H          22.5393  -12.8484    6.9300 H         1 UNL1        0.0000
     46 H          23.4233  -10.3700    7.7416 H         1 UNL1        0.0000
     47 H          21.8415  -10.7861    7.0585 H         1 UNL1        0.0000
     48 H          26.1296  -14.0693    3.9957 H         1 UNL1        0.0000
     49 H          26.1201  -12.0888    1.9435 H         1 UNL1        0.0000
     50 H          25.1199  -11.2206    2.6744 H         1 UNL1        0.0000
     51 H          24.6747  -14.1431    1.6372 H         1 UNL1        0.0000
     52 H          23.4204  -13.6287    2.3179 H         1 UNL1        0.0000
     53 H          22.4284   -7.3619   10.0882 H         1 UNL1        0.0000
     54 H          24.7009   -7.1839   10.8727 H         1 UNL1        0.0000
     55 H          29.5074   -4.5538    7.6287 H         1 UNL1        0.0000
@<TRIPOS>BOND
     1    1   18 1
     2    1   21 1
     3    1   17 am
     4    2   19 1
     5    2   20 1
     6    2   22 am
     7    3    4 1
     8    3   12 2
     9    4    5 am
    10    4   55 1
    11    5   29 2
    12    5    6 1
    13    6    7 ar
    14    6   11 ar
    15    7    8 ar
    16    7   33 1
    17    8   34 1
    18    8    9 ar
    19    9   10 ar
    20    9   35 1
    21   10   11 ar
    22   10   36 1
    23   11   12 1
    24   12   13 1
    25   13   37 1
    26   13   38 1
    27   13   14 1
    28   14   15 ar
    29   14   28 ar
    30   15   39 1
    31   15   16 ar
    32   16   26 ar
    33   16   17 1
    34   17   31 2
    35   18   19 1
    36   18   40 1
    37   18   41 1
    38   19   42 1
    39   19   43 1
    40   20   21 1
    41   20   45 1
    42   20   44 1
    43   21   46 1
    44   21   47 1
    45   22   30 2
    46   22   23 1
    47   23   25 1
    48   23   24 1
    49   23   48 1
    50   24   25 1
    51   24   49 1
    52   24   50 1
    53   25   51 1
    54   25   52 1
    55   26   27 ar
    56   26   32 1
    57   27   28 ar
    58   27   53 1
    59   28   54 1
@<TRIPOS>SUBSTRUCTURE
1 UNL1 1
@<TRIPOS>COMMENT
olaparib
PLANTSproteinTorsions
57
1 286.0510
19 342.9963
33 89.6864
53 40.0792
108 71.5116
228 17.1539
405 232.2398
438 109.7402
479 1.2908
492 115.3445
546 167.6937
641 260.1223
776 292.1024
836 248.5960
905 228.7787
919 249.4749
988 46.1462
1139 98.1292
1332 20.6620
1388 178.7436
1606 218.8744
1642 29.3479
1655 128.5036
1759 31.0767
1952 197.6830
1986 251.2171
2049 295.2764
2207 275.2730
2220 230.0748
2267 219.0499
2305 28.4803
2319 279.3071
2601 166.9968
2653 296.6429
2695 28.9242
2741 254.8217
2763 115.3739
2818 265.9455
2847 26.4188
2913 237.9789
2968 145.7982
2982 253.6270
2996 302.2561
3051 302.8030
3105 83.5161
3240 216.1527
3280 312.8966
3290 29.6700
3365 270.0248
3426 171.9290
3477 235.7816
3534 82.3906
3661 119.4882
3685 321.8133
3741 153.2475
3784 53.7132
3862 307.1719
PLANTSmolcadARTstart hb
PLANTSmolcadARTstart HB
LINES
25.5777 -13.5885 5.91855 26.8122 -12.312 6.73648 0 255 0 5
PLANTSmolcadARTstart HBCH
LINES
PLANTSmolcadARTstart HB-CHO
LINES
PLANTSmolcadARTend
PLANTSmolcadARTstart HB_WATER
LINES
PLANTSmolcadARTend

PLANTSmolcadARTend

