@<TRIPOS>MOLECULE
olaparib_entry_00001_conf_76
55 59 1
SMALL
NO_CHARGES


@<TRIPOS>ATOM
      1 N          24.7803  -19.9403   10.9396 N.am      1 UNL1        0.0000
      2 N          24.1146  -17.4296   10.9015 N.am      1 UNL1        0.0000
      3 N          31.7841  -21.2461   14.1901 N.2       1 UNL1        0.0000
      4 N          32.9791  -21.7702   14.3166 N.am      1 UNL1        0.0000
      5 C          33.9097  -21.7196   13.3532 C.2       1 UNL1        0.0000
      6 C          33.6024  -21.0867   12.1663 C.ar      1 UNL1        0.0000
      7 C          34.5271  -21.0228   11.1232 C.ar      1 UNL1        0.0000
      8 C          34.1907  -20.4040    9.9385 C.ar      1 UNL1        0.0000
      9 C          32.9225  -19.8701    9.8501 C.ar      1 UNL1        0.0000
     10 C          31.9948  -19.9266   10.8768 C.ar      1 UNL1        0.0000
     11 C          32.3386  -20.5388   12.0459 C.ar      1 UNL1        0.0000
     12 C          31.4039  -20.6013   13.0443 C.2       1 UNL1        0.0000
     13 C          30.0736  -20.0069   13.0574 C.3       1 UNL1        0.0000
     14 C          29.1642  -20.7379   12.1323 C.ar      1 UNL1        0.0000
     15 C          27.7902  -20.5139   12.3312 C.ar      1 UNL1        0.0000
     16 C          26.8711  -21.1522   11.5333 C.ar      1 UNL1        0.0000
     17 C          25.4180  -20.9398   11.7203 C.2       1 UNL1        0.0000
     18 C          23.3797  -19.7097   11.0882 C.3       1 UNL1        0.0000
     19 C          22.9787  -18.2964   10.7238 C.3       1 UNL1        0.0000
     20 C          25.2894  -17.6922   10.0632 C.3       1 UNL1        0.0000
     21 C          25.5750  -19.1707   10.0005 C.3       1 UNL1        0.0000
     22 C          24.1210  -16.3803   11.8251 C.2       1 UNL1        0.0000
     23 C          23.0384  -16.0028   12.7376 C.3       1 UNL1        0.0000
     24 C          21.9258  -15.1691   12.1435 C.3       1 UNL1        0.0000
     25 C          22.8312  -14.5858   13.1360 C.3       1 UNL1        0.0000
     26 C          27.2205  -22.0188   10.5250 C.ar      1 UNL1        0.0000
     27 C          28.5657  -22.2373   10.3312 C.ar      1 UNL1        0.0000
     28 C          29.5062  -21.5885   11.1442 C.ar      1 UNL1        0.0000
     29 O          35.0612  -22.2150   13.4563 O.2       1 UNL1        0.0000
     30 O          25.1791  -15.6589   11.8979 O.2       1 UNL1        0.0000
     31 O          24.7447  -21.6091   12.5372 O.2       1 UNL1        0.0000
     32 F          26.2693  -22.6291    9.7598 F         1 UNL1        0.0000
     33 H          35.4644  -21.4387   11.2390 H         1 UNL1        0.0000
     34 H          34.8570  -20.3438    9.1538 H         1 UNL1        0.0000
     35 H          32.6499  -19.4036    8.9713 H         1 UNL1        0.0000
     36 H          31.0571  -19.5114   10.7599 H         1 UNL1        0.0000
     37 H          30.1416  -18.9844   12.7494 H         1 UNL1        0.0000
     38 H          29.6773  -20.0693   14.0496 H         1 UNL1        0.0000
     39 H          27.4729  -19.8724   13.0745 H         1 UNL1        0.0000
     40 H          23.1091  -19.8907   12.1078 H         1 UNL1        0.0000
     41 H          22.8702  -20.3730   10.4201 H         1 UNL1        0.0000
     42 H          22.1785  -17.9753   11.3569 H         1 UNL1        0.0000
     43 H          22.6527  -18.2634    9.7049 H         1 UNL1        0.0000
     44 H          26.1376  -17.1878   10.4765 H         1 UNL1        0.0000
     45 H          25.0948  -17.3366    9.0729 H         1 UNL1        0.0000
     46 H          26.6101  -19.3284   10.2215 H         1 UNL1        0.0000
     47 H          25.3216  -19.5050    9.0171 H         1 UNL1        0.0000
     48 H          23.1373  -16.9161   13.2859 H         1 UNL1        0.0000
     49 H          20.9075  -15.3729   12.4022 H         1 UNL1        0.0000
     50 H          21.6209  -14.9103   11.1510 H         1 UNL1        0.0000
     51 H          22.4678  -14.3573   14.1161 H         1 UNL1        0.0000
     52 H          23.4546  -13.7173   13.1581 H         1 UNL1        0.0000
     53 H          28.8819  -22.8791    9.5866 H         1 UNL1        0.0000
     54 H          30.5086  -21.7703   10.9779 H         1 UNL1        0.0000
     55 H          33.2042  -22.2229   15.1617 H         1 UNL1        0.0000
@<TRIPOS>BOND
     1    1   18 1
     2    1   21 1
     3    1   17 am
     4    2   19 1
     5    2   20 1
     6    2   22 am
     7    3    4 1
     8    3   12 2
     9    4    5 am
    10    4   55 1
    11    5   29 2
    12    5    6 1
    13    6    7 ar
    14    6   11 ar
    15    7    8 ar
    16    7   33 1
    17    8   34 1
    18    8    9 ar
    19    9   10 ar
    20    9   35 1
    21   10   11 ar
    22   10   36 1
    23   11   12 1
    24   12   13 1
    25   13   37 1
    26   13   38 1
    27   13   14 1
    28   14   15 ar
    29   14   28 ar
    30   15   39 1
    31   15   16 ar
    32   16   26 ar
    33   16   17 1
    34   17   31 2
    35   18   19 1
    36   18   40 1
    37   18   41 1
    38   19   42 1
    39   19   43 1
    40   20   21 1
    41   20   45 1
    42   20   44 1
    43   21   46 1
    44   21   47 1
    45   22   30 2
    46   22   23 1
    47   23   25 1
    48   23   24 1
    49   23   48 1
    50   24   25 1
    51   24   49 1
    52   24   50 1
    53   25   51 1
    54   25   52 1
    55   26   27 ar
    56   26   32 1
    57   27   28 ar
    58   27   53 1
    59   28   54 1
@<TRIPOS>SUBSTRUCTURE
1 UNL1 1
@<TRIPOS>COMMENT
olaparib
PLANTSproteinTorsions
57
1 23.3512
19 282.3207
33 69.3095
53 311.4274
108 53.7683
228 36.6418
405 215.5205
438 33.4299
479 21.5068
492 164.4105
546 45.1172
641 167.9460
776 84.3597
836 222.5661
905 215.9316
919 304.0061
988 172.8343
1139 347.9122
1332 218.3604
1388 93.9315
1606 104.3311
1642 197.9535
1655 98.4372
1759 187.7857
1952 50.6837
1986 325.8008
2049 276.6219
2207 224.3577
2220 289.4177
2267 178.7709
2305 202.6847
2319 222.8320
2601 212.7670
2653 97.5691
2695 46.5586
2741 11.3174
2763 57.2225
2818 236.4320
2847 3.1360
2913 175.6925
2968 267.1321
2982 73.1449
2996 353.3751
3051 184.3903
3105 104.7818
3240 293.6686
3280 89.4103
3290 288.5743
3365 50.4900
3426 36.3136
3477 210.6863
3534 110.5752
3661 47.3787
3685 179.5816
3741 190.0681
3784 248.8708
3862 37.6262
PLANTSmolcadARTstart hb
PLANTSmolcadARTstart HB
LINES
24.7447 -21.6091 12.5372 23.761 -21.006 14.021 0 255 0 5
PLANTSmolcadARTstart HBCH
LINES
PLANTSmolcadARTstart HB-CHO
LINES
PLANTSmolcadARTend
PLANTSmolcadARTstart HB_WATER
LINES
PLANTSmolcadARTend

PLANTSmolcadARTend

