@<TRIPOS>MOLECULE
olaparib_entry_00001_conf_42
55 59 1
SMALL
NO_CHARGES


@<TRIPOS>ATOM
      1 N          24.1570   -7.3979   -0.3408 N.am      1 UNL1        0.0000
      2 N          23.6253   -9.5041   -1.7654 N.am      1 UNL1        0.0000
      3 N          24.6053   -9.2612    7.0788 N.2       1 UNL1        0.0000
      4 N          24.3149   -9.0498    8.3395 N.am      1 UNL1        0.0000
      5 C          25.0297   -8.2393    9.1327 C.2       1 UNL1        0.0000
      6 C          26.1274   -7.5921    8.6035 C.ar      1 UNL1        0.0000
      7 C          26.9177   -6.7532    9.3900 C.ar      1 UNL1        0.0000
      8 C          28.0220   -6.1338    8.8456 C.ar      1 UNL1        0.0000
      9 C          28.2900   -6.3880    7.5172 C.ar      1 UNL1        0.0000
     10 C          27.5148   -7.2183    6.7251 C.ar      1 UNL1        0.0000
     11 C          26.4227   -7.8243    7.2728 C.ar      1 UNL1        0.0000
     12 C          25.6773   -8.6558    6.4807 C.2       1 UNL1        0.0000
     13 C          25.8507   -8.9235    5.0590 C.3       1 UNL1        0.0000
     14 C          25.0070   -8.0043    4.2463 C.ar      1 UNL1        0.0000
     15 C          25.3800   -7.8741    2.8966 C.ar      1 UNL1        0.0000
     16 C          24.6681   -7.0401    2.0681 C.ar      1 UNL1        0.0000
     17 C          25.0381   -6.8792    0.6439 C.2       1 UNL1        0.0000
     18 C          24.4772   -7.2577   -1.7246 C.3       1 UNL1        0.0000
     19 C          23.8544   -8.3396   -2.5806 C.3       1 UNL1        0.0000
     20 C          22.6912   -9.3577   -0.6438 C.3       1 UNL1        0.0000
     21 C          22.9407   -8.0637    0.0872 C.3       1 UNL1        0.0000
     22 C          24.2537  -10.7283   -2.0116 C.2       1 UNL1        0.0000
     23 C          25.2155  -11.0268   -3.0760 C.3       1 UNL1        0.0000
     24 C          24.6337  -11.5203   -4.3814 C.3       1 UNL1        0.0000
     25 C          25.4308  -12.4208   -3.5453 C.3       1 UNL1        0.0000
     26 C          23.5843   -6.3058    2.4876 C.ar      1 UNL1        0.0000
     27 C          23.2201   -6.4339    3.8089 C.ar      1 UNL1        0.0000
     28 C          23.9449   -7.2832    4.6572 C.ar      1 UNL1        0.0000
     29 O          24.7663   -8.0230   10.3433 O.2       1 UNL1        0.0000
     30 O          23.9724  -11.7081   -1.2331 O.2       1 UNL1        0.0000
     31 O          26.0931   -6.3054    0.2885 O.2       1 UNL1        0.0000
     32 F          22.9100   -5.4903    1.6256 F         1 UNL1        0.0000
     33 H          26.6749   -6.5955   10.3806 H         1 UNL1        0.0000
     34 H          28.6208   -5.5092    9.4066 H         1 UNL1        0.0000
     35 H          29.1129   -5.9353    7.0904 H         1 UNL1        0.0000
     36 H          27.7590   -7.3764    5.7347 H         1 UNL1        0.0000
     37 H          25.5679   -9.9349    4.8539 H         1 UNL1        0.0000
     38 H          26.8774   -8.7663    4.8008 H         1 UNL1        0.0000
     39 H          26.1862   -8.4031    2.5294 H         1 UNL1        0.0000
     40 H          25.5407   -7.3020   -1.8361 H         1 UNL1        0.0000
     41 H          24.0837   -6.3181   -2.0538 H         1 UNL1        0.0000
     42 H          24.5156   -8.5872   -3.3841 H         1 UNL1        0.0000
     43 H          22.9269   -7.9920   -2.9861 H         1 UNL1        0.0000
     44 H          22.8229  -10.1750    0.0339 H         1 UNL1        0.0000
     45 H          21.6911   -9.3511   -1.0244 H         1 UNL1        0.0000
     46 H          23.0172   -8.2718    1.1341 H         1 UNL1        0.0000
     47 H          22.1236   -7.4093   -0.1307 H         1 UNL1        0.0000
     48 H          25.8728  -10.2502   -2.7454 H         1 UNL1        0.0000
     49 H          25.0269  -11.1647   -5.3110 H         1 UNL1        0.0000
     50 H          23.6535  -11.5524   -4.8093 H         1 UNL1        0.0000
     51 H          26.4025  -12.7271   -3.8722 H         1 UNL1        0.0000
     52 H          25.2632  -13.3868   -3.1187 H         1 UNL1        0.0000
     53 H          22.4127   -5.9045    4.1750 H         1 UNL1        0.0000
     54 H          23.6509   -7.3608    5.6437 H         1 UNL1        0.0000
     55 H          23.5323   -9.5088    8.7226 H         1 UNL1        0.0000
@<TRIPOS>BOND
     1    1   18 1
     2    1   21 1
     3    1   17 am
     4    2   19 1
     5    2   20 1
     6    2   22 am
     7    3    4 1
     8    3   12 2
     9    4    5 am
    10    4   55 1
    11    5   29 2
    12    5    6 1
    13    6    7 ar
    14    6   11 ar
    15    7    8 ar
    16    7   33 1
    17    8   34 1
    18    8    9 ar
    19    9   10 ar
    20    9   35 1
    21   10   11 ar
    22   10   36 1
    23   11   12 1
    24   12   13 1
    25   13   37 1
    26   13   38 1
    27   13   14 1
    28   14   15 ar
    29   14   28 ar
    30   15   39 1
    31   15   16 ar
    32   16   26 ar
    33   16   17 1
    34   17   31 2
    35   18   19 1
    36   18   40 1
    37   18   41 1
    38   19   42 1
    39   19   43 1
    40   20   21 1
    41   20   45 1
    42   20   44 1
    43   21   46 1
    44   21   47 1
    45   22   30 2
    46   22   23 1
    47   23   25 1
    48   23   24 1
    49   23   48 1
    50   24   25 1
    51   24   49 1
    52   24   50 1
    53   25   51 1
    54   25   52 1
    55   26   27 ar
    56   26   32 1
    57   27   28 ar
    58   27   53 1
    59   28   54 1
@<TRIPOS>SUBSTRUCTURE
1 UNL1 1
@<TRIPOS>COMMENT
olaparib
PLANTSproteinTorsions
57
1 173.2296
19 18.3320
33 169.0520
53 206.3493
108 178.1281
228 193.0290
405 102.5479
438 66.4148
479 29.2963
492 162.6001
546 203.8556
641 170.9386
776 245.7879
836 198.9854
905 227.9897
919 254.2147
988 16.3797
1139 38.5145
1332 42.5502
1388 67.3146
1606 138.2469
1642 301.8794
1655 94.9736
1759 191.2429
1952 257.4737
1986 12.0481
2049 199.0666
2207 63.2669
2220 307.1702
2267 345.8993
2305 245.7567
2319 112.0786
2601 231.8512
2653 100.9548
2695 55.2293
2741 144.3808
2763 51.9735
2818 246.4462
2847 85.4498
2913 278.1124
2968 116.7172
2982 262.6377
2996 87.0732
3051 120.4636
3105 86.2463
3240 215.6747
3280 183.3461
3290 128.6847
3365 215.3375
3426 224.5025
3477 229.0948
3534 266.9877
3661 89.8619
3685 171.7335
3741 208.2183
3784 126.5217
3862 127.9536
PLANTSmolcadARTstart hb
PLANTSmolcadARTstart HB
LINES
PLANTSmolcadARTstart HBCH
LINES
PLANTSmolcadARTstart HB-CHO
LINES
PLANTSmolcadARTend
PLANTSmolcadARTstart HB_WATER
LINES
PLANTSmolcadARTend

PLANTSmolcadARTend

