@<TRIPOS>MOLECULE
olaparib_entry_00001_conf_46
55 59 1
SMALL
NO_CHARGES


@<TRIPOS>ATOM
      1 N          24.4495  -14.4491    8.9550 N.am      1 UNL1        0.0000
      2 N          23.0871  -16.6080    9.4357 N.am      1 UNL1        0.0000
      3 N          25.3328   -7.3722    9.7415 N.2       1 UNL1        0.0000
      4 N          26.4214   -6.6525    9.6164 N.am      1 UNL1        0.0000
      5 C          27.1698   -6.6388    8.5043 C.2       1 UNL1        0.0000
      6 C          26.7821   -7.4183    7.4339 C.ar      1 UNL1        0.0000
      7 C          27.5355   -7.4566    6.2600 C.ar      1 UNL1        0.0000
      8 C          27.1406   -8.2591    5.2114 C.ar      1 UNL1        0.0000
      9 C          25.9914   -9.0000    5.3894 C.ar      1 UNL1        0.0000
     10 C          25.2344   -8.9721    6.5487 C.ar      1 UNL1        0.0000
     11 C          25.6325   -8.1727    7.5794 C.ar      1 UNL1        0.0000
     12 C          24.8825   -8.1702    8.7248 C.2       1 UNL1        0.0000
     13 C          23.6259   -8.8664    8.9681 C.3       1 UNL1        0.0000
     14 C          23.8323  -10.0092    9.9002 C.ar      1 UNL1        0.0000
     15 C          24.4361  -11.1480    9.3378 C.ar      1 UNL1        0.0000
     16 C          24.6591  -12.2583   10.1164 C.ar      1 UNL1        0.0000
     17 C          25.2895  -13.4733    9.5527 C.2       1 UNL1        0.0000
     18 C          25.0210  -15.6316    8.3963 C.3       1 UNL1        0.0000
     19 C          24.0572  -16.7987    8.3890 C.3       1 UNL1        0.0000
     20 C          22.2187  -15.4304    9.3313 C.3       1 UNL1        0.0000
     21 C          23.0171  -14.2183    8.9256 C.3       1 UNL1        0.0000
     22 C          22.9610  -17.4907   10.5123 C.2       1 UNL1        0.0000
     23 C          23.7580  -18.6945   10.7629 C.3       1 UNL1        0.0000
     24 C          24.8770  -18.5557   11.7703 C.3       1 UNL1        0.0000
     25 C          25.1853  -18.7672   10.3542 C.3       1 UNL1        0.0000
     26 C          24.3202  -12.3269   11.4470 C.ar      1 UNL1        0.0000
     27 C          23.7291  -11.2116   11.9964 C.ar      1 UNL1        0.0000
     28 C          23.4993  -10.0774   11.2046 C.ar      1 UNL1        0.0000
     29 O          28.2158   -5.9545    8.3649 O.2       1 UNL1        0.0000
     30 O          22.0570  -17.2371   11.3863 O.2       1 UNL1        0.0000
     31 O          26.5273  -13.6614    9.5881 O.2       1 UNL1        0.0000
     32 F          24.5619  -13.4537   12.1780 F         1 UNL1        0.0000
     33 H          28.3892   -6.8828    6.1764 H         1 UNL1        0.0000
     34 H          27.6805   -8.3037    4.3340 H         1 UNL1        0.0000
     35 H          25.6790   -9.6084    4.6171 H         1 UNL1        0.0000
     36 H          24.3814   -9.5471    6.6320 H         1 UNL1        0.0000
     37 H          23.2414   -9.2342    8.0397 H         1 UNL1        0.0000
     38 H          22.9323   -8.1824    9.4113 H         1 UNL1        0.0000
     39 H          24.7107  -11.1500    8.3432 H         1 UNL1        0.0000
     40 H          25.8816  -15.9012    8.9727 H         1 UNL1        0.0000
     41 H          25.2774  -15.4173    7.3793 H         1 UNL1        0.0000
     42 H          24.5937  -17.7087    8.5570 H         1 UNL1        0.0000
     43 H          23.5629  -16.8546    7.4414 H         1 UNL1        0.0000
     44 H          21.7583  -15.2465   10.2794 H         1 UNL1        0.0000
     45 H          21.4717  -15.6156    8.5879 H         1 UNL1        0.0000
     46 H          22.7878  -13.4175    9.5973 H         1 UNL1        0.0000
     47 H          22.7514  -13.9817    7.9174 H         1 UNL1        0.0000
     48 H          22.9116  -19.3287   10.6021 H         1 UNL1        0.0000
     49 H          25.0581  -19.3360   12.4800 H         1 UNL1        0.0000
     50 H          25.1486  -17.8261   12.5044 H         1 UNL1        0.0000
     51 H          25.5996  -19.7009   10.0352 H         1 UNL1        0.0000
     52 H          25.7837  -18.2492    9.6353 H         1 UNL1        0.0000
     53 H          23.4554  -11.2107   12.9920 H         1 UNL1        0.0000
     54 H          23.0542   -9.2547   11.6413 H         1 UNL1        0.0000
     55 H          26.7028   -6.0939   10.3770 H         1 UNL1        0.0000
@<TRIPOS>BOND
     1    1   18 1
     2    1   21 1
     3    1   17 am
     4    2   19 1
     5    2   20 1
     6    2   22 am
     7    3    4 1
     8    3   12 2
     9    4    5 am
    10    4   55 1
    11    5   29 2
    12    5    6 1
    13    6    7 ar
    14    6   11 ar
    15    7    8 ar
    16    7   33 1
    17    8   34 1
    18    8    9 ar
    19    9   10 ar
    20    9   35 1
    21   10   11 ar
    22   10   36 1
    23   11   12 1
    24   12   13 1
    25   13   37 1
    26   13   38 1
    27   13   14 1
    28   14   15 ar
    29   14   28 ar
    30   15   39 1
    31   15   16 ar
    32   16   26 ar
    33   16   17 1
    34   17   31 2
    35   18   19 1
    36   18   40 1
    37   18   41 1
    38   19   42 1
    39   19   43 1
    40   20   21 1
    41   20   45 1
    42   20   44 1
    43   21   46 1
    44   21   47 1
    45   22   30 2
    46   22   23 1
    47   23   25 1
    48   23   24 1
    49   23   48 1
    50   24   25 1
    51   24   49 1
    52   24   50 1
    53   25   51 1
    54   25   52 1
    55   26   27 ar
    56   26   32 1
    57   27   28 ar
    58   27   53 1
    59   28   54 1
@<TRIPOS>SUBSTRUCTURE
1 UNL1 1
@<TRIPOS>COMMENT
olaparib
PLANTSproteinTorsions
57
1 53.0461
19 22.1073
33 150.6564
53 108.5636
108 194.8513
228 268.4362
405 342.6791
438 206.0938
479 313.2119
492 303.8588
546 173.4115
641 184.8885
776 311.8971
836 213.6452
905 189.2182
919 347.0891
988 208.7202
1139 246.7558
1332 330.7986
1388 132.0093
1606 284.7312
1642 128.6206
1655 120.2243
1759 353.4238
1952 65.3934
1986 153.2096
2049 36.0998
2207 153.3503
2220 119.2954
2267 354.7477
2305 354.9658
2319 77.3392
2601 194.9583
2653 197.8668
2695 91.0484
2741 190.6060
2763 123.2372
2818 292.5127
2847 173.2635
2913 109.1697
2968 310.1256
2982 66.6886
2996 115.1302
3051 195.6949
3105 232.5861
3240 324.9456
3280 11.7134
3290 69.5130
3365 110.8297
3426 17.3817
3477 219.8553
3534 324.3682
3661 240.7204
3685 261.7908
3741 184.0798
3784 117.2140
3862 275.9734
PLANTSmolcadARTstart hb
PLANTSmolcadARTstart HB
LINES
PLANTSmolcadARTstart HBCH
LINES
PLANTSmolcadARTstart HB-CHO
LINES
PLANTSmolcadARTend
PLANTSmolcadARTstart HB_WATER
LINES
PLANTSmolcadARTend

PLANTSmolcadARTend

