@<TRIPOS>MOLECULE
olaparib_entry_00001_conf_23
55 59 1
SMALL
NO_CHARGES


@<TRIPOS>ATOM
      1 N          23.1334  -12.0555    8.9235 N.am      1 UNL1        0.0000
      2 N          22.1408  -12.5620   11.2701 N.am      1 UNL1        0.0000
      3 N          28.7395   -6.8291    7.7228 N.2       1 UNL1        0.0000
      4 N          29.2278   -5.6870    7.3036 N.am      1 UNL1        0.0000
      5 C          29.0753   -4.5336    7.9695 C.2       1 UNL1        0.0000
      6 C          28.3705   -4.5404    9.1556 C.ar      1 UNL1        0.0000
      7 C          28.1650   -3.3647    9.8785 C.ar      1 UNL1        0.0000
      8 C          27.4395   -3.3917   11.0500 C.ar      1 UNL1        0.0000
      9 C          26.9432   -4.6143   11.4500 C.ar      1 UNL1        0.0000
     10 C          27.1389   -5.7886   10.7425 C.ar      1 UNL1        0.0000
     11 C          27.8606   -5.7514    9.5859 C.ar      1 UNL1        0.0000
     12 C          28.0298   -6.9181    8.8896 C.2       1 UNL1        0.0000
     13 C          27.5996   -8.2558    9.2751 C.3       1 UNL1        0.0000
     14 C          26.3485   -8.6300    8.5596 C.ar      1 UNL1        0.0000
     15 C          25.9385   -9.9662    8.7150 C.ar      1 UNL1        0.0000
     16 C          24.8007  -10.4098    8.0846 C.ar      1 UNL1        0.0000
     17 C          24.3452  -11.8112    8.2259 C.2       1 UNL1        0.0000
     18 C          22.6593  -13.3931    9.0759 C.3       1 UNL1        0.0000
     19 C          21.7889  -13.5679   10.3019 C.3       1 UNL1        0.0000
     20 C          21.9303  -11.1630   10.8824 C.3       1 UNL1        0.0000
     21 C          22.3989  -10.9293    9.4693 C.3       1 UNL1        0.0000
     22 C          22.6619  -12.8802   12.5277 C.2       1 UNL1        0.0000
     23 C          22.9410  -14.2194   13.0528 C.3       1 UNL1        0.0000
     24 C          24.2444  -14.3839   13.8013 C.3       1 UNL1        0.0000
     25 C          24.0531  -15.0403   12.5060 C.3       1 UNL1        0.0000
     26 C          24.0166   -9.6068    7.2906 C.ar      1 UNL1        0.0000
     27 C          24.4189   -8.2990    7.1392 C.ar      1 UNL1        0.0000
     28 C          25.5799   -7.8435    7.7802 C.ar      1 UNL1        0.0000
     29 O          29.5371   -3.4290    7.5843 O.2       1 UNL1        0.0000
     30 O          22.9322  -11.9100   13.3220 O.2       1 UNL1        0.0000
     31 O          24.9910  -12.7744    7.7527 O.2       1 UNL1        0.0000
     32 F          22.8952  -10.0951    6.6850 F         1 UNL1        0.0000
     33 H          28.5574   -2.4737    9.5361 H         1 UNL1        0.0000
     34 H          27.2748   -2.5363   11.6017 H         1 UNL1        0.0000
     35 H          26.3960   -4.6564   12.3235 H         1 UNL1        0.0000
     36 H          26.7452   -6.6792   11.0850 H         1 UNL1        0.0000
     37 H          27.4222   -8.2785   10.3301 H         1 UNL1        0.0000
     38 H          28.3672   -8.9541    9.0134 H         1 UNL1        0.0000
     39 H          26.4906  -10.6120    9.3005 H         1 UNL1        0.0000
     40 H          23.5020  -14.0478    9.1576 H         1 UNL1        0.0000
     41 H          22.0609  -13.6236    8.2187 H         1 UNL1        0.0000
     42 H          21.9471  -14.5400   10.7192 H         1 UNL1        0.0000
     43 H          20.7581  -13.4673   10.0319 H         1 UNL1        0.0000
     44 H          22.4798  -10.5270   11.5444 H         1 UNL1        0.0000
     45 H          20.8851  -10.9411   10.9400 H         1 UNL1        0.0000
     46 H          23.0365  -10.0699    9.4584 H         1 UNL1        0.0000
     47 H          21.5301  -10.7889    8.8622 H         1 UNL1        0.0000
     48 H          21.9014  -14.4056   13.2228 H         1 UNL1        0.0000
     49 H          24.2768  -14.9676   14.6977 H         1 UNL1        0.0000
     50 H          24.9714  -13.7146   14.2118 H         1 UNL1        0.0000
     51 H          23.9547  -16.1049   12.4602 H         1 UNL1        0.0000
     52 H          24.5951  -15.0447   11.5844 H         1 UNL1        0.0000
     53 H          23.8651   -7.6537    6.5535 H         1 UNL1        0.0000
     54 H          25.8594   -6.8584    7.6497 H         1 UNL1        0.0000
     55 H          29.7321   -5.6761    6.4578 H         1 UNL1        0.0000
@<TRIPOS>BOND
     1    1   18 1
     2    1   21 1
     3    1   17 am
     4    2   19 1
     5    2   20 1
     6    2   22 am
     7    3    4 1
     8    3   12 2
     9    4    5 am
    10    4   55 1
    11    5   29 2
    12    5    6 1
    13    6    7 ar
    14    6   11 ar
    15    7    8 ar
    16    7   33 1
    17    8   34 1
    18    8    9 ar
    19    9   10 ar
    20    9   35 1
    21   10   11 ar
    22   10   36 1
    23   11   12 1
    24   12   13 1
    25   13   37 1
    26   13   38 1
    27   13   14 1
    28   14   15 ar
    29   14   28 ar
    30   15   39 1
    31   15   16 ar
    32   16   26 ar
    33   16   17 1
    34   17   31 2
    35   18   19 1
    36   18   40 1
    37   18   41 1
    38   19   42 1
    39   19   43 1
    40   20   21 1
    41   20   45 1
    42   20   44 1
    43   21   46 1
    44   21   47 1
    45   22   30 2
    46   22   23 1
    47   23   25 1
    48   23   24 1
    49   23   48 1
    50   24   25 1
    51   24   49 1
    52   24   50 1
    53   25   51 1
    54   25   52 1
    55   26   27 ar
    56   26   32 1
    57   27   28 ar
    58   27   53 1
    59   28   54 1
@<TRIPOS>SUBSTRUCTURE
1 UNL1 1
@<TRIPOS>COMMENT
olaparib
PLANTSproteinTorsions
57
1 191.4723
19 243.7876
33 310.8080
53 285.5091
108 248.6013
228 96.2521
405 203.5308
438 130.9681
479 70.4967
492 84.2369
546 352.5732
641 223.8306
776 265.4677
836 292.8790
905 98.7558
919 298.6154
988 202.7139
1139 124.8154
1332 213.0560
1388 88.0786
1606 143.9815
1642 291.5013
1655 131.3497
1759 154.7635
1952 341.9706
1986 136.0768
2049 151.7562
2207 86.7021
2220 103.0545
2267 125.5726
2305 350.0536
2319 128.1276
2601 330.0582
2653 64.1699
2695 246.3595
2741 324.2592
2763 42.2430
2818 179.7661
2847 186.3470
2913 255.1477
2968 321.0745
2982 89.9418
2996 209.4683
3051 227.9714
3105 249.2873
3240 119.1199
3280 96.0702
3290 233.9347
3365 144.4013
3426 111.8685
3477 3.0234
3534 308.4748
3661 293.6901
3685 87.7811
3741 184.4109
3784 196.5319
3862 117.2494
PLANTSmolcadARTstart hb
PLANTSmolcadARTstart HB
LINES
29.7321 -5.67606 6.45776 29.834 -6.332 4.456 0 255 0 5
PLANTSmolcadARTstart HBCH
LINES
PLANTSmolcadARTstart HB-CHO
LINES
PLANTSmolcadARTend
PLANTSmolcadARTstart HB_WATER
LINES
PLANTSmolcadARTend

PLANTSmolcadARTend

