@<TRIPOS>MOLECULE
olaparib_entry_00001_conf_14
55 59 1
SMALL
NO_CHARGES


@<TRIPOS>ATOM
      1 N          27.7368   -3.6547    1.4212 N.am      1 UNL1        0.0000
      2 N          29.4643   -4.4572   -0.3452 N.am      1 UNL1        0.0000
      3 N          24.2977   -8.4859    6.3144 N.2       1 UNL1        0.0000
      4 N          23.4826   -8.5396    7.3398 N.am      1 UNL1        0.0000
      5 C          23.8238   -8.1370    8.5720 C.2       1 UNL1        0.0000
      6 C          25.0943   -7.6406    8.7798 C.ar      1 UNL1        0.0000
      7 C          25.5079   -7.2264   10.0465 C.ar      1 UNL1        0.0000
      8 C          26.7888   -6.7538   10.2349 C.ar      1 UNL1        0.0000
      9 C          27.6112   -6.7183    9.1288 C.ar      1 UNL1        0.0000
     10 C          27.2143   -7.1264    7.8663 C.ar      1 UNL1        0.0000
     11 C          25.9439   -7.5899    7.6901 C.ar      1 UNL1        0.0000
     12 C          25.5732   -8.0057    6.4394 C.2       1 UNL1        0.0000
     13 C          26.3535   -7.9383    5.2107 C.3       1 UNL1        0.0000
     14 C          25.8442   -6.8543    4.3258 C.ar      1 UNL1        0.0000
     15 C          26.7827   -5.8671    3.9759 C.ar      1 UNL1        0.0000
     16 C          26.4046   -4.8195    3.1707 C.ar      1 UNL1        0.0000
     17 C          27.3682   -3.7631    2.7877 C.2       1 UNL1        0.0000
     18 C          28.6597   -2.6455    1.0127 C.3       1 UNL1        0.0000
     19 C          29.4193   -3.0219   -0.2413 C.3       1 UNL1        0.0000
     20 C          28.1814   -5.1547   -0.4851 C.3       1 UNL1        0.0000
     21 C          27.1609   -4.5808    0.4639 C.3       1 UNL1        0.0000
     22 C          30.6636   -5.1749   -0.3154 C.2       1 UNL1        0.0000
     23 C          32.0148   -4.6274   -0.1677 C.3       1 UNL1        0.0000
     24 C          32.9937   -5.4706    0.6177 C.3       1 UNL1        0.0000
     25 C          32.5246   -4.1933    1.1595 C.3       1 UNL1        0.0000
     26 C          25.1320   -4.6728    2.6718 C.ar      1 UNL1        0.0000
     27 C          24.2142   -5.6396    3.0150 C.ar      1 UNL1        0.0000
     28 C          24.5963   -6.7093    3.8372 C.ar      1 UNL1        0.0000
     29 O          23.0560   -8.1794    9.5672 O.2       1 UNL1        0.0000
     30 O          30.5958   -6.4509   -0.4272 O.2       1 UNL1        0.0000
     31 O          27.8605   -2.9725    3.6252 O.2       1 UNL1        0.0000
     32 F          24.8054   -3.6132    1.8760 F         1 UNL1        0.0000
     33 H          24.8538   -7.2732   10.8433 H         1 UNL1        0.0000
     34 H          27.1172   -6.4416   11.1612 H         1 UNL1        0.0000
     35 H          28.5745   -6.3692    9.2483 H         1 UNL1        0.0000
     36 H          27.8694   -7.0803    7.0700 H         1 UNL1        0.0000
     37 H          26.2833   -8.8743    4.6970 H         1 UNL1        0.0000
     38 H          27.3728   -7.7280    5.4600 H         1 UNL1        0.0000
     39 H          27.7523   -5.9289    4.3230 H         1 UNL1        0.0000
     40 H          29.3623   -2.4836    1.8036 H         1 UNL1        0.0000
     41 H          28.0966   -1.7610    0.7966 H         1 UNL1        0.0000
     42 H          30.4146   -2.6335   -0.1886 H         1 UNL1        0.0000
     43 H          28.9290   -2.6108   -1.0992 H         1 UNL1        0.0000
     44 H          28.3188   -6.1931   -0.2673 H         1 UNL1        0.0000
     45 H          27.8275   -5.0313   -1.4874 H         1 UNL1        0.0000
     46 H          26.7038   -5.3853    1.0015 H         1 UNL1        0.0000
     47 H          26.4497   -4.0367   -0.1203 H         1 UNL1        0.0000
     48 H          31.9659   -4.1589   -1.1281 H         1 UNL1        0.0000
     49 H          34.0046   -5.5703    0.2809 H         1 UNL1        0.0000
     50 H          33.0115   -6.4816    0.9676 H         1 UNL1        0.0000
     51 H          33.1988   -3.3649    1.2244 H         1 UNL1        0.0000
     52 H          32.0621   -3.8966    2.0767 H         1 UNL1        0.0000
     53 H          23.2443   -5.5769    2.6665 H         1 UNL1        0.0000
     54 H          23.8885   -7.4205    4.0798 H         1 UNL1        0.0000
     55 H          22.5744   -8.8927    7.1974 H         1 UNL1        0.0000
@<TRIPOS>BOND
     1    1   18 1
     2    1   21 1
     3    1   17 am
     4    2   19 1
     5    2   20 1
     6    2   22 am
     7    3    4 1
     8    3   12 2
     9    4    5 am
    10    4   55 1
    11    5   29 2
    12    5    6 1
    13    6    7 ar
    14    6   11 ar
    15    7    8 ar
    16    7   33 1
    17    8   34 1
    18    8    9 ar
    19    9   10 ar
    20    9   35 1
    21   10   11 ar
    22   10   36 1
    23   11   12 1
    24   12   13 1
    25   13   37 1
    26   13   38 1
    27   13   14 1
    28   14   15 ar
    29   14   28 ar
    30   15   39 1
    31   15   16 ar
    32   16   26 ar
    33   16   17 1
    34   17   31 2
    35   18   19 1
    36   18   40 1
    37   18   41 1
    38   19   42 1
    39   19   43 1
    40   20   21 1
    41   20   45 1
    42   20   44 1
    43   21   46 1
    44   21   47 1
    45   22   30 2
    46   22   23 1
    47   23   25 1
    48   23   24 1
    49   23   48 1
    50   24   25 1
    51   24   49 1
    52   24   50 1
    53   25   51 1
    54   25   52 1
    55   26   27 ar
    56   26   32 1
    57   27   28 ar
    58   27   53 1
    59   28   54 1
@<TRIPOS>SUBSTRUCTURE
1 UNL1 1
@<TRIPOS>COMMENT
olaparib
PLANTSproteinTorsions
57
1 119.1989
19 49.2103
33 171.3270
53 204.9613
108 170.2445
228 167.6289
405 24.3348
438 5.3618
479 48.8843
492 46.1789
546 60.2132
641 26.6857
776 47.2574
836 190.3911
905 225.3434
919 55.9615
988 210.8589
1139 319.8916
1332 350.4727
1388 90.0289
1606 229.7975
1642 241.7176
1655 6.7142
1759 352.8833
1952 240.8358
1986 9.8779
2049 205.0171
2207 224.3908
2220 69.1487
2267 48.3802
2305 273.3292
2319 270.6326
2601 125.4159
2653 222.2030
2695 245.6650
2741 242.8359
2763 210.2343
2818 148.0470
2847 190.9412
2913 300.9835
2968 253.8007
2982 200.0064
2996 124.3214
3051 81.4921
3105 171.2009
3240 230.0993
3280 138.1916
3290 245.1597
3365 242.9307
3426 205.0849
3477 37.7635
3534 345.0750
3661 127.6987
3685 243.4626
3741 211.9549
3784 67.0089
3862 75.7548
PLANTSmolcadARTstart hb
PLANTSmolcadARTstart HB
LINES
30.5958 -6.45088 -0.427153 30.032 -7.586 0.566 0 255 0 5
27.8605 -2.97246 3.62517 26.5765 -3.18555 5.30262 0 255 0 5
PLANTSmolcadARTstart HBCH
LINES
PLANTSmolcadARTstart HB-CHO
LINES
PLANTSmolcadARTend
PLANTSmolcadARTstart HB_WATER
LINES
PLANTSmolcadARTend

PLANTSmolcadARTend

