@<TRIPOS>MOLECULE
olaparib_entry_00001_conf_95
55 59 1
SMALL
NO_CHARGES


@<TRIPOS>ATOM
      1 N          23.2391  -19.7516    8.7548 N.am      1 UNL1        0.0000
      2 N          24.8277  -21.0543   10.3446 N.am      1 UNL1        0.0000
      3 N          24.3778  -12.9384    9.6468 N.2       1 UNL1        0.0000
      4 N          23.7850  -11.9567   10.2821 N.am      1 UNL1        0.0000
      5 C          23.3917  -12.0400   11.5608 C.2       1 UNL1        0.0000
      6 C          23.6178  -13.2140   12.2495 C.ar      1 UNL1        0.0000
      7 C          23.2106  -13.3612   13.5760 C.ar      1 UNL1        0.0000
      8 C          23.4279  -14.5507   14.2375 C.ar      1 UNL1        0.0000
      9 C          24.0517  -15.5555   13.5287 C.ar      1 UNL1        0.0000
     10 C          24.4607  -15.4234   12.2122 C.ar      1 UNL1        0.0000
     11 C          24.2433  -14.2415   11.5676 C.ar      1 UNL1        0.0000
     12 C          24.6379  -14.1336   10.2610 C.2       1 UNL1        0.0000
     13 C          25.3602  -15.1170    9.4646 C.3       1 UNL1        0.0000
     14 C          24.4909  -15.6545    8.3817 C.ar      1 UNL1        0.0000
     15 C          24.2384  -17.0368    8.4377 C.ar      1 UNL1        0.0000
     16 C          23.4550  -17.6280    7.4757 C.ar      1 UNL1        0.0000
     17 C          23.1738  -19.0811    7.5053 C.2       1 UNL1        0.0000
     18 C          22.9697  -21.1515    8.8241 C.3       1 UNL1        0.0000
     19 C          23.6624  -21.8223    9.9908 C.3       1 UNL1        0.0000
     20 C          24.6036  -19.6805   10.8077 C.3       1 UNL1        0.0000
     21 C          23.5808  -18.9905    9.9421 C.3       1 UNL1        0.0000
     22 C          26.1232  -21.5724   10.2579 C.2       1 UNL1        0.0000
     23 C          26.5082  -22.9113    9.8037 C.3       1 UNL1        0.0000
     24 C          27.0305  -23.8515   10.8664 C.3       1 UNL1        0.0000
     25 C          27.9288  -23.3484    9.8247 C.3       1 UNL1        0.0000
     26 C          22.8867  -16.9335    6.4342 C.ar      1 UNL1        0.0000
     27 C          23.1345  -15.5805    6.3804 C.ar      1 UNL1        0.0000
     28 C          23.9342  -14.9742    7.3598 C.ar      1 UNL1        0.0000
     29 O          22.8231  -11.1094   12.1873 O.2       1 UNL1        0.0000
     30 O          27.0932  -20.8097   10.6080 O.2       1 UNL1        0.0000
     31 O          22.8835  -19.7265    6.4719 O.2       1 UNL1        0.0000
     32 F          22.1162  -17.5670    5.5027 F         1 UNL1        0.0000
     33 H          22.7468  -12.5784   14.0628 H         1 UNL1        0.0000
     34 H          23.1365  -14.6831   15.2178 H         1 UNL1        0.0000
     35 H          24.2227  -16.4545   14.0049 H         1 UNL1        0.0000
     36 H          24.9235  -16.2072   11.7256 H         1 UNL1        0.0000
     37 H          25.6729  -15.9215   10.0971 H         1 UNL1        0.0000
     38 H          26.2106  -14.6436    9.0196 H         1 UNL1        0.0000
     39 H          24.6405  -17.6057    9.1988 H         1 UNL1        0.0000
     40 H          23.3045  -21.6100    7.9168 H         1 UNL1        0.0000
     41 H          21.9148  -21.2711    8.9619 H         1 UNL1        0.0000
     42 H          23.9550  -22.8131    9.7135 H         1 UNL1        0.0000
     43 H          22.9955  -21.8761   10.8262 H         1 UNL1        0.0000
     44 H          25.5249  -19.1384   10.7627 H         1 UNL1        0.0000
     45 H          24.2406  -19.7089   11.8138 H         1 UNL1        0.0000
     46 H          23.9742  -18.0432    9.6374 H         1 UNL1        0.0000
     47 H          22.6890  -18.8841   10.5221 H         1 UNL1        0.0000
     48 H          25.7478  -22.9109    9.0512 H         1 UNL1        0.0000
     49 H          26.7320  -24.8792   10.8654 H         1 UNL1        0.0000
     50 H          27.0378  -23.8555   11.9364 H         1 UNL1        0.0000
     51 H          28.2908  -24.0144    9.0694 H         1 UNL1        0.0000
     52 H          28.8677  -22.8368    9.8322 H         1 UNL1        0.0000
     53 H          22.7310  -15.0122    5.6185 H         1 UNL1        0.0000
     54 H          24.1047  -13.9581    7.2958 H         1 UNL1        0.0000
     55 H          23.6213  -11.1162    9.7957 H         1 UNL1        0.0000
@<TRIPOS>BOND
     1    1   18 1
     2    1   21 1
     3    1   17 am
     4    2   19 1
     5    2   20 1
     6    2   22 am
     7    3    4 1
     8    3   12 2
     9    4    5 am
    10    4   55 1
    11    5   29 2
    12    5    6 1
    13    6    7 ar
    14    6   11 ar
    15    7    8 ar
    16    7   33 1
    17    8   34 1
    18    8    9 ar
    19    9   10 ar
    20    9   35 1
    21   10   11 ar
    22   10   36 1
    23   11   12 1
    24   12   13 1
    25   13   37 1
    26   13   38 1
    27   13   14 1
    28   14   15 ar
    29   14   28 ar
    30   15   39 1
    31   15   16 ar
    32   16   26 ar
    33   16   17 1
    34   17   31 2
    35   18   19 1
    36   18   40 1
    37   18   41 1
    38   19   42 1
    39   19   43 1
    40   20   21 1
    41   20   45 1
    42   20   44 1
    43   21   46 1
    44   21   47 1
    45   22   30 2
    46   22   23 1
    47   23   25 1
    48   23   24 1
    49   23   48 1
    50   24   25 1
    51   24   49 1
    52   24   50 1
    53   25   51 1
    54   25   52 1
    55   26   27 ar
    56   26   32 1
    57   27   28 ar
    58   27   53 1
    59   28   54 1
@<TRIPOS>SUBSTRUCTURE
1 UNL1 1
@<TRIPOS>COMMENT
olaparib
PLANTSproteinTorsions
57
1 331.3799
19 48.3191
33 46.1675
53 29.2563
108 357.7486
228 64.6583
405 274.3322
438 218.2473
479 25.9829
492 154.7769
546 309.4651
641 243.8132
776 351.6824
836 58.1315
905 286.5596
919 19.9752
988 315.2357
1139 113.2891
1332 253.9212
1388 156.1652
1606 36.1928
1642 253.8834
1655 180.1049
1759 123.5952
1952 65.4882
1986 94.0821
2049 11.2782
2207 176.2058
2220 200.7836
2267 137.8564
2305 281.9336
2319 267.1844
2601 209.8153
2653 46.2801
2695 279.2008
2741 15.9323
2763 291.3764
2818 272.4211
2847 282.2945
2913 28.2931
2968 123.2081
2982 251.9880
2996 16.5819
3051 168.4878
3105 104.5490
3240 128.3632
3280 135.3765
3290 152.5849
3365 152.3354
3426 302.5971
3477 193.9226
3534 277.3083
3661 276.9179
3685 189.6219
3741 139.5126
3784 55.1170
3862 214.5510
PLANTSmolcadARTstart hb
PLANTSmolcadARTstart HB
LINES
22.8231 -11.1094 12.1873 21.3313 -9.68129 11.7008 0 255 0 5
PLANTSmolcadARTstart HBCH
LINES
PLANTSmolcadARTstart HB-CHO
LINES
PLANTSmolcadARTend
PLANTSmolcadARTstart HB_WATER
LINES
PLANTSmolcadARTend

PLANTSmolcadARTend

