@<TRIPOS>MOLECULE
olaparib_entry_00001_conf_41
55 59 1
SMALL
NO_CHARGES


@<TRIPOS>ATOM
      1 N          24.8638  -14.0189   10.7621 N.am      1 UNL1        0.0000
      2 N          24.5278  -16.0731    9.2079 N.am      1 UNL1        0.0000
      3 N          27.6740   -7.9508    8.8196 N.2       1 UNL1        0.0000
      4 N          28.1836   -7.1351    7.9288 N.am      1 UNL1        0.0000
      5 C          28.3039   -5.8146    8.1249 C.2       1 UNL1        0.0000
      6 C          27.8720   -5.2793    9.3210 C.ar      1 UNL1        0.0000
      7 C          27.9554   -3.9087    9.5691 C.ar      1 UNL1        0.0000
      8 C          27.4980   -3.3935   10.7628 C.ar      1 UNL1        0.0000
      9 C          26.9677   -4.2884   11.6679 C.ar      1 UNL1        0.0000
     10 C          26.8783   -5.6506   11.4348 C.ar      1 UNL1        0.0000
     11 C          27.3362   -6.1505   10.2515 C.ar      1 UNL1        0.0000
     12 C          27.2243   -7.4970   10.0300 C.2       1 UNL1        0.0000
     13 C          26.7425   -8.5147   10.9547 C.3       1 UNL1        0.0000
     14 C          25.8325   -9.4660   10.2588 C.ar      1 UNL1        0.0000
     15 C          25.4893  -10.6188   10.9875 C.ar      1 UNL1        0.0000
     16 C          24.6622  -11.5616   10.4255 C.ar      1 UNL1        0.0000
     17 C          24.2855  -12.7869   11.1657 C.2       1 UNL1        0.0000
     18 C          24.5288  -15.2210   11.4547 C.3       1 UNL1        0.0000
     19 C          24.6749  -16.4538   10.5887 C.3       1 UNL1        0.0000
     20 C          25.5208  -15.1394    8.6659 C.3       1 UNL1        0.0000
     21 C          25.7904  -14.0262    9.6453 C.3       1 UNL1        0.0000
     22 C          23.4934  -16.5573    8.4018 C.2       1 UNL1        0.0000
     23 C          22.4242  -17.4775    8.7982 C.3       1 UNL1        0.0000
     24 C          21.0098  -16.9964    8.5655 C.3       1 UNL1        0.0000
     25 C          21.5166  -17.1552    9.9305 C.3       1 UNL1        0.0000
     26 C          24.1345  -11.4446    9.1614 C.ar      1 UNL1        0.0000
     27 C          24.4711  -10.3158    8.4491 C.ar      1 UNL1        0.0000
     28 C          25.3156   -9.3523    9.0191 C.ar      1 UNL1        0.0000
     29 O          28.7909   -5.0167    7.2835 O.2       1 UNL1        0.0000
     30 O          23.4580  -16.1654    7.1810 O.2       1 UNL1        0.0000
     31 O          23.4815  -12.7668   12.1258 O.2       1 UNL1        0.0000
     32 F          23.3177  -12.4095    8.6473 F         1 UNL1        0.0000
     33 H          28.3608   -3.2799    8.8584 H         1 UNL1        0.0000
     34 H          27.5495   -2.3845   10.9692 H         1 UNL1        0.0000
     35 H          26.6184   -3.9232   12.5672 H         1 UNL1        0.0000
     36 H          26.4717   -6.2788   12.1457 H         1 UNL1        0.0000
     37 H          26.2122   -8.0413   11.7545 H         1 UNL1        0.0000
     38 H          27.5811   -9.0587   11.3371 H         1 UNL1        0.0000
     39 H          25.8577  -10.7566   11.9414 H         1 UNL1        0.0000
     40 H          23.5135  -15.1535   11.7864 H         1 UNL1        0.0000
     41 H          25.2077  -15.3205   12.2764 H         1 UNL1        0.0000
     42 H          23.9204  -17.1664   10.8479 H         1 UNL1        0.0000
     43 H          25.6384  -16.8934   10.7435 H         1 UNL1        0.0000
     44 H          25.1511  -14.7220    7.7528 H         1 UNL1        0.0000
     45 H          26.4331  -15.6692    8.4869 H         1 UNL1        0.0000
     46 H          25.7102  -13.0913    9.1307 H         1 UNL1        0.0000
     47 H          26.7708  -14.1794   10.0435 H         1 UNL1        0.0000
     48 H          23.0212  -18.3302    8.5513 H         1 UNL1        0.0000
     49 H          20.2704  -17.6711    8.1870 H         1 UNL1        0.0000
     50 H          20.5635  -16.1975    8.0109 H         1 UNL1        0.0000
     51 H          21.1381  -17.9425   10.5486 H         1 UNL1        0.0000
     52 H          21.5834  -16.5111   10.7813 H         1 UNL1        0.0000
     53 H          24.1013  -10.1788    7.4948 H         1 UNL1        0.0000
     54 H          25.5526   -8.5154    8.4633 H         1 UNL1        0.0000
     55 H          28.4940   -7.5115    7.0733 H         1 UNL1        0.0000
@<TRIPOS>BOND
     1    1   18 1
     2    1   21 1
     3    1   17 am
     4    2   19 1
     5    2   20 1
     6    2   22 am
     7    3    4 1
     8    3   12 2
     9    4    5 am
    10    4   55 1
    11    5   29 2
    12    5    6 1
    13    6    7 ar
    14    6   11 ar
    15    7    8 ar
    16    7   33 1
    17    8   34 1
    18    8    9 ar
    19    9   10 ar
    20    9   35 1
    21   10   11 ar
    22   10   36 1
    23   11   12 1
    24   12   13 1
    25   13   37 1
    26   13   38 1
    27   13   14 1
    28   14   15 ar
    29   14   28 ar
    30   15   39 1
    31   15   16 ar
    32   16   26 ar
    33   16   17 1
    34   17   31 2
    35   18   19 1
    36   18   40 1
    37   18   41 1
    38   19   42 1
    39   19   43 1
    40   20   21 1
    41   20   45 1
    42   20   44 1
    43   21   46 1
    44   21   47 1
    45   22   30 2
    46   22   23 1
    47   23   25 1
    48   23   24 1
    49   23   48 1
    50   24   25 1
    51   24   49 1
    52   24   50 1
    53   25   51 1
    54   25   52 1
    55   26   27 ar
    56   26   32 1
    57   27   28 ar
    58   27   53 1
    59   28   54 1
@<TRIPOS>SUBSTRUCTURE
1 UNL1 1
@<TRIPOS>COMMENT
olaparib
PLANTSproteinTorsions
57
1 183.6664
19 74.4670
33 322.6983
53 32.6882
108 8.4750
228 70.3456
405 218.8286
438 245.7058
479 50.1569
492 187.1210
546 176.5573
641 142.3511
776 223.5443
836 265.5175
905 261.6608
919 193.3377
988 306.6737
1139 141.3129
1332 312.5229
1388 58.8237
1606 27.9961
1642 131.4961
1655 168.7671
1759 21.0520
1952 88.8578
1986 142.8214
2049 10.4243
2207 198.8720
2220 246.1897
2267 103.8052
2305 42.2342
2319 133.6222
2601 334.0911
2653 243.0500
2695 126.7632
2741 252.2013
2763 64.4434
2818 264.8343
2847 34.2536
2913 261.1239
2968 224.3492
2982 263.2242
2996 182.6791
3051 167.8177
3105 183.0916
3240 152.8686
3280 139.2344
3290 104.2708
3365 271.1006
3426 168.8738
3477 150.6807
3534 269.5885
3661 97.0456
3685 87.0488
3741 228.4945
3784 211.8183
3862 212.5164
PLANTSmolcadARTstart hb
PLANTSmolcadARTstart HB
LINES
PLANTSmolcadARTstart HBCH
LINES
PLANTSmolcadARTstart HB-CHO
LINES
PLANTSmolcadARTend
PLANTSmolcadARTstart HB_WATER
LINES
PLANTSmolcadARTend

PLANTSmolcadARTend

