@<TRIPOS>MOLECULE
olaparib_entry_00001_conf_61
55 59 1
SMALL
NO_CHARGES


@<TRIPOS>ATOM
      1 N          26.0047   -8.5095    8.0998 N.am      1 UNL1        0.0000
      2 N          27.2275   -6.9865    9.8125 N.am      1 UNL1        0.0000
      3 N          24.2122  -13.2361   12.5756 N.2       1 UNL1        0.0000
      4 N          23.5846  -13.9559   13.4737 N.am      1 UNL1        0.0000
      5 C          23.5020  -15.2927   13.4176 C.2       1 UNL1        0.0000
      6 C          24.1043  -15.9511   12.3653 C.ar      1 UNL1        0.0000
      7 C          24.0317  -17.3397   12.2477 C.ar      1 UNL1        0.0000
      8 C          24.6228  -17.9743   11.1765 C.ar      1 UNL1        0.0000
      9 C          25.2689  -17.1765   10.2559 C.ar      1 UNL1        0.0000
     10 C          25.3484  -15.7979   10.3598 C.ar      1 UNL1        0.0000
     11 C          24.7624  -15.1800   11.4250 C.ar      1 UNL1        0.0000
     12 C          24.8352  -13.8150   11.5033 C.2       1 UNL1        0.0000
     13 C          25.5521  -12.9090   10.6155 C.3       1 UNL1        0.0000
     14 C          24.6042  -12.2085    9.7055 C.ar      1 UNL1        0.0000
     15 C          25.0728  -11.0023    9.1549 C.ar      1 UNL1        0.0000
     16 C          24.2661  -10.2773    8.3108 C.ar      1 UNL1        0.0000
     17 C          24.7293   -9.0024    7.7182 C.2       1 UNL1        0.0000
     18 C          26.4877   -7.2860    7.5460 C.3       1 UNL1        0.0000
     19 C          27.4769   -6.5852    8.4524 C.3       1 UNL1        0.0000
     20 C          27.4020   -8.4082   10.1292 C.3       1 UNL1        0.0000
     21 C          26.7938   -9.2688    9.0519 C.3       1 UNL1        0.0000
     22 C          26.8352   -6.0809   10.8025 C.2       1 UNL1        0.0000
     23 C          26.6065   -4.6427   10.6406 C.3       1 UNL1        0.0000
     24 C          27.7114   -3.8638    9.9634 C.3       1 UNL1        0.0000
     25 C          27.4246   -3.6484   11.3835 C.3       1 UNL1        0.0000
     26 C          22.9955  -10.6688    7.9610 C.ar      1 UNL1        0.0000
     27 C          22.5379  -11.8496    8.5005 C.ar      1 UNL1        0.0000
     28 C          23.3580  -12.5912    9.3629 C.ar      1 UNL1        0.0000
     29 O          22.9060  -16.0002   14.2696 O.2       1 UNL1        0.0000
     30 O          26.6493   -6.5381   11.9865 O.2       1 UNL1        0.0000
     31 O          24.0361   -8.3552    6.9000 O.2       1 UNL1        0.0000
     32 F          22.2327   -9.9129    7.1187 F         1 UNL1        0.0000
     33 H          23.5355  -17.8925   12.9640 H         1 UNL1        0.0000
     34 H          24.5831  -18.9989   11.0683 H         1 UNL1        0.0000
     35 H          25.7170  -17.6315    9.4458 H         1 UNL1        0.0000
     36 H          25.8440  -15.2455    9.6424 H         1 UNL1        0.0000
     37 H          26.2523  -13.4689   10.0313 H         1 UNL1        0.0000
     38 H          26.0637  -12.1786   11.2072 H         1 UNL1        0.0000
     39 H          26.0195  -10.6622    9.3844 H         1 UNL1        0.0000
     40 H          25.6556   -6.6343    7.3777 H         1 UNL1        0.0000
     41 H          26.9958   -7.5223    6.6339 H         1 UNL1        0.0000
     42 H          27.3587   -5.5259    8.3623 H         1 UNL1        0.0000
     43 H          28.4754   -6.8502    8.1728 H         1 UNL1        0.0000
     44 H          26.9241   -8.6230   11.0620 H         1 UNL1        0.0000
     45 H          28.4483   -8.6232   10.1923 H         1 UNL1        0.0000
     46 H          26.1610   -9.9979    9.5135 H         1 UNL1        0.0000
     47 H          27.5974   -9.7228    8.5121 H         1 UNL1        0.0000
     48 H          25.5536   -4.7897   10.5214 H         1 UNL1        0.0000
     49 H          27.4706   -3.1056    9.2476 H         1 UNL1        0.0000
     50 H          28.5815   -4.1215    9.3965 H         1 UNL1        0.0000
     51 H          26.9819   -2.7276   11.7015 H         1 UNL1        0.0000
     52 H          28.0114   -3.6818   12.2767 H         1 UNL1        0.0000
     53 H          21.5904  -12.1891    8.2696 H         1 UNL1        0.0000
     54 H          22.9903  -13.4730    9.7540 H         1 UNL1        0.0000
     55 H          23.1531  -13.4915   14.2273 H         1 UNL1        0.0000
@<TRIPOS>BOND
     1    1   18 1
     2    1   21 1
     3    1   17 am
     4    2   19 1
     5    2   20 1
     6    2   22 am
     7    3    4 1
     8    3   12 2
     9    4    5 am
    10    4   55 1
    11    5   29 2
    12    5    6 1
    13    6    7 ar
    14    6   11 ar
    15    7    8 ar
    16    7   33 1
    17    8   34 1
    18    8    9 ar
    19    9   10 ar
    20    9   35 1
    21   10   11 ar
    22   10   36 1
    23   11   12 1
    24   12   13 1
    25   13   37 1
    26   13   38 1
    27   13   14 1
    28   14   15 ar
    29   14   28 ar
    30   15   39 1
    31   15   16 ar
    32   16   26 ar
    33   16   17 1
    34   17   31 2
    35   18   19 1
    36   18   40 1
    37   18   41 1
    38   19   42 1
    39   19   43 1
    40   20   21 1
    41   20   45 1
    42   20   44 1
    43   21   46 1
    44   21   47 1
    45   22   30 2
    46   22   23 1
    47   23   25 1
    48   23   24 1
    49   23   48 1
    50   24   25 1
    51   24   49 1
    52   24   50 1
    53   25   51 1
    54   25   52 1
    55   26   27 ar
    56   26   32 1
    57   27   28 ar
    58   27   53 1
    59   28   54 1
@<TRIPOS>SUBSTRUCTURE
1 UNL1 1
@<TRIPOS>COMMENT
olaparib
PLANTSproteinTorsions
57
1 70.2238
19 354.4678
33 33.2877
53 310.3309
108 56.1148
228 35.0527
405 226.9052
438 229.8915
479 284.4117
492 69.6987
546 176.9758
641 141.3201
776 215.0218
836 101.7149
905 46.7225
919 177.9448
988 4.3266
1139 346.2836
1332 161.4519
1388 111.5931
1606 104.5908
1642 3.5851
1655 283.8868
1759 223.4485
1952 207.6210
1986 153.2299
2049 299.1884
2207 186.2348
2220 310.3401
2267 4.5246
2305 216.0688
2319 162.3021
2601 236.6691
2653 53.2281
2695 139.4995
2741 191.0423
2763 251.7187
2818 177.1274
2847 172.5704
2913 358.3112
2968 197.3383
2982 64.0331
2996 131.9854
3051 321.8132
3105 88.9516
3240 60.1400
3280 110.4259
3290 272.9963
3365 96.0715
3426 212.2179
3477 73.0625
3534 258.4383
3661 151.2817
3685 69.2813
3741 316.6874
3784 79.8193
3862 211.9498
PLANTSmolcadARTstart hb
PLANTSmolcadARTstart HB
LINES
22.906 -16.0002 14.2696 23.871 -17.671 15.181 0 255 0 5
22.906 -16.0002 14.2696 21.664 -17.639 14.758 0 255 0 5
PLANTSmolcadARTstart HBCH
LINES
PLANTSmolcadARTstart HB-CHO
LINES
26.6493 -6.53813 11.9865 26.286 -8.671 12.834 0 255 255 5
PLANTSmolcadARTend
PLANTSmolcadARTstart HB_WATER
LINES
PLANTSmolcadARTend

PLANTSmolcadARTend

