@<TRIPOS>MOLECULE
olaparib_entry_00001_conf_69
55 59 1
SMALL
NO_CHARGES


@<TRIPOS>ATOM
      1 N          44.9907  -20.9064    8.9026 N.am      1 UNL1        0.0000
      2 N          46.8244  -19.9324    7.3414 N.am      1 UNL1        0.0000
      3 N          44.1226  -15.7434   13.6062 N.2       1 UNL1        0.0000
      4 N          44.5959  -15.1569   14.6789 N.am      1 UNL1        0.0000
      5 C          43.8415  -14.8554   15.7452 C.2       1 UNL1        0.0000
      6 C          42.4994  -15.1745   15.7201 C.ar      1 UNL1        0.0000
      7 C          41.6650  -14.8651   16.7948 C.ar      1 UNL1        0.0000
      8 C          40.3230  -15.1740   16.7390 C.ar      1 UNL1        0.0000
      9 C          39.8699  -15.7874   15.5902 C.ar      1 UNL1        0.0000
     10 C          40.6864  -16.0999   14.5162 C.ar      1 UNL1        0.0000
     11 C          42.0133  -15.7923   14.5826 C.ar      1 UNL1        0.0000
     12 C          42.8030  -16.0921   13.5052 C.2       1 UNL1        0.0000
     13 C          42.4199  -16.7968   12.2887 C.3       1 UNL1        0.0000
     14 C          43.0778  -18.1312   12.2273 C.ar      1 UNL1        0.0000
     15 C          43.1045  -18.7354   10.9577 C.ar      1 UNL1        0.0000
     16 C          43.6813  -19.9731   10.8018 C.ar      1 UNL1        0.0000
     17 C          43.7219  -20.6365    9.4790 C.2       1 UNL1        0.0000
     18 C          45.0704  -21.5491    7.6308 C.3       1 UNL1        0.0000
     19 C          46.3423  -21.2096    6.8837 C.3       1 UNL1        0.0000
     20 C          47.2059  -19.8328    8.7544 C.3       1 UNL1        0.0000
     21 C          46.1869  -20.5191    9.6272 C.3       1 UNL1        0.0000
     22 C          46.9315  -18.8237    6.4966 C.2       1 UNL1        0.0000
     23 C          46.5793  -18.7612    5.0757 C.3       1 UNL1        0.0000
     24 C          47.4060  -19.6198    4.1454 C.3       1 UNL1        0.0000
     25 C          47.5073  -18.1601    4.0821 C.3       1 UNL1        0.0000
     26 C          44.2498  -20.6761   11.8374 C.ar      1 UNL1        0.0000
     27 C          44.2230  -20.0838   13.0797 C.ar      1 UNL1        0.0000
     28 C          43.6344  -18.8215   13.2425 C.ar      1 UNL1        0.0000
     29 O          44.2773  -14.2945   16.7831 O.2       1 UNL1        0.0000
     30 O          47.3837  -17.7341    7.0002 O.2       1 UNL1        0.0000
     31 O          42.6812  -20.9622    8.8628 O.2       1 UNL1        0.0000
     32 F          44.8099  -21.9035   11.6314 F         1 UNL1        0.0000
     33 H          42.0530  -14.4049   17.6330 H         1 UNL1        0.0000
     34 H          39.6867  -14.9558   17.5205 H         1 UNL1        0.0000
     35 H          38.8682  -16.0261   15.5273 H         1 UNL1        0.0000
     36 H          40.2973  -16.5592   13.6777 H         1 UNL1        0.0000
     37 H          42.7163  -16.2186   11.4385 H         1 UNL1        0.0000
     38 H          41.3589  -16.9364   12.2901 H         1 UNL1        0.0000
     39 H          42.6920  -18.2510   10.1455 H         1 UNL1        0.0000
     40 H          44.2330  -21.2425    7.0391 H         1 UNL1        0.0000
     41 H          45.0681  -22.6059    7.8020 H         1 UNL1        0.0000
     42 H          46.1409  -21.1631    5.8342 H         1 UNL1        0.0000
     43 H          47.0810  -21.9626    7.0645 H         1 UNL1        0.0000
     44 H          47.2677  -18.8012    9.0312 H         1 UNL1        0.0000
     45 H          48.1540  -20.3094    8.8916 H         1 UNL1        0.0000
     46 H          45.9062  -19.8512   10.4148 H         1 UNL1        0.0000
     47 H          46.6368  -21.4130   10.0037 H         1 UNL1        0.0000
     48 H          45.5453  -18.6104    5.3044 H         1 UNL1        0.0000
     49 H          46.9319  -20.1585    3.3514 H         1 UNL1        0.0000
     50 H          48.1012  -20.4230    4.2740 H         1 UNL1        0.0000
     51 H          47.1132  -17.6372    3.2357 H         1 UNL1        0.0000
     52 H          48.3175  -17.4650    4.1419 H         1 UNL1        0.0000
     53 H          44.6368  -20.5694   13.8916 H         1 UNL1        0.0000
     54 H          43.6274  -18.3999   14.1848 H         1 UNL1        0.0000
     55 H          45.5532  -14.9271   14.7026 H         1 UNL1        0.0000
@<TRIPOS>BOND
     1    1   18 1
     2    1   21 1
     3    1   17 am
     4    2   19 1
     5    2   20 1
     6    2   22 am
     7    3    4 1
     8    3   12 2
     9    4    5 am
    10    4   55 1
    11    5   29 2
    12    5    6 1
    13    6    7 ar
    14    6   11 ar
    15    7    8 ar
    16    7   33 1
    17    8   34 1
    18    8    9 ar
    19    9   10 ar
    20    9   35 1
    21   10   11 ar
    22   10   36 1
    23   11   12 1
    24   12   13 1
    25   13   37 1
    26   13   38 1
    27   13   14 1
    28   14   15 ar
    29   14   28 ar
    30   15   39 1
    31   15   16 ar
    32   16   26 ar
    33   16   17 1
    34   17   31 2
    35   18   19 1
    36   18   40 1
    37   18   41 1
    38   19   42 1
    39   19   43 1
    40   20   21 1
    41   20   45 1
    42   20   44 1
    43   21   46 1
    44   21   47 1
    45   22   30 2
    46   22   23 1
    47   23   25 1
    48   23   24 1
    49   23   48 1
    50   24   25 1
    51   24   49 1
    52   24   50 1
    53   25   51 1
    54   25   52 1
    55   26   27 ar
    56   26   32 1
    57   27   28 ar
    58   27   53 1
    59   28   54 1
@<TRIPOS>SUBSTRUCTURE
1 UNL1 1
@<TRIPOS>COMMENT
olaparib
PLANTSproteinTorsions
57
1 51.6103
19 251.2715
33 222.9158
53 2.9445
108 108.0723
228 4.5490
405 323.2977
438 192.9169
479 330.0248
492 216.4530
546 141.0484
641 191.1474
776 239.9520
836 96.0264
905 211.4219
919 177.2896
988 206.7536
1139 285.1922
1332 283.7291
1388 170.2355
1606 105.6576
1642 314.6166
1655 221.9813
1759 163.0890
1952 129.6916
1986 302.5529
2049 170.1008
2207 348.9526
2220 109.2446
2267 188.0596
2305 213.4969
2319 167.2616
2601 92.0219
2653 40.2633
2695 236.6827
2741 70.8637
2763 242.7342
2818 52.9980
2847 105.5273
2913 152.9706
2968 353.4617
2982 350.6922
2996 158.2446
3051 238.6913
3105 242.4248
3240 220.1893
3280 212.0782
3290 201.9596
3365 335.0823
3426 59.5134
3477 158.9286
3534 202.7637
3661 253.0382
3685 264.3411
3741 185.3424
3784 159.8289
3862 173.4088
PLANTSmolcadARTstart hb
PLANTSmolcadARTstart HB
LINES
44.1226 -15.7434 13.6062 44.196 -14.19 12.198 0 255 0 5
47.3837 -17.7341 7.00025 46.2956 -16.2546 6.27929 0 255 0 5
PLANTSmolcadARTstart HBCH
LINES
PLANTSmolcadARTstart HB-CHO
LINES
PLANTSmolcadARTend
PLANTSmolcadARTstart HB_WATER
LINES
PLANTSmolcadARTend

PLANTSmolcadARTend

