@<TRIPOS>MOLECULE
olaparib_entry_00001_conf_33
55 59 1
SMALL
NO_CHARGES


@<TRIPOS>ATOM
      1 N          22.8900  -12.0438   10.0490 N.am      1 UNL1        0.0000
      2 N          24.7791  -10.5316    9.1041 N.am      1 UNL1        0.0000
      3 N          25.2022  -17.9495   10.7914 N.2       1 UNL1        0.0000
      4 N          26.2394  -18.7473   10.8697 N.am      1 UNL1        0.0000
      5 C          26.1669  -20.0698   10.6632 C.2       1 UNL1        0.0000
      6 C          24.9433  -20.6267   10.3527 C.ar      1 UNL1        0.0000
      7 C          24.8079  -22.0003   10.1476 C.ar      1 UNL1        0.0000
      8 C          23.5718  -22.5374    9.8595 C.ar      1 UNL1        0.0000
      9 C          22.5098  -21.6607    9.7902 C.ar      1 UNL1        0.0000
     10 C          22.6296  -20.2958    9.9917 C.ar      1 UNL1        0.0000
     11 C          23.8576  -19.7741   10.2737 C.ar      1 UNL1        0.0000
     12 C          23.9554  -18.4253   10.4875 C.2       1 UNL1        0.0000
     13 C          22.9022  -17.4257   10.3667 C.3       1 UNL1        0.0000
     14 C          23.1447  -16.2937   11.3032 C.ar      1 UNL1        0.0000
     15 C          22.6676  -15.0416   10.8763 C.ar      1 UNL1        0.0000
     16 C          22.8530  -13.9335   11.6677 C.ar      1 UNL1        0.0000
     17 C          22.3655  -12.6014   11.2444 C.2       1 UNL1        0.0000
     18 C          22.4407  -10.7636    9.6060 C.3       1 UNL1        0.0000
     19 C          23.4687  -10.0451    8.7586 C.3       1 UNL1        0.0000
     20 C          25.0473  -11.9527    8.8578 C.3       1 UNL1        0.0000
     21 C          23.8789  -12.7960    9.2993 C.3       1 UNL1        0.0000
     22 C          25.7661   -9.7066    9.6512 C.2       1 UNL1        0.0000
     23 C          25.6474   -8.2807    9.9669 C.3       1 UNL1        0.0000
     24 C          26.0535   -7.3194    8.8728 C.3       1 UNL1        0.0000
     25 C          26.8535   -7.4214   10.0954 C.3       1 UNL1        0.0000
     26 C          23.4924  -13.9738   12.8841 C.ar      1 UNL1        0.0000
     27 C          23.9590  -15.1999   13.3010 C.ar      1 UNL1        0.0000
     28 C          23.7725  -16.3324   12.4954 C.ar      1 UNL1        0.0000
     29 O          27.1502  -20.8508   10.7325 O.2       1 UNL1        0.0000
     30 O          26.9050  -10.2355    9.9131 O.2       1 UNL1        0.0000
     31 O          21.5139  -11.9613   11.9032 O.2       1 UNL1        0.0000
     32 F          23.6523  -12.8443   13.6333 F         1 UNL1        0.0000
     33 H          25.6345  -22.6150   10.2110 H         1 UNL1        0.0000
     34 H          23.4469  -23.5490    9.7035 H         1 UNL1        0.0000
     35 H          21.5755  -22.0423    9.5770 H         1 UNL1        0.0000
     36 H          21.8022  -19.6818    9.9292 H         1 UNL1        0.0000
     37 H          21.9598  -17.8773   10.5968 H         1 UNL1        0.0000
     38 H          22.8975  -17.0483    9.3653 H         1 UNL1        0.0000
     39 H          22.1800  -14.9551    9.9711 H         1 UNL1        0.0000
     40 H          22.2222  -10.1618   10.4636 H         1 UNL1        0.0000
     41 H          21.5723  -10.9180    8.9994 H         1 UNL1        0.0000
     42 H          23.4151   -8.9930    8.9440 H         1 UNL1        0.0000
     43 H          23.2753  -10.2273    7.7219 H         1 UNL1        0.0000
     44 H          25.9191  -12.2468    9.4038 H         1 UNL1        0.0000
     45 H          25.2014  -12.0995    7.8092 H         1 UNL1        0.0000
     46 H          24.2443  -13.5888    9.9182 H         1 UNL1        0.0000
     47 H          23.3995  -13.1663    8.4184 H         1 UNL1        0.0000
     48 H          24.7968   -8.4558   10.5915 H         1 UNL1        0.0000
     49 H          25.4692   -6.4422    8.6870 H         1 UNL1        0.0000
     50 H          26.2552   -7.4058    7.8255 H         1 UNL1        0.0000
     51 H          26.8572   -6.6125   10.7959 H         1 UNL1        0.0000
     52 H          27.8865   -7.6093   10.2977 H         1 UNL1        0.0000
     53 H          24.4463  -15.2852   14.2073 H         1 UNL1        0.0000
     54 H          24.1325  -17.2397   12.8315 H         1 UNL1        0.0000
     55 H          27.1154  -18.3554   11.0907 H         1 UNL1        0.0000
@<TRIPOS>BOND
     1    1   18 1
     2    1   21 1
     3    1   17 am
     4    2   19 1
     5    2   20 1
     6    2   22 am
     7    3    4 1
     8    3   12 2
     9    4    5 am
    10    4   55 1
    11    5   29 2
    12    5    6 1
    13    6    7 ar
    14    6   11 ar
    15    7    8 ar
    16    7   33 1
    17    8   34 1
    18    8    9 ar
    19    9   10 ar
    20    9   35 1
    21   10   11 ar
    22   10   36 1
    23   11   12 1
    24   12   13 1
    25   13   37 1
    26   13   38 1
    27   13   14 1
    28   14   15 ar
    29   14   28 ar
    30   15   39 1
    31   15   16 ar
    32   16   26 ar
    33   16   17 1
    34   17   31 2
    35   18   19 1
    36   18   40 1
    37   18   41 1
    38   19   42 1
    39   19   43 1
    40   20   21 1
    41   20   45 1
    42   20   44 1
    43   21   46 1
    44   21   47 1
    45   22   30 2
    46   22   23 1
    47   23   25 1
    48   23   24 1
    49   23   48 1
    50   24   25 1
    51   24   49 1
    52   24   50 1
    53   25   51 1
    54   25   52 1
    55   26   27 ar
    56   26   32 1
    57   27   28 ar
    58   27   53 1
    59   28   54 1
@<TRIPOS>SUBSTRUCTURE
1 UNL1 1
@<TRIPOS>COMMENT
olaparib
PLANTSproteinTorsions
57
1 224.2810
19 3.3958
33 103.9594
53 35.2387
108 137.5137
228 20.2259
405 235.8301
438 13.7978
479 263.6548
492 170.1764
546 109.6925
641 207.1251
776 14.2549
836 49.5331
905 147.7249
919 126.6187
988 28.7490
1139 168.1631
1332 240.4265
1388 168.0284
1606 209.5349
1642 245.0482
1655 45.1660
1759 168.8055
1952 36.9677
1986 107.9879
2049 44.4830
2207 325.1894
2220 204.1915
2267 42.8609
2305 106.6545
2319 209.0375
2601 226.8123
2653 110.8257
2695 140.4891
2741 78.6413
2763 302.8719
2818 48.5935
2847 240.0832
2913 316.9481
2968 302.5403
2982 95.9910
2996 158.1874
3051 113.6632
3105 173.7805
3240 275.4721
3280 242.5862
3290 206.8995
3365 270.3605
3426 229.0181
3477 172.8739
3534 235.6423
3661 265.9554
3685 264.0808
3741 251.3322
3784 261.8754
3862 322.3215
PLANTSmolcadARTstart hb
PLANTSmolcadARTstart HB
LINES
27.1154 -18.3554 11.0907 28.83 -17.972 10.752 0 255 0 5
26.905 -10.2355 9.91308 27.2434 -11.4432 8.24006 0 255 0 5
PLANTSmolcadARTstart HBCH
LINES
PLANTSmolcadARTstart HB-CHO
LINES
PLANTSmolcadARTend
PLANTSmolcadARTstart HB_WATER
LINES
PLANTSmolcadARTend

PLANTSmolcadARTend

