@<TRIPOS>MOLECULE
olaparib_entry_00001_conf_56
55 59 1
SMALL
NO_CHARGES


@<TRIPOS>ATOM
      1 N          24.2552   -5.6704    2.5987 N.am      1 UNL1        0.0000
      2 N          25.6533   -3.5163    2.2066 N.am      1 UNL1        0.0000
      3 N          28.2613   -5.8508    6.9618 N.2       1 UNL1        0.0000
      4 N          28.3098   -5.0019    7.9596 N.am      1 UNL1        0.0000
      5 C          27.7234   -5.2255    9.1441 C.2       1 UNL1        0.0000
      6 C          27.0324   -6.4052    9.3303 C.ar      1 UNL1        0.0000
      7 C          26.3868   -6.6795   10.5365 C.ar      1 UNL1        0.0000
      8 C          25.6844   -7.8551   10.6926 C.ar      1 UNL1        0.0000
      9 C          25.6587   -8.7157    9.6156 C.ar      1 UNL1        0.0000
     10 C          26.2943   -8.4562    8.4129 C.ar      1 UNL1        0.0000
     11 C          26.9888   -7.2913    8.2698 C.ar      1 UNL1        0.0000
     12 C          27.5966   -7.0424    7.0685 C.2       1 UNL1        0.0000
     13 C          27.6750   -7.9233    5.9105 C.3       1 UNL1        0.0000
     14 C          26.3113   -8.2815    5.4317 C.ar      1 UNL1        0.0000
     15 C          25.6150   -7.2575    4.7652 C.ar      1 UNL1        0.0000
     16 C          24.3445   -7.4887    4.2952 C.ar      1 UNL1        0.0000
     17 C          23.5846   -6.4301    3.5927 C.2       1 UNL1        0.0000
     18 C          23.5544   -4.6443    1.8964 C.3       1 UNL1        0.0000
     19 C          24.4729   -3.5561    1.3832 C.3       1 UNL1        0.0000
     20 C          26.4971   -4.7162    2.2182 C.3       1 UNL1        0.0000
     21 C          25.6494   -5.9583    2.3176 C.3       1 UNL1        0.0000
     22 C          25.9990   -2.3971    2.9696 C.2       1 UNL1        0.0000
     23 C          25.2568   -1.1380    3.0737 C.3       1 UNL1        0.0000
     24 C          26.0589    0.1276    2.8718 C.3       1 UNL1        0.0000
     25 C          25.5082   -0.1905    4.1911 C.3       1 UNL1        0.0000
     26 C          23.6943   -8.6914    4.4391 C.ar      1 UNL1        0.0000
     27 C          24.3767   -9.6931    5.0917 C.ar      1 UNL1        0.0000
     28 C          25.6729   -9.4602    5.5734 C.ar      1 UNL1        0.0000
     29 O          27.7599   -4.4245   10.1131 O.2       1 UNL1        0.0000
     30 O          27.0778   -2.4590    3.6607 O.2       1 UNL1        0.0000
     31 O          22.3822   -6.1897    3.8479 O.2       1 UNL1        0.0000
     32 F          22.4310   -8.8713    3.9548 F         1 UNL1        0.0000
     33 H          26.4358   -6.0018   11.3133 H         1 UNL1        0.0000
     34 H          25.1998   -8.0802   11.5744 H         1 UNL1        0.0000
     35 H          25.1374   -9.6008    9.7110 H         1 UNL1        0.0000
     36 H          26.2440   -9.1340    7.6361 H         1 UNL1        0.0000
     37 H          28.1987   -8.8161    6.1819 H         1 UNL1        0.0000
     38 H          28.1928   -7.4146    5.1241 H         1 UNL1        0.0000
     39 H          26.0567   -6.3349    4.6297 H         1 UNL1        0.0000
     40 H          22.8379   -4.2042    2.5586 H         1 UNL1        0.0000
     41 H          23.0834   -5.0969    1.0482 H         1 UNL1        0.0000
     42 H          23.9714   -2.6123    1.4272 H         1 UNL1        0.0000
     43 H          24.7447   -3.7601    0.3683 H         1 UNL1        0.0000
     44 H          27.1585   -4.6742    3.0580 H         1 UNL1        0.0000
     45 H          27.0582   -4.7539    1.3078 H         1 UNL1        0.0000
     46 H          26.0350   -6.5732    3.1040 H         1 UNL1        0.0000
     47 H          25.6900   -6.4512    1.3696 H         1 UNL1        0.0000
     48 H          24.3727   -1.5875    2.6728 H         1 UNL1        0.0000
     49 H          25.6497    0.9354    2.3014 H         1 UNL1        0.0000
     50 H          27.0332    0.3539    2.4916 H         1 UNL1        0.0000
     51 H          24.7020    0.3931    4.5842 H         1 UNL1        0.0000
     52 H          25.9256   -0.2850    5.1710 H         1 UNL1        0.0000
     53 H          23.9337  -10.6160    5.2260 H         1 UNL1        0.0000
     54 H          26.1623  -10.2282    6.0595 H         1 UNL1        0.0000
     55 H          28.8019   -4.1583    7.8327 H         1 UNL1        0.0000
@<TRIPOS>BOND
     1    1   18 1
     2    1   21 1
     3    1   17 am
     4    2   19 1
     5    2   20 1
     6    2   22 am
     7    3    4 1
     8    3   12 2
     9    4    5 am
    10    4   55 1
    11    5   29 2
    12    5    6 1
    13    6    7 ar
    14    6   11 ar
    15    7    8 ar
    16    7   33 1
    17    8   34 1
    18    8    9 ar
    19    9   10 ar
    20    9   35 1
    21   10   11 ar
    22   10   36 1
    23   11   12 1
    24   12   13 1
    25   13   37 1
    26   13   38 1
    27   13   14 1
    28   14   15 ar
    29   14   28 ar
    30   15   39 1
    31   15   16 ar
    32   16   26 ar
    33   16   17 1
    34   17   31 2
    35   18   19 1
    36   18   40 1
    37   18   41 1
    38   19   42 1
    39   19   43 1
    40   20   21 1
    41   20   45 1
    42   20   44 1
    43   21   46 1
    44   21   47 1
    45   22   30 2
    46   22   23 1
    47   23   25 1
    48   23   24 1
    49   23   48 1
    50   24   25 1
    51   24   49 1
    52   24   50 1
    53   25   51 1
    54   25   52 1
    55   26   27 ar
    56   26   32 1
    57   27   28 ar
    58   27   53 1
    59   28   54 1
@<TRIPOS>SUBSTRUCTURE
1 UNL1 1
@<TRIPOS>COMMENT
olaparib
PLANTSproteinTorsions
57
1 349.5945
19 65.3840
33 341.0540
53 145.6178
108 64.0234
228 222.9717
405 212.5468
438 27.8414
479 241.2946
492 35.2827
546 150.8655
641 158.4237
776 188.7727
836 174.9588
905 284.4206
919 198.6614
988 46.3720
1139 89.6445
1332 28.2931
1388 166.3345
1606 220.5123
1642 148.6334
1655 145.7208
1759 76.8787
1952 265.3442
1986 224.1982
2049 35.8111
2207 21.2533
2220 26.5374
2267 80.2141
2305 208.9928
2319 118.6474
2601 245.6836
2653 248.2756
2695 2.1602
2741 229.3895
2763 29.4673
2818 30.3534
2847 171.4375
2913 91.7286
2968 290.9135
2982 137.9410
2996 244.4949
3051 131.0309
3105 75.8075
3240 96.4589
3280 205.2149
3290 260.4326
3365 205.4498
3426 34.8207
3477 146.4845
3534 50.2421
3661 301.7767
3685 11.6372
3741 149.5102
3784 82.9884
3862 221.7529
PLANTSmolcadARTstart hb
PLANTSmolcadARTstart HB
LINES
27.0778 -2.45899 3.66065 26.5413 -2.6781 5.39593 0 255 0 5
PLANTSmolcadARTstart HBCH
LINES
PLANTSmolcadARTstart HB-CHO
LINES
PLANTSmolcadARTend
PLANTSmolcadARTstart HB_WATER
LINES
PLANTSmolcadARTend

PLANTSmolcadARTend

