@<TRIPOS>MOLECULE
olaparib_entry_00001_conf_09
55 59 1
SMALL
NO_CHARGES


@<TRIPOS>ATOM
      1 N          23.2910  -10.6410    7.4815 N.am      1 UNL1        0.0000
      2 N          23.5859  -13.1561    8.0610 N.am      1 UNL1        0.0000
      3 N          28.6209   -6.3166    7.8363 N.2       1 UNL1        0.0000
      4 N          29.1409   -5.3136    7.1714 N.am      1 UNL1        0.0000
      5 C          29.2095   -4.0662    7.6574 C.2       1 UNL1        0.0000
      6 C          28.7098   -3.8173    8.9192 C.ar      1 UNL1        0.0000
      7 C          28.7378   -2.5334    9.4650 C.ar      1 UNL1        0.0000
      8 C          28.2134   -2.3040   10.7188 C.ar      1 UNL1        0.0000
      9 C          27.6747   -3.3879   11.3791 C.ar      1 UNL1        0.0000
     10 C          27.6399   -4.6671   10.8496 C.ar      1 UNL1        0.0000
     11 C          28.1638   -4.8838    9.6092 C.ar      1 UNL1        0.0000
     12 C          28.1055   -6.1507    9.0933 C.2       1 UNL1        0.0000
     13 C          27.6183   -7.3576    9.7483 C.3       1 UNL1        0.0000
     14 C          26.1505   -7.5067    9.5469 C.ar      1 UNL1        0.0000
     15 C          25.7667   -8.3674    8.5031 C.ar      1 UNL1        0.0000
     16 C          24.4334   -8.5618    8.2328 C.ar      1 UNL1        0.0000
     17 C          23.9979   -9.4587    7.1386 C.2       1 UNL1        0.0000
     18 C          22.8505  -11.5281    6.4539 C.3       1 UNL1        0.0000
     19 C          22.7100  -12.9560    6.9358 C.3       1 UNL1        0.0000
     20 C          23.3248  -12.3503    9.2587 C.3       1 UNL1        0.0000
     21 C          23.0305  -10.9213    8.8813 C.3       1 UNL1        0.0000
     22 C          24.6437  -14.0696    8.0359 C.2       1 UNL1        0.0000
     23 C          25.0383  -14.9305    6.9177 C.3       1 UNL1        0.0000
     24 C          25.0104  -14.2960    5.5455 C.3       1 UNL1        0.0000
     25 C          24.0516  -15.3490    5.8877 C.3       1 UNL1        0.0000
     26 C          23.4239   -7.9514    8.9387 C.ar      1 UNL1        0.0000
     27 C          23.8007   -7.1091    9.9602 C.ar      1 UNL1        0.0000
     28 C          25.1603   -6.9077   10.2381 C.ar      1 UNL1        0.0000
     29 O          29.7055   -3.0919    7.0357 O.2       1 UNL1        0.0000
     30 O          25.3585  -14.1808    9.0951 O.2       1 UNL1        0.0000
     31 O          24.2326   -9.2063    5.9345 O.2       1 UNL1        0.0000
     32 F          22.1135   -8.1766    8.6309 F         1 UNL1        0.0000
     33 H          29.1522   -1.7545    8.9296 H         1 UNL1        0.0000
     34 H          28.2230   -1.3643   11.1432 H         1 UNL1        0.0000
     35 H          27.2756   -3.2377   12.3185 H         1 UNL1        0.0000
     36 H          27.2242   -5.4453   11.3851 H         1 UNL1        0.0000
     37 H          27.8257   -7.2978   10.7963 H         1 UNL1        0.0000
     38 H          28.1118   -8.2056    9.3208 H         1 UNL1        0.0000
     39 H          26.4843   -8.8514    7.9414 H         1 UNL1        0.0000
     40 H          23.5608  -11.5046    5.6536 H         1 UNL1        0.0000
     41 H          21.8836  -11.1979    6.1343 H         1 UNL1        0.0000
     42 H          22.9766  -13.6289    6.1482 H         1 UNL1        0.0000
     43 H          21.6970  -13.1425    7.2265 H         1 UNL1        0.0000
     44 H          24.1844  -12.3757    9.8951 H         1 UNL1        0.0000
     45 H          22.4754  -12.7538    9.7692 H         1 UNL1        0.0000
     46 H          23.6434  -10.2773    9.4770 H         1 UNL1        0.0000
     47 H          21.9889  -10.7519    9.0535 H         1 UNL1        0.0000
     48 H          25.7357  -15.4625    7.5300 H         1 UNL1        0.0000
     49 H          25.7973  -14.4946    4.8479 H         1 UNL1        0.0000
     50 H          24.9366  -13.2946    5.1758 H         1 UNL1        0.0000
     51 H          24.1369  -16.3130    5.4311 H         1 UNL1        0.0000
     52 H          22.9853  -15.4244    5.8618 H         1 UNL1        0.0000
     53 H          23.0816   -6.6258   10.5219 H         1 UNL1        0.0000
     54 H          25.4156   -6.2707   11.0092 H         1 UNL1        0.0000
     55 H          29.4995   -5.4854    6.2704 H         1 UNL1        0.0000
@<TRIPOS>BOND
     1    1   18 1
     2    1   21 1
     3    1   17 am
     4    2   19 1
     5    2   20 1
     6    2   22 am
     7    3    4 1
     8    3   12 2
     9    4    5 am
    10    4   55 1
    11    5   29 2
    12    5    6 1
    13    6    7 ar
    14    6   11 ar
    15    7    8 ar
    16    7   33 1
    17    8   34 1
    18    8    9 ar
    19    9   10 ar
    20    9   35 1
    21   10   11 ar
    22   10   36 1
    23   11   12 1
    24   12   13 1
    25   13   37 1
    26   13   38 1
    27   13   14 1
    28   14   15 ar
    29   14   28 ar
    30   15   39 1
    31   15   16 ar
    32   16   26 ar
    33   16   17 1
    34   17   31 2
    35   18   19 1
    36   18   40 1
    37   18   41 1
    38   19   42 1
    39   19   43 1
    40   20   21 1
    41   20   45 1
    42   20   44 1
    43   21   46 1
    44   21   47 1
    45   22   30 2
    46   22   23 1
    47   23   25 1
    48   23   24 1
    49   23   48 1
    50   24   25 1
    51   24   49 1
    52   24   50 1
    53   25   51 1
    54   25   52 1
    55   26   27 ar
    56   26   32 1
    57   27   28 ar
    58   27   53 1
    59   28   54 1
@<TRIPOS>SUBSTRUCTURE
1 UNL1 1
@<TRIPOS>COMMENT
olaparib
PLANTSproteinTorsions
57
1 204.1407
19 344.8457
33 22.4614
53 37.0140
108 97.3970
228 315.9688
405 238.7064
438 112.4747
479 232.5209
492 33.1693
546 190.0349
641 136.5628
776 198.8647
836 256.2536
905 206.6031
919 261.5910
988 93.4275
1139 131.0088
1332 223.4658
1388 144.7315
1606 98.0393
1642 38.8709
1655 137.2066
1759 43.5511
1952 271.0487
1986 271.2086
2049 271.3443
2207 265.3206
2220 260.5587
2267 296.8371
2305 293.7207
2319 281.1245
2601 170.4644
2653 183.7754
2695 27.7092
2741 215.2966
2763 45.8729
2818 263.8176
2847 128.0289
2913 251.2990
2968 155.8967
2982 240.6284
2996 292.5417
3051 146.9194
3105 82.5749
3240 148.2641
3280 132.8047
3290 262.1075
3365 185.2243
3426 194.9407
3477 239.0825
3534 119.6140
3661 90.4727
3685 224.5923
3741 187.8693
3784 105.4382
3862 336.3658
PLANTSmolcadARTstart hb
PLANTSmolcadARTstart HB
LINES
29.4995 -5.48536 6.27043 29.834 -6.332 4.456 0 255 0 5
PLANTSmolcadARTstart HBCH
LINES
PLANTSmolcadARTstart HB-CHO
LINES
PLANTSmolcadARTend
PLANTSmolcadARTstart HB_WATER
LINES
PLANTSmolcadARTend

PLANTSmolcadARTend

