@<TRIPOS>MOLECULE
olaparib_entry_00001_conf_73
55 59 1
SMALL
NO_CHARGES


@<TRIPOS>ATOM
      1 N          24.6868   -9.7190    5.7191 N.am      1 UNL1        0.0000
      2 N          25.8958   -7.9988    4.1935 N.am      1 UNL1        0.0000
      3 N          24.4025  -11.5469   12.7925 N.2       1 UNL1        0.0000
      4 N          23.8566  -12.5028   13.5045 N.am      1 UNL1        0.0000
      5 C          23.8591  -13.7903   13.1315 C.2       1 UNL1        0.0000
      6 C          24.4639  -14.1348   11.9402 C.ar      1 UNL1        0.0000
      7 C          24.4776  -15.4572   11.4949 C.ar      1 UNL1        0.0000
      8 C          25.0690  -15.7749   10.2912 C.ar      1 UNL1        0.0000
      9 C          25.6274  -14.7369    9.5757 C.ar      1 UNL1        0.0000
     10 C          25.6208  -13.4203   10.0051 C.ar      1 UNL1        0.0000
     11 C          25.0353  -13.1170   11.1989 C.ar      1 UNL1        0.0000
     12 C          25.0220  -11.8082   11.6004 C.2       1 UNL1        0.0000
     13 C          25.6452  -10.6679   10.9412 C.3       1 UNL1        0.0000
     14 C          24.6384   -9.9031   10.1546 C.ar      1 UNL1        0.0000
     15 C          24.5516  -10.2396    8.7920 C.ar      1 UNL1        0.0000
     16 C          23.6585   -9.5813    7.9809 C.ar      1 UNL1        0.0000
     17 C          23.5461   -9.9103    6.5420 C.2       1 UNL1        0.0000
     18 C          24.6185  -10.0296    4.3277 C.3       1 UNL1        0.0000
     19 C          25.5994   -9.2260    3.5012 C.3       1 UNL1        0.0000
     20 C          26.5468   -8.1143    5.5030 C.3       1 UNL1        0.0000
     21 C          25.9059   -9.2082    6.3179 C.3       1 UNL1        0.0000
     22 C          25.5859   -6.7435    3.6623 C.2       1 UNL1        0.0000
     23 C          24.9278   -6.4660    2.3828 C.3       1 UNL1        0.0000
     24 C          25.6070   -7.0184    1.1500 C.3       1 UNL1        0.0000
     25 C          25.5571   -5.5721    1.3756 C.3       1 UNL1        0.0000
     26 C          22.8214   -8.5880    8.4310 C.ar      1 UNL1        0.0000
     27 C          22.9072   -8.2594    9.7650 C.ar      1 UNL1        0.0000
     28 C          23.8181   -8.9284   10.5951 C.ar      1 UNL1        0.0000
     29 O          23.3422  -14.7210   13.8011 O.2       1 UNL1        0.0000
     30 O          25.9024   -5.7107    4.3540 O.2       1 UNL1        0.0000
     31 O          22.4862  -10.3473    6.0375 O.2       1 UNL1        0.0000
     32 F          21.9515   -7.9632    7.5850 F         1 UNL1        0.0000
     33 H          24.0451  -16.1986   12.0678 H         1 UNL1        0.0000
     34 H          25.0920  -16.7446    9.9415 H         1 UNL1        0.0000
     35 H          26.0741  -14.9529    8.6712 H         1 UNL1        0.0000
     36 H          26.0526  -12.6792    9.4311 H         1 UNL1        0.0000
     37 H          26.4137  -11.0178   10.2839 H         1 UNL1        0.0000
     38 H          26.0610  -10.0228   11.6870 H         1 UNL1        0.0000
     39 H          25.1571  -10.9784    8.4020 H         1 UNL1        0.0000
     40 H          23.6276   -9.8243    3.9793 H         1 UNL1        0.0000
     41 H          24.8712  -11.0638    4.2147 H         1 UNL1        0.0000
     42 H          25.1694   -9.0060    2.5468 H         1 UNL1        0.0000
     43 H          26.4986   -9.7884    3.3578 H         1 UNL1        0.0000
     44 H          26.4535   -7.1859    6.0264 H         1 UNL1        0.0000
     45 H          27.5794   -8.3536    5.3567 H         1 UNL1        0.0000
     46 H          25.6719   -8.8198    7.2872 H         1 UNL1        0.0000
     47 H          26.6012  -10.0187    6.3702 H         1 UNL1        0.0000
     48 H          23.9592   -6.5002    2.8356 H         1 UNL1        0.0000
     49 H          25.0227   -7.4589    0.3691 H         1 UNL1        0.0000
     50 H          26.3845   -7.7310    0.9691 H         1 UNL1        0.0000
     51 H          24.9414   -4.9588    0.7513 H         1 UNL1        0.0000
     52 H          26.2934   -4.7980    1.4202 H         1 UNL1        0.0000
     53 H          22.3002   -7.5202   10.1541 H         1 UNL1        0.0000
     54 H          23.8625   -8.6624   11.5915 H         1 UNL1        0.0000
     55 H          23.4237  -12.2629   14.3559 H         1 UNL1        0.0000
@<TRIPOS>BOND
     1    1   18 1
     2    1   21 1
     3    1   17 am
     4    2   19 1
     5    2   20 1
     6    2   22 am
     7    3    4 1
     8    3   12 2
     9    4    5 am
    10    4   55 1
    11    5   29 2
    12    5    6 1
    13    6    7 ar
    14    6   11 ar
    15    7    8 ar
    16    7   33 1
    17    8   34 1
    18    8    9 ar
    19    9   10 ar
    20    9   35 1
    21   10   11 ar
    22   10   36 1
    23   11   12 1
    24   12   13 1
    25   13   37 1
    26   13   38 1
    27   13   14 1
    28   14   15 ar
    29   14   28 ar
    30   15   39 1
    31   15   16 ar
    32   16   26 ar
    33   16   17 1
    34   17   31 2
    35   18   19 1
    36   18   40 1
    37   18   41 1
    38   19   42 1
    39   19   43 1
    40   20   21 1
    41   20   45 1
    42   20   44 1
    43   21   46 1
    44   21   47 1
    45   22   30 2
    46   22   23 1
    47   23   25 1
    48   23   24 1
    49   23   48 1
    50   24   25 1
    51   24   49 1
    52   24   50 1
    53   25   51 1
    54   25   52 1
    55   26   27 ar
    56   26   32 1
    57   27   28 ar
    58   27   53 1
    59   28   54 1
@<TRIPOS>SUBSTRUCTURE
1 UNL1 1
@<TRIPOS>COMMENT
olaparib
PLANTSproteinTorsions
57
1 289.3917
19 58.2091
33 35.5703
53 37.6498
108 27.3707
228 113.8070
405 203.7213
438 224.0567
479 48.4119
492 187.4395
546 60.0812
641 160.6614
776 222.0549
836 201.8634
905 6.0167
919 104.2309
988 222.2267
1139 143.6114
1332 95.2689
1388 96.7465
1606 10.2027
1642 110.3602
1655 102.5323
1759 125.0801
1952 269.5671
1986 87.4927
2049 54.4626
2207 198.4877
2220 134.8033
2267 133.3946
2305 200.0564
2319 236.8152
2601 34.6429
2653 52.4137
2695 236.3275
2741 348.5319
2763 46.3230
2818 329.4832
2847 7.4296
2913 100.2966
2968 77.9297
2982 321.3877
2996 241.1673
3051 180.4209
3105 86.1020
3240 112.7948
3280 138.0553
3290 103.8393
3365 150.5396
3426 203.8704
3477 216.3095
3534 189.4670
3661 78.5081
3685 191.3903
3741 88.0534
3784 70.8328
3862 161.0078
PLANTSmolcadARTstart hb
PLANTSmolcadARTstart HB
LINES
PLANTSmolcadARTstart HBCH
LINES
PLANTSmolcadARTstart HB-CHO
LINES
PLANTSmolcadARTend
PLANTSmolcadARTstart HB_WATER
LINES
PLANTSmolcadARTend

PLANTSmolcadARTend

