@<TRIPOS>MOLECULE
olaparib_entry_00001_conf_88
55 59 1
SMALL
NO_CHARGES


@<TRIPOS>ATOM
      1 N          23.4308   -8.9549    4.1708 N.am      1 UNL1        0.0000
      2 N          21.0481   -9.2289    5.1689 N.am      1 UNL1        0.0000
      3 N          25.0043   -8.5070    8.8880 N.2       1 UNL1        0.0000
      4 N          23.9163   -8.8616    9.5276 N.am      1 UNL1        0.0000
      5 C          23.9109   -9.7464   10.5345 C.2       1 UNL1        0.0000
      6 C          25.1056  -10.3171   10.9228 C.ar      1 UNL1        0.0000
      7 C          25.1538  -11.2585   11.9516 C.ar      1 UNL1        0.0000
      8 C          26.3555  -11.8314   12.3084 C.ar      1 UNL1        0.0000
      9 C          27.4723  -11.4301   11.6062 C.ar      1 UNL1        0.0000
     10 C          27.4391  -10.4974   10.5831 C.ar      1 UNL1        0.0000
     11 C          26.2453   -9.9347   10.2397 C.ar      1 UNL1        0.0000
     12 C          26.2274   -9.0275    9.2144 C.2       1 UNL1        0.0000
     13 C          27.3646   -8.5009    8.4710 C.3       1 UNL1        0.0000
     14 C          26.9277   -7.9764    7.1477 C.ar      1 UNL1        0.0000
     15 C          26.1029   -8.8343    6.3985 C.ar      1 UNL1        0.0000
     16 C          25.6565   -8.4431    5.1590 C.ar      1 UNL1        0.0000
     17 C          24.7901   -9.3250    4.3448 C.2       1 UNL1        0.0000
     18 C          22.5656   -9.7775    3.3885 C.3       1 UNL1        0.0000
     19 C          21.1128   -9.6470    3.7926 C.3       1 UNL1        0.0000
     20 C          21.6256   -7.9202    5.4944 C.3       1 UNL1        0.0000
     21 C          22.9494   -7.7380    4.7977 C.3       1 UNL1        0.0000
     22 C          20.4675  -10.0174    6.1666 C.2       1 UNL1        0.0000
     23 C          19.8660  -11.3434    6.0033 C.3       1 UNL1        0.0000
     24 C          18.7309  -11.6812    6.9433 C.3       1 UNL1        0.0000
     25 C          20.0105  -12.3850    7.0539 C.3       1 UNL1        0.0000
     26 C          25.9739   -7.2322    4.5906 C.ar      1 UNL1        0.0000
     27 C          26.7813   -6.3932    5.3249 C.ar      1 UNL1        0.0000
     28 C          27.2394   -6.7897    6.5895 C.ar      1 UNL1        0.0000
     29 O          22.8784  -10.0980   11.1607 O.2       1 UNL1        0.0000
     30 O          20.4502   -9.5481    7.3602 O.2       1 UNL1        0.0000
     31 O          25.2179  -10.3748    3.8122 O.2       1 UNL1        0.0000
     32 F          25.5057   -6.8899    3.3552 F         1 UNL1        0.0000
     33 H          24.2887  -11.5259   12.4467 H         1 UNL1        0.0000
     34 H          26.4163  -12.5288   13.0655 H         1 UNL1        0.0000
     35 H          28.3818  -11.8477   11.8565 H         1 UNL1        0.0000
     36 H          28.3046  -10.2313   10.0876 H         1 UNL1        0.0000
     37 H          28.0800   -9.2824    8.3213 H         1 UNL1        0.0000
     38 H          27.8021   -7.7004    9.0306 H         1 UNL1        0.0000
     39 H          25.8339   -9.7552    6.7782 H         1 UNL1        0.0000
     40 H          22.8642  -10.7984    3.5071 H         1 UNL1        0.0000
     41 H          22.6483   -9.4569    2.3704 H         1 UNL1        0.0000
     42 H          20.6224  -10.5909    3.6799 H         1 UNL1        0.0000
     43 H          20.6269   -8.9245    3.1703 H         1 UNL1        0.0000
     44 H          21.7729   -7.8529    6.5519 H         1 UNL1        0.0000
     45 H          20.9548   -7.1541    5.1655 H         1 UNL1        0.0000
     46 H          23.6732   -7.4170    5.5177 H         1 UNL1        0.0000
     47 H          22.8080   -7.0135    4.0242 H         1 UNL1        0.0000
     48 H          20.0432  -11.3305    4.9484 H         1 UNL1        0.0000
     49 H          17.8670  -12.1954    6.5764 H         1 UNL1        0.0000
     50 H          18.1124  -11.1229    7.6147 H         1 UNL1        0.0000
     51 H          20.0748  -13.4160    6.7746 H         1 UNL1        0.0000
     52 H          20.7043  -12.5513    7.8504 H         1 UNL1        0.0000
     53 H          27.0493   -5.4716    4.9440 H         1 UNL1        0.0000
     54 H          27.8438   -6.1418    7.1190 H         1 UNL1        0.0000
     55 H          23.0607   -8.4573    9.2550 H         1 UNL1        0.0000
@<TRIPOS>BOND
     1    1   18 1
     2    1   21 1
     3    1   17 am
     4    2   19 1
     5    2   20 1
     6    2   22 am
     7    3    4 1
     8    3   12 2
     9    4    5 am
    10    4   55 1
    11    5   29 2
    12    5    6 1
    13    6    7 ar
    14    6   11 ar
    15    7    8 ar
    16    7   33 1
    17    8   34 1
    18    8    9 ar
    19    9   10 ar
    20    9   35 1
    21   10   11 ar
    22   10   36 1
    23   11   12 1
    24   12   13 1
    25   13   37 1
    26   13   38 1
    27   13   14 1
    28   14   15 ar
    29   14   28 ar
    30   15   39 1
    31   15   16 ar
    32   16   26 ar
    33   16   17 1
    34   17   31 2
    35   18   19 1
    36   18   40 1
    37   18   41 1
    38   19   42 1
    39   19   43 1
    40   20   21 1
    41   20   45 1
    42   20   44 1
    43   21   46 1
    44   21   47 1
    45   22   30 2
    46   22   23 1
    47   23   25 1
    48   23   24 1
    49   23   48 1
    50   24   25 1
    51   24   49 1
    52   24   50 1
    53   25   51 1
    54   25   52 1
    55   26   27 ar
    56   26   32 1
    57   27   28 ar
    58   27   53 1
    59   28   54 1
@<TRIPOS>SUBSTRUCTURE
1 UNL1 1
@<TRIPOS>COMMENT
olaparib
PLANTSproteinTorsions
57
1 209.7064
19 36.7068
33 3.4500
53 33.0007
108 14.2472
228 9.2444
405 17.2252
438 19.4439
479 193.4558
492 235.1755
546 157.5413
641 218.3827
776 246.8644
836 250.4208
905 130.1192
919 53.6444
988 120.3098
1139 48.1676
1332 17.6673
1388 269.1162
1606 150.4012
1642 242.1251
1655 41.6313
1759 159.3482
1952 249.9347
1986 151.4445
2049 342.8399
2207 333.8555
2220 322.4967
2267 142.4002
2305 207.7607
2319 156.8559
2601 208.0774
2653 146.9560
2695 100.6018
2741 146.5497
2763 61.8010
2818 3.4298
2847 235.2278
2913 311.8334
2968 87.5552
2982 36.5949
2996 303.2121
3051 95.6953
3105 159.3933
3240 233.1053
3280 107.1776
3290 249.6526
3365 249.3656
3426 175.2156
3477 170.5623
3534 257.6750
3661 33.4002
3685 155.9698
3741 247.8875
3784 60.1506
3862 237.4906
PLANTSmolcadARTstart hb
PLANTSmolcadARTstart HB
LINES
PLANTSmolcadARTstart HBCH
LINES
PLANTSmolcadARTstart HB-CHO
LINES
PLANTSmolcadARTend
PLANTSmolcadARTstart HB_WATER
LINES
PLANTSmolcadARTend

PLANTSmolcadARTend

