@<TRIPOS>MOLECULE
olaparib_entry_00001_conf_21
55 59 1
SMALL
NO_CHARGES


@<TRIPOS>ATOM
      1 N          24.3745  -10.1424    8.2150 N.am      1 UNL1        0.0000
      2 N          23.3477   -9.3467    5.9653 N.am      1 UNL1        0.0000
      3 N          26.7797   -3.5407   12.0387 N.2       1 UNL1        0.0000
      4 N          27.7362   -2.6482   12.1233 N.am      1 UNL1        0.0000
      5 C          28.7181   -2.5349   11.2178 C.2       1 UNL1        0.0000
      6 C          28.7299   -3.3969   10.1405 C.ar      1 UNL1        0.0000
      7 C          29.7398   -3.3356    9.1795 C.ar      1 UNL1        0.0000
      8 C          29.7432   -4.2208    8.1232 C.ar      1 UNL1        0.0000
      9 C          28.7194   -5.1433    8.0772 C.ar      1 UNL1        0.0000
     10 C          27.7111   -5.2158    9.0238 C.ar      1 UNL1        0.0000
     11 C          27.7156   -4.3335   10.0637 C.ar      1 UNL1        0.0000
     12 C          26.7216   -4.4302   11.0002 C.2       1 UNL1        0.0000
     13 C          25.5720   -5.3254   10.9896 C.3       1 UNL1        0.0000
     14 C          26.0119   -6.7412   10.8508 C.ar      1 UNL1        0.0000
     15 C          25.0535   -7.6241   10.3221 C.ar      1 UNL1        0.0000
     16 C          25.3624   -8.9541   10.1655 C.ar      1 UNL1        0.0000
     17 C          24.3740   -9.9089    9.6151 C.2       1 UNL1        0.0000
     18 C          23.4397  -11.0597    7.6479 C.3       1 UNL1        0.0000
     19 C          23.1207  -10.7489    6.2013 C.3       1 UNL1        0.0000
     20 C          24.7193   -8.8564    6.1392 C.3       1 UNL1        0.0000
     21 C          25.3345   -9.4366    7.3866 C.3       1 UNL1        0.0000
     22 C          22.3234   -8.4734    5.5882 C.2       1 UNL1        0.0000
     23 C          20.9103   -8.8062    5.3893 C.3       1 UNL1        0.0000
     24 C          19.9785   -8.4683    6.5312 C.3       1 UNL1        0.0000
     25 C          20.2523   -9.8675    6.1957 C.3       1 UNL1        0.0000
     26 C          26.5831   -9.4896   10.5018 C.ar      1 UNL1        0.0000
     27 C          27.5204   -8.6244   11.0193 C.ar      1 UNL1        0.0000
     28 C          27.2083   -7.2670   11.1813 C.ar      1 UNL1        0.0000
     29 O          29.6430   -1.6850   11.2810 O.2       1 UNL1        0.0000
     30 O          22.6326   -7.2443    5.3909 O.2       1 UNL1        0.0000
     31 O          23.5484  -10.5087   10.3414 O.2       1 UNL1        0.0000
     32 F          26.8411  -10.8185   10.3277 F         1 UNL1        0.0000
     33 H          30.4849   -2.6261    9.2593 H         1 UNL1        0.0000
     34 H          30.4783   -4.1948    7.4006 H         1 UNL1        0.0000
     35 H          28.7039   -5.8161    7.2953 H         1 UNL1        0.0000
     36 H          26.9669   -5.9264    8.9440 H         1 UNL1        0.0000
     37 H          24.9358   -5.0721   10.1673 H         1 UNL1        0.0000
     38 H          25.0429   -5.2189   11.9137 H         1 UNL1        0.0000
     39 H          24.1209   -7.2745   10.0529 H         1 UNL1        0.0000
     40 H          22.5331  -11.0193    8.2152 H         1 UNL1        0.0000
     41 H          23.8829  -12.0337    7.6794 H         1 UNL1        0.0000
     42 H          22.0974  -10.9866    5.9999 H         1 UNL1        0.0000
     43 H          23.7476  -11.3315    5.5586 H         1 UNL1        0.0000
     44 H          24.7052   -7.7896    6.2180 H         1 UNL1        0.0000
     45 H          25.3042   -9.1566    5.2949 H         1 UNL1        0.0000
     46 H          25.7585   -8.6396    7.9612 H         1 UNL1        0.0000
     47 H          26.0747  -10.1447    7.0800 H         1 UNL1        0.0000
     48 H          20.9783   -8.6133    4.3393 H         1 UNL1        0.0000
     49 H          19.0152   -8.0480    6.3295 H         1 UNL1        0.0000
     50 H          20.0518   -7.8730    7.4173 H         1 UNL1        0.0000
     51 H          19.4830  -10.4680    5.7567 H         1 UNL1        0.0000
     52 H          20.6047  -10.7122    6.7484 H         1 UNL1        0.0000
     53 H          28.4536   -8.9755   11.2878 H         1 UNL1        0.0000
     54 H          27.9291   -6.6398   11.5719 H         1 UNL1        0.0000
     55 H          27.7328   -2.0300   12.8899 H         1 UNL1        0.0000
@<TRIPOS>BOND
     1    1   18 1
     2    1   21 1
     3    1   17 am
     4    2   19 1
     5    2   20 1
     6    2   22 am
     7    3    4 1
     8    3   12 2
     9    4    5 am
    10    4   55 1
    11    5   29 2
    12    5    6 1
    13    6    7 ar
    14    6   11 ar
    15    7    8 ar
    16    7   33 1
    17    8   34 1
    18    8    9 ar
    19    9   10 ar
    20    9   35 1
    21   10   11 ar
    22   10   36 1
    23   11   12 1
    24   12   13 1
    25   13   37 1
    26   13   38 1
    27   13   14 1
    28   14   15 ar
    29   14   28 ar
    30   15   39 1
    31   15   16 ar
    32   16   26 ar
    33   16   17 1
    34   17   31 2
    35   18   19 1
    36   18   40 1
    37   18   41 1
    38   19   42 1
    39   19   43 1
    40   20   21 1
    41   20   45 1
    42   20   44 1
    43   21   46 1
    44   21   47 1
    45   22   30 2
    46   22   23 1
    47   23   25 1
    48   23   24 1
    49   23   48 1
    50   24   25 1
    51   24   49 1
    52   24   50 1
    53   25   51 1
    54   25   52 1
    55   26   27 ar
    56   26   32 1
    57   27   28 ar
    58   27   53 1
    59   28   54 1
@<TRIPOS>SUBSTRUCTURE
1 UNL1 1
@<TRIPOS>COMMENT
olaparib
PLANTSproteinTorsions
57
1 81.8626
19 222.8892
33 265.9722
53 51.1389
108 353.5725
228 195.7570
405 316.8671
438 337.7849
479 109.5178
492 268.0771
546 151.4759
641 348.5189
776 172.3128
836 96.9173
905 258.2115
919 335.0965
988 194.4083
1139 52.3871
1332 358.7304
1388 99.7284
1606 169.0491
1642 332.1960
1655 328.4955
1759 252.2357
1952 221.3815
1986 266.4672
2049 132.8801
2207 91.2780
2220 146.3828
2267 128.5025
2305 245.1946
2319 114.0581
2601 248.8597
2653 241.8337
2695 137.8281
2741 342.5265
2763 95.0599
2818 117.0659
2847 136.9382
2913 157.7749
2968 141.3960
2982 238.3516
2996 357.2185
3051 93.4123
3105 205.8993
3240 75.6856
3280 34.5438
3290 22.6671
3365 200.2801
3426 218.0951
3477 257.1188
3534 208.9808
3661 36.5752
3685 276.4394
3741 220.2066
3784 306.0494
3862 228.5408
PLANTSmolcadARTstart hb
PLANTSmolcadARTstart HB
LINES
PLANTSmolcadARTstart HBCH
LINES
PLANTSmolcadARTstart HB-CHO
LINES
PLANTSmolcadARTend
PLANTSmolcadARTstart HB_WATER
LINES
PLANTSmolcadARTend

PLANTSmolcadARTend

