@<TRIPOS>MOLECULE
olaparib_entry_00001_conf_04
55 59 1
SMALL
NO_CHARGES


@<TRIPOS>ATOM
      1 N          25.6512   -7.0007    3.2832 N.am      1 UNL1        0.0000
      2 N          24.8986   -4.7888    2.1477 N.am      1 UNL1        0.0000
      3 N          28.9064   -5.4429    7.8538 N.2       1 UNL1        0.0000
      4 N          29.2039   -4.2033    8.1593 N.am      1 UNL1        0.0000
      5 C          28.6676   -3.5544    9.2025 C.2       1 UNL1        0.0000
      6 C          27.7562   -4.2170    9.9988 C.ar      1 UNL1        0.0000
      7 C          27.1529   -3.5822   11.0852 C.ar      1 UNL1        0.0000
      8 C          26.2293   -4.2569   11.8540 C.ar      1 UNL1        0.0000
      9 C          25.9460   -5.5572   11.4934 C.ar      1 UNL1        0.0000
     10 C          26.5366   -6.1994   10.4180 C.ar      1 UNL1        0.0000
     11 C          27.4512   -5.5237    9.6651 C.ar      1 UNL1        0.0000
     12 C          28.0126   -6.1673    8.5951 C.2       1 UNL1        0.0000
     13 C          27.8208   -7.5534    8.1886 C.3       1 UNL1        0.0000
     14 C          26.4737   -7.7397    7.5822 C.ar      1 UNL1        0.0000
     15 C          26.4491   -7.8373    6.1796 C.ar      1 UNL1        0.0000
     16 C          25.2508   -8.0002    5.5267 C.ar      1 UNL1        0.0000
     17 C          25.1918   -8.1026    4.0511 C.2       1 UNL1        0.0000
     18 C          25.6146   -7.0641    1.8579 C.3       1 UNL1        0.0000
     19 C          25.5128   -5.6976    1.2150 C.3       1 UNL1        0.0000
     20 C          25.6159   -4.5378    3.4024 C.3       1 UNL1        0.0000
     21 C          26.1519   -5.8258    3.9724 C.3       1 UNL1        0.0000
     22 C          23.6748   -4.1634    1.8915 C.2       1 UNL1        0.0000
     23 C          22.8367   -4.3217    0.7001 C.3       1 UNL1        0.0000
     24 C          23.0449   -3.3071   -0.4014 C.3       1 UNL1        0.0000
     25 C          21.7931   -3.3197    0.3588 C.3       1 UNL1        0.0000
     26 C          24.0419   -8.0766    6.1769 C.ar      1 UNL1        0.0000
     27 C          24.0672   -7.9809    7.5499 C.ar      1 UNL1        0.0000
     28 C          25.2880   -7.8136    8.2191 C.ar      1 UNL1        0.0000
     29 O          28.9411   -2.3665    9.5122 O.2       1 UNL1        0.0000
     30 O          23.2187   -3.3618    2.7830 O.2       1 UNL1        0.0000
     31 O          24.7537   -9.1216    3.4692 O.2       1 UNL1        0.0000
     32 F          22.8780   -8.2382    5.4827 F         1 UNL1        0.0000
     33 H          27.3990   -2.6064   11.3138 H         1 UNL1        0.0000
     34 H          25.7706   -3.8092   12.6618 H         1 UNL1        0.0000
     35 H          25.2563   -6.0799   12.0550 H         1 UNL1        0.0000
     36 H          26.2892   -7.1750   10.1892 H         1 UNL1        0.0000
     37 H          27.9121   -8.1876    9.0455 H         1 UNL1        0.0000
     38 H          28.5634   -7.8055    7.4603 H         1 UNL1        0.0000
     39 H          27.3283   -7.7863    5.6420 H         1 UNL1        0.0000
     40 H          24.7661   -7.6459    1.5627 H         1 UNL1        0.0000
     41 H          26.5320   -7.5081    1.5305 H         1 UNL1        0.0000
     42 H          24.9170   -5.7609    0.3289 H         1 UNL1        0.0000
     43 H          26.4895   -5.3457    0.9547 H         1 UNL1        0.0000
     44 H          24.9465   -4.0929    4.1085 H         1 UNL1        0.0000
     45 H          26.4367   -3.8798    3.2066 H         1 UNL1        0.0000
     46 H          25.8674   -5.8884    5.0021 H         1 UNL1        0.0000
     47 H          27.2142   -5.8124    3.8522 H         1 UNL1        0.0000
     48 H          22.8305   -5.3863    0.8051 H         1 UNL1        0.0000
     49 H          23.0533   -3.6216   -1.4242 H         1 UNL1        0.0000
     50 H          23.7902   -2.5717   -0.6223 H         1 UNL1        0.0000
     51 H          20.8876   -3.6362   -0.1155 H         1 UNL1        0.0000
     52 H          21.2514   -2.5858    0.9167 H         1 UNL1        0.0000
     53 H          23.1866   -8.0326    8.0867 H         1 UNL1        0.0000
     54 H          25.2788   -7.7442    9.2490 H         1 UNL1        0.0000
     55 H          29.8540   -3.7254    7.5947 H         1 UNL1        0.0000
@<TRIPOS>BOND
     1    1   18 1
     2    1   21 1
     3    1   17 am
     4    2   19 1
     5    2   20 1
     6    2   22 am
     7    3    4 1
     8    3   12 2
     9    4    5 am
    10    4   55 1
    11    5   29 2
    12    5    6 1
    13    6    7 ar
    14    6   11 ar
    15    7    8 ar
    16    7   33 1
    17    8   34 1
    18    8    9 ar
    19    9   10 ar
    20    9   35 1
    21   10   11 ar
    22   10   36 1
    23   11   12 1
    24   12   13 1
    25   13   37 1
    26   13   38 1
    27   13   14 1
    28   14   15 ar
    29   14   28 ar
    30   15   39 1
    31   15   16 ar
    32   16   26 ar
    33   16   17 1
    34   17   31 2
    35   18   19 1
    36   18   40 1
    37   18   41 1
    38   19   42 1
    39   19   43 1
    40   20   21 1
    41   20   45 1
    42   20   44 1
    43   21   46 1
    44   21   47 1
    45   22   30 2
    46   22   23 1
    47   23   25 1
    48   23   24 1
    49   23   48 1
    50   24   25 1
    51   24   49 1
    52   24   50 1
    53   25   51 1
    54   25   52 1
    55   26   27 ar
    56   26   32 1
    57   27   28 ar
    58   27   53 1
    59   28   54 1
@<TRIPOS>SUBSTRUCTURE
1 UNL1 1
@<TRIPOS>COMMENT
olaparib
PLANTSproteinTorsions
57
1 288.2264
19 211.3159
33 235.4407
53 227.7143
108 71.2641
228 25.0426
405 27.5969
438 228.4255
479 232.4926
492 156.8826
546 193.3091
641 93.7498
776 14.8864
836 231.7739
905 27.4062
919 174.5396
988 210.6013
1139 129.9741
1332 93.8219
1388 174.9711
1606 78.7875
1642 296.2346
1655 126.2758
1759 347.6744
1952 324.0826
1986 265.7903
2049 262.9146
2207 334.9492
2220 10.4365
2267 286.0781
2305 202.4223
2319 318.9565
2601 146.6759
2653 186.9457
2695 139.6983
2741 202.4055
2763 39.5280
2818 25.7340
2847 123.1371
2913 71.5167
2968 341.1224
2982 223.0999
2996 284.0729
3051 268.9453
3105 237.9419
3240 138.4825
3280 202.7251
3290 58.5359
3365 195.6829
3426 148.8911
3477 240.6528
3534 106.1707
3661 334.5679
3685 10.2645
3741 180.3959
3784 39.4849
3862 198.2807
PLANTSmolcadARTstart hb
PLANTSmolcadARTstart HB
LINES
PLANTSmolcadARTstart HBCH
LINES
PLANTSmolcadARTstart HB-CHO
LINES
PLANTSmolcadARTend
PLANTSmolcadARTstart HB_WATER
LINES
PLANTSmolcadARTend

PLANTSmolcadARTend

