@<TRIPOS>MOLECULE
olaparib_entry_00001_conf_65
55 59 1
SMALL
NO_CHARGES


@<TRIPOS>ATOM
      1 N          33.5863   -0.2348    0.8233 N.am      1 UNL1        0.0000
      2 N          32.8129    1.2260   -1.1808 N.am      1 UNL1        0.0000
      3 N          28.7109   -0.9176    5.7217 N.2       1 UNL1        0.0000
      4 N          27.4987   -0.4186    5.7330 N.am      1 UNL1        0.0000
      5 C          27.2443    0.8961    5.6724 C.2       1 UNL1        0.0000
      6 C          28.3056    1.7744    5.5944 C.ar      1 UNL1        0.0000
      7 C          28.0978    3.1535    5.5493 C.ar      1 UNL1        0.0000
      8 C          29.1739    4.0128    5.4932 C.ar      1 UNL1        0.0000
      9 C          30.4295    3.4431    5.4863 C.ar      1 UNL1        0.0000
     10 C          30.6503    2.0766    5.5311 C.ar      1 UNL1        0.0000
     11 C          29.5786    1.2349    5.5839 C.ar      1 UNL1        0.0000
     12 C          29.8149   -0.1123    5.6454 C.2       1 UNL1        0.0000
     13 C          31.1000   -0.7954    5.5743 C.3       1 UNL1        0.0000
     14 C          31.2043   -1.5855    4.3165 C.ar      1 UNL1        0.0000
     15 C          32.2678   -1.2333    3.4665 C.ar      1 UNL1        0.0000
     16 C          32.4408   -1.8987    2.2765 C.ar      1 UNL1        0.0000
     17 C          33.5485   -1.5488    1.3589 C.2       1 UNL1        0.0000
     18 C          34.6414    0.1413   -0.0611 C.3       1 UNL1        0.0000
     19 C          34.2420    1.2532   -1.0072 C.3       1 UNL1        0.0000
     20 C          31.9932    1.4639    0.0122 C.3       1 UNL1        0.0000
     21 C          32.5419    0.7030    1.1917 C.3       1 UNL1        0.0000
     22 C          32.2116    0.9847   -2.4195 C.2       1 UNL1        0.0000
     23 C          32.8892    0.7174   -3.6909 C.3       1 UNL1        0.0000
     24 C          33.2962    1.9299   -4.4975 C.3       1 UNL1        0.0000
     25 C          32.2399    1.0418   -4.9882 C.3       1 UNL1        0.0000
     26 C          31.6172   -2.9152    1.8541 C.ar      1 UNL1        0.0000
     27 C          30.5765   -3.2590    2.6869 C.ar      1 UNL1        0.0000
     28 C          30.3965   -2.5815    3.9013 C.ar      1 UNL1        0.0000
     29 O          26.0892    1.3934    5.6807 O.2       1 UNL1        0.0000
     30 O          30.9299    0.9930   -2.4698 O.2       1 UNL1        0.0000
     31 O          34.4416   -2.3695    1.0465 O.2       1 UNL1        0.0000
     32 F          31.8306   -3.5451    0.6623 F         1 UNL1        0.0000
     33 H          27.1373    3.5307    5.5572 H         1 UNL1        0.0000
     34 H          29.0456    5.0354    5.4586 H         1 UNL1        0.0000
     35 H          31.2487    4.0687    5.4460 H         1 UNL1        0.0000
     36 H          31.6113    1.7001    5.5244 H         1 UNL1        0.0000
     37 H          31.1960   -1.4535    6.4126 H         1 UNL1        0.0000
     38 H          31.8810   -0.0638    5.5865 H         1 UNL1        0.0000
     39 H          32.9162   -0.4771    3.7353 H         1 UNL1        0.0000
     40 H          34.9259   -0.7141   -0.6381 H         1 UNL1        0.0000
     41 H          35.4522    0.5018    0.5379 H         1 UNL1        0.0000
     42 H          34.7221    1.1106   -1.9523 H         1 UNL1        0.0000
     43 H          34.5407    2.1981   -0.6028 H         1 UNL1        0.0000
     44 H          30.9910    1.1415   -0.1783 H         1 UNL1        0.0000
     45 H          32.0078    2.5094    0.2397 H         1 UNL1        0.0000
     46 H          31.7422    0.1589    1.6494 H         1 UNL1        0.0000
     47 H          32.9735    1.4163    1.8611 H         1 UNL1        0.0000
     48 H          33.3515   -0.1634   -3.2976 H         1 UNL1        0.0000
     49 H          34.2474    1.9522   -4.9874 H         1 UNL1        0.0000
     50 H          33.3739    2.9788   -4.3007 H         1 UNL1        0.0000
     51 H          32.4213    0.4232   -5.8423 H         1 UNL1        0.0000
     52 H          31.2280    1.1876   -5.3011 H         1 UNL1        0.0000
     53 H          29.9286   -4.0164    2.4169 H         1 UNL1        0.0000
     54 H          29.6080   -2.8588    4.5071 H         1 UNL1        0.0000
     55 H          26.7372   -1.0407    5.7882 H         1 UNL1        0.0000
@<TRIPOS>BOND
     1    1   18 1
     2    1   21 1
     3    1   17 am
     4    2   19 1
     5    2   20 1
     6    2   22 am
     7    3    4 1
     8    3   12 2
     9    4    5 am
    10    4   55 1
    11    5   29 2
    12    5    6 1
    13    6    7 ar
    14    6   11 ar
    15    7    8 ar
    16    7   33 1
    17    8   34 1
    18    8    9 ar
    19    9   10 ar
    20    9   35 1
    21   10   11 ar
    22   10   36 1
    23   11   12 1
    24   12   13 1
    25   13   37 1
    26   13   38 1
    27   13   14 1
    28   14   15 ar
    29   14   28 ar
    30   15   39 1
    31   15   16 ar
    32   16   26 ar
    33   16   17 1
    34   17   31 2
    35   18   19 1
    36   18   40 1
    37   18   41 1
    38   19   42 1
    39   19   43 1
    40   20   21 1
    41   20   45 1
    42   20   44 1
    43   21   46 1
    44   21   47 1
    45   22   30 2
    46   22   23 1
    47   23   25 1
    48   23   24 1
    49   23   48 1
    50   24   25 1
    51   24   49 1
    52   24   50 1
    53   25   51 1
    54   25   52 1
    55   26   27 ar
    56   26   32 1
    57   27   28 ar
    58   27   53 1
    59   28   54 1
@<TRIPOS>SUBSTRUCTURE
1 UNL1 1
@<TRIPOS>COMMENT
olaparib
PLANTSproteinTorsions
57
1 260.4250
19 105.8556
33 208.7299
53 150.2279
108 19.2252
228 40.5034
405 51.3434
438 345.5356
479 42.7950
492 13.3525
546 106.9284
641 306.0006
776 341.5200
836 158.4841
905 43.9062
919 76.4015
988 124.2498
1139 99.7446
1332 236.2658
1388 68.5597
1606 15.7828
1642 329.7140
1655 78.0218
1759 175.7573
1952 263.1393
1986 155.9919
2049 282.3892
2207 277.5637
2220 170.8978
2267 254.3363
2305 220.7789
2319 156.9007
2601 174.5844
2653 52.0443
2695 30.2001
2741 203.8686
2763 141.4349
2818 144.2971
2847 269.6793
2913 75.0356
2968 117.5737
2982 85.8898
2996 65.5848
3051 92.0638
3105 233.5767
3240 270.9951
3280 86.7513
3290 285.1464
3365 195.0133
3426 264.4369
3477 326.3514
3534 319.5095
3661 115.7835
3685 161.2699
3741 158.7995
3784 44.8550
3862 158.5752
PLANTSmolcadARTstart hb
PLANTSmolcadARTstart HB
LINES
26.7372 -1.04073 5.78817 26.855 -3.078 6.256 0 255 0 5
PLANTSmolcadARTstart HBCH
LINES
PLANTSmolcadARTstart HB-CHO
LINES
PLANTSmolcadARTend
PLANTSmolcadARTstart HB_WATER
LINES
PLANTSmolcadARTend

PLANTSmolcadARTend

