MODEL 1
REMARK VINA RESULT:      -5.2      0.000      0.000
REMARK  3 active torsions:
REMARK  status: ('A' for Active; 'I' for Inactive)
REMARK    1  A    between atoms: C_2  and  O_11 
REMARK    2  A    between atoms: C_3  and  O_11 
REMARK    3  A    between atoms: C_8  and  C_9 
ROOT
HETATM    1  C   UNL     1     -47.307 -60.084  10.685  1.00  0.00     0.096 A 
HETATM    2  C   UNL     1     -48.564 -60.087  11.251  1.00  0.00     0.038 A 
HETATM    3  C   UNL     1     -48.884 -59.386  12.397  1.00  0.00     0.003 A 
HETATM    4  C   UNL     1     -47.896 -58.649  13.004  1.00  0.00     0.001 A 
HETATM    5  C   UNL     1     -46.622 -58.611  12.479  1.00  0.00     0.021 A 
HETATM    6  C   UNL     1     -46.337 -59.333  11.319  1.00  0.00     0.074 A 
ENDROOT
BRANCH   1   7
HETATM    7  O   UNL     1     -46.946 -60.763   9.552  1.00  0.00    -0.278 OA
BRANCH   7   8
HETATM    8  C   UNL     1     -47.792 -61.426   8.708  1.00  0.00     0.260 C 
HETATM    9  C   UNL     1     -48.231 -62.824   8.943  1.00  0.00     0.126 C 
HETATM   10  O   UNL     1     -48.173 -60.750   7.704  1.00  0.00    -0.265 OA
ENDBRANCH   7   8
ENDBRANCH   1   7
BRANCH   6  11
HETATM   11  C   UNL     1     -44.978 -59.265  10.797  1.00  0.00     0.212 C 
HETATM   12  O   UNL     1     -44.113 -60.114  11.133  1.00  0.00    -0.644 OA
HETATM   13  O   UNL     1     -44.587 -58.269   9.918  1.00  0.00    -0.644 OA
ENDBRANCH   6  11
TORSDOF 3
ENDMDL
