@<TRIPOS>MOLECULE
ibuprofen_entry_00001_conf_05_protein
34 23 11
SMALL
NO_CHARGES


@<TRIPOS>ATOM
      1 HH         11.8679    9.4520   22.2757 H        19 TYR19       0.2921
      2 OH         11.2460    8.8760   21.7530 O.3      19 TYR19      -0.5068
      3 HZ1        10.1559   -2.2701   32.9307 H        21 LYS21      -0.0901
      4 NZ         10.3990   -2.4490   31.9670 N.4      21 LYS21       0.3781
      5 HZ2        10.0749   -3.3756   31.7312 H        21 LYS21      -0.0901
      6 HZ3        11.4062   -2.4437   31.8941 H        21 LYS21      -0.0901
      7 HG1        -0.9853    6.3721   29.0630 H        29 THR29       0.2099
      8 OG1        -0.2510    6.0340   29.6640 O.3      29 THR29      -0.3897
      9 HZ1         5.2436   -4.6218   29.8675 H        31 LYS31      -0.0901
     10 NZ          4.6160   -4.4070   29.1230 N.4      31 LYS31       0.3781
     11 HZ2         4.1483   -5.2340   28.8222 H        31 LYS31      -0.0901
     12 HZ3         5.1160   -4.0020   28.3609 H        31 LYS31      -0.0901
     13 HZ1        -6.4788    9.2285   25.4704 H        58 LYS58      -0.0901
     14 NZ         -6.3630    9.0730   24.4910 N.4      58 LYS58       0.3781
     15 HZ2        -6.5883    9.9042   23.9869 H        58 LYS58      -0.0901
     16 HZ3        -6.9554    8.3261   24.1949 H        58 LYS58      -0.0901
     17 HG1         0.7787   12.2275   15.6480 H        60 THR60       0.2099
     18 OG1         0.2990   11.6990   16.3590 O.3      60 THR60      -0.3897
     19 HG1         4.6835   13.4951   24.6278 H        74 THR74       0.2099
     20 OG1         3.9650   13.0020   24.1260 O.3      74 THR74      -0.3897
     21 HZ1        -1.0458   17.1259   29.3019 H        79 LYS79      -0.0901
     22 NZ         -0.6110   17.3250   28.4230 N.4      79 LYS79       0.3781
     23 HZ2        -1.3129   17.3943   27.7133 H        79 LYS79      -0.0901
     24 HZ3         0.0248   16.5878   28.1911 H        79 LYS79      -0.0901
     25 HZ1        10.6398   13.4251   32.0121 H       100 LYS100     -0.0901
     26 NZ         11.2370   13.0070   32.6960 N.4     100 LYS100      0.3781
     27 HZ2        11.1837   12.0114   32.6239 H       100 LYS100     -0.0901
     28 HZ3        10.9515   13.2931   33.6097 H       100 LYS100     -0.0901
     29 HG         16.0391   15.7677   22.6455 H       101 SER101      0.2095
     30 OG         16.9020   16.0520   23.0720 O.3     101 SER101     -0.3927
     31 HZ1        17.4449    8.2942   31.0881 H       120 LYS120     -0.0901
     32 NZ         18.3610    7.9960   31.3450 N.4     120 LYS120      0.3781
     33 HZ2        18.3854    7.0033   31.4330 H       120 LYS120     -0.0901
     34 HZ3        18.6304    8.4223   32.2049 H       120 LYS120     -0.0901
@<TRIPOS>BOND
     1   17   18 1
     2    2    1 1
     3   29   30 1
     4   13   14 1
     5   20   19 1
     6   15   14 1
     7   14   16 1
     8   24   22 1
     9   11   10 1
    10   22   21 1
    11   22   23 1
    12   10   12 1
    13   10    9 1
    14    8    7 1
    15   34   32 1
    16   32   33 1
    17   32   31 1
    18    3    4 1
    19   27   26 1
    20    4    5 1
    21    4    6 1
    22   26   28 1
    23   26   25 1
@<TRIPOS>SUBSTRUCTURE
19 TYR19 1
21 LYS21 3
29 THR29 7
31 LYS31 9
58 LYS58 13
60 THR60 17
74 THR74 19
79 LYS79 21
100 LYS100 25
101 SER101 29
120 LYS120 31
@<TRIPOS>COMMENT
