@<TRIPOS>MOLECULE
ibuprofen_entry_00001_conf_07_protein
34 23 11
SMALL
NO_CHARGES


@<TRIPOS>ATOM
      1 HH         11.0589    8.9385   20.7769 H        19 TYR19       0.2921
      2 OH         11.2460    8.8760   21.7530 O.3      19 TYR19      -0.5068
      3 HZ1        10.8232   -3.1946   31.4341 H        21 LYS21      -0.0901
      4 NZ         10.3990   -2.4490   31.9670 N.4      21 LYS21       0.3781
      5 HZ2        11.1130   -2.0386   32.5508 H        21 LYS21      -0.0901
      6 HZ3         9.6999   -2.8570   32.5708 H        21 LYS21      -0.0901
      7 HG1        -0.5089    5.5255   30.4945 H        29 THR29       0.2099
      8 OG1        -0.2510    6.0340   29.6640 O.3      29 THR29      -0.3897
      9 HZ1         5.5214   -3.9942   29.1869 H        31 LYS31      -0.0901
     10 NZ          4.6160   -4.4070   29.1230 N.4      31 LYS31       0.3781
     11 HZ2         4.5742   -5.2261   29.6892 H        31 LYS31      -0.0901
     12 HZ3         4.4121   -4.6377   28.1743 H        31 LYS31      -0.0901
     13 HZ1        -6.7512    9.5028   23.6778 H        58 LYS58      -0.0901
     14 NZ         -6.3630    9.0730   24.4910 N.4      58 LYS58       0.3781
     15 HZ2        -6.8764    8.2474   24.7158 H        58 LYS58      -0.0901
     16 HZ3        -6.3945    9.7109   25.2581 H        58 LYS58      -0.0901
     17 HG1         0.8566   11.0715   16.9160 H        60 THR60       0.2099
     18 OG1         0.2990   11.6990   16.3590 O.3      60 THR60      -0.3897
     19 HG1         3.0619   13.3419   24.4089 H        74 THR74       0.2099
     20 OG1         3.9650   13.0020   24.1260 O.3      74 THR74      -0.3897
     21 HZ1         0.0251   16.5621   28.5441 H        79 LYS79      -0.0901
     22 NZ         -0.6110   17.3250   28.4230 N.4      79 LYS79       0.3781
     23 HZ2        -1.3106   17.2908   29.1375 H        79 LYS79      -0.0901
     24 HZ3        -1.0483   17.2551   27.5256 H        79 LYS79      -0.0901
     25 HZ1        10.6225   13.7860   32.5748 H       100 LYS100     -0.0901
     26 NZ         11.2370   13.0070   32.6960 N.4     100 LYS100      0.3781
     27 HZ2        10.9996   12.2880   32.0433 H       100 LYS100     -0.0901
     28 HZ3        11.1529   12.6559   33.6275 H       100 LYS100     -0.0901
     29 HG         16.4357   15.2920   22.6111 H       101 SER101      0.2095
     30 OG         16.9020   16.0520   23.0720 O.3     101 SER101     -0.3927
     31 HZ1        18.3477    8.6942   32.0566 H       120 LYS120     -0.0901
     32 NZ         18.3610    7.9960   31.3450 N.4     120 LYS120      0.3781
     33 HZ2        17.4538    7.9002   30.9429 H       120 LYS120     -0.0901
     34 HZ3        18.6596    7.1249   31.7267 H       120 LYS120     -0.0901
@<TRIPOS>BOND
     1   17   18 1
     2    2    1 1
     3   29   30 1
     4   13   14 1
     5   20   19 1
     6   15   14 1
     7   14   16 1
     8   24   22 1
     9   11   10 1
    10   22   21 1
    11   22   23 1
    12   10   12 1
    13   10    9 1
    14    8    7 1
    15   34   32 1
    16   32   33 1
    17   32   31 1
    18    3    4 1
    19   27   26 1
    20    4    5 1
    21    4    6 1
    22   26   28 1
    23   26   25 1
@<TRIPOS>SUBSTRUCTURE
19 TYR19 1
21 LYS21 3
29 THR29 7
31 LYS31 9
58 LYS58 13
60 THR60 17
74 THR74 19
79 LYS79 21
100 LYS100 25
101 SER101 29
120 LYS120 31
@<TRIPOS>COMMENT
