@<TRIPOS>MOLECULE
ibuprofen_entry_00001_conf_08_protein
34 23 11
SMALL
NO_CHARGES


@<TRIPOS>ATOM
      1 HH         10.4080    8.9264   21.2174 H        19 TYR19       0.2921
      2 OH         11.2460    8.8760   21.7530 O.3      19 TYR19      -0.5068
      3 HZ1        11.0345   -3.0475   31.4592 H        21 LYS21      -0.0901
      4 NZ         10.3990   -2.4490   31.9670 N.4      21 LYS21       0.3781
      5 HZ2        10.9155   -2.0104   32.7153 H        21 LYS21      -0.0901
      6 HZ3         9.6863   -3.0323   32.3810 H        21 LYS21      -0.0901
      7 HG1         0.1968    6.6019   30.3653 H        29 THR29       0.2099
      8 OG1        -0.2510    6.0340   29.6640 O.3      29 THR29      -0.3897
      9 HZ1         5.5047   -4.1728   29.5098 H        31 LYS31      -0.0901
     10 NZ          4.6160   -4.4070   29.1230 N.4      31 LYS31       0.3781
     11 HZ2         4.3484   -5.3221   29.4133 H        31 LYS31      -0.0901
     12 HZ3         4.6547   -4.3631   28.1273 H        31 LYS31      -0.0901
     13 HZ1        -6.3894    9.7754   25.2000 H        58 LYS58      -0.0901
     14 NZ         -6.3630    9.0730   24.4910 N.4      58 LYS58       0.3781
     15 HZ2        -6.7768    9.4219   23.6527 H        58 LYS58      -0.0901
     16 HZ3        -6.8561    8.2620   24.8001 H        58 LYS58      -0.0901
     17 HG1         0.6040   12.1853   15.5311 H        60 THR60       0.2099
     18 OG1         0.2990   11.6990   16.3590 O.3      60 THR60      -0.3897
     19 HG1         4.2308   12.0734   24.4056 H        74 THR74       0.2099
     20 OG1         3.9650   13.0020   24.1260 O.3      74 THR74      -0.3897
     21 HZ1        -1.4653   17.4671   27.9218 H        79 LYS79      -0.0901
     22 NZ         -0.6110   17.3250   28.4230 N.4      79 LYS79       0.3781
     23 HZ2        -0.0515   16.6498   27.9411 H        79 LYS79      -0.0901
     24 HZ3        -0.8163   16.9907   29.3436 H        79 LYS79      -0.0901
     25 HZ1        10.7550   13.7094   33.2188 H       100 LYS100     -0.0901
     26 NZ         11.2370   13.0070   32.6960 N.4     100 LYS100      0.3781
     27 HZ2        10.7802   12.8705   31.8174 H       100 LYS100     -0.0901
     28 HZ3        11.2398   12.1501   33.2097 H       100 LYS100     -0.0901
     29 HG         15.9796   16.1300   22.6842 H       101 SER101      0.2095
     30 OG         16.9020   16.0520   23.0720 O.3     101 SER101     -0.3927
     31 HZ1        17.5341    8.5477   31.2670 H       120 LYS120     -0.0901
     32 NZ         18.3610    7.9960   31.3450 N.4     120 LYS120      0.3781
     33 HZ2        18.1411    7.0312   31.2239 H       120 LYS120     -0.0901
     34 HZ3        18.7856    8.1408   32.2352 H       120 LYS120     -0.0901
@<TRIPOS>BOND
     1   17   18 1
     2    2    1 1
     3   29   30 1
     4   13   14 1
     5   20   19 1
     6   15   14 1
     7   14   16 1
     8   24   22 1
     9   11   10 1
    10   22   21 1
    11   22   23 1
    12   10   12 1
    13   10    9 1
    14    8    7 1
    15   34   32 1
    16   32   33 1
    17   32   31 1
    18    3    4 1
    19   27   26 1
    20    4    5 1
    21    4    6 1
    22   26   28 1
    23   26   25 1
@<TRIPOS>SUBSTRUCTURE
19 TYR19 1
21 LYS21 3
29 THR29 7
31 LYS31 9
58 LYS58 13
60 THR60 17
74 THR74 19
79 LYS79 21
100 LYS100 25
101 SER101 29
120 LYS120 31
@<TRIPOS>COMMENT
