@<TRIPOS>MOLECULE
ibuprofen_entry_00001_conf_09_protein
34 23 11
SMALL
NO_CHARGES


@<TRIPOS>ATOM
      1 HH         11.9341    9.4444   22.1947 H        19 TYR19       0.2921
      2 OH         11.2460    8.8760   21.7530 O.3      19 TYR19      -0.5068
      3 HZ1        11.1398   -2.0470   32.5232 H        21 LYS21      -0.0901
      4 NZ         10.3990   -2.4490   31.9670 N.4      21 LYS21       0.3781
      5 HZ2         9.7080   -2.8293   32.5972 H        21 LYS21      -0.0901
      6 HZ3        10.7893   -3.2135   31.4351 H        21 LYS21      -0.0901
      7 HG1        -1.1605    5.6106   29.5722 H        29 THR29       0.2099
      8 OG1        -0.2510    6.0340   29.6640 O.3      29 THR29      -0.3897
      9 HZ1         5.2551   -4.6071   29.8618 H        31 LYS31      -0.0901
     10 NZ          4.6160   -4.4070   29.1230 N.4      31 LYS31       0.3781
     11 HZ2         4.1500   -5.2413   28.8402 H        31 LYS31      -0.0901
     12 HZ3         5.1029   -4.0095   28.3486 H        31 LYS31      -0.0901
     13 HZ1        -6.8731    9.0640   23.6328 H        58 LYS58      -0.0901
     14 NZ         -6.3630    9.0730   24.4910 N.4      58 LYS58       0.3781
     15 HZ2        -6.7558    8.4107   25.1257 H        58 LYS58      -0.0901
     16 HZ3        -6.3934    9.9863   24.8926 H        58 LYS58      -0.0901
     17 HG1         0.0592   11.8372   15.3903 H        60 THR60       0.2099
     18 OG1         0.2990   11.6990   16.3590 O.3      60 THR60      -0.3897
     19 HG1         4.7810   12.5778   24.5327 H        74 THR74       0.2099
     20 OG1         3.9650   13.0020   24.1260 O.3      74 THR74      -0.3897
     21 HZ1        -0.7460   16.9500   29.3408 H        79 LYS79      -0.0901
     22 NZ         -0.6110   17.3250   28.4230 N.4      79 LYS79       0.3781
     23 HZ2        -1.5012   17.4828   27.9944 H        79 LYS79      -0.0901
     24 HZ3        -0.0868   16.6752   27.8713 H        79 LYS79      -0.0901
     25 HZ1        11.1046   12.8318   33.6711 H       100 LYS100     -0.0901
     26 NZ         11.2370   13.0070   32.6960 N.4     100 LYS100      0.3781
     27 HZ2        10.6114   13.7269   32.3968 H       100 LYS100     -0.0901
     28 HZ3        11.0591   12.1712   32.1784 H       100 LYS100     -0.0901
     29 HG         17.6725   15.5261   22.7017 H       101 SER101      0.2095
     30 OG         16.9020   16.0520   23.0720 O.3     101 SER101     -0.3927
     31 HZ1        18.1933    7.0164   31.2652 H       120 LYS120     -0.0901
     32 NZ         18.3610    7.9960   31.3450 N.4     120 LYS120      0.3781
     33 HZ2        18.7583    8.2035   32.2355 H       120 LYS120     -0.0901
     34 HZ3        17.5090    8.4993   31.2250 H       120 LYS120     -0.0901
@<TRIPOS>BOND
     1   17   18 1
     2    2    1 1
     3   29   30 1
     4   13   14 1
     5   20   19 1
     6   15   14 1
     7   14   16 1
     8   24   22 1
     9   11   10 1
    10   22   21 1
    11   22   23 1
    12   10   12 1
    13   10    9 1
    14    8    7 1
    15   34   32 1
    16   32   33 1
    17   32   31 1
    18    3    4 1
    19   27   26 1
    20    4    5 1
    21    4    6 1
    22   26   28 1
    23   26   25 1
@<TRIPOS>SUBSTRUCTURE
19 TYR19 1
21 LYS21 3
29 THR29 7
31 LYS31 9
58 LYS58 13
60 THR60 17
74 THR74 19
79 LYS79 21
100 LYS100 25
101 SER101 29
120 LYS120 31
@<TRIPOS>COMMENT
