@<TRIPOS>MOLECULE
ibuprofen_entry_00001_conf_02_protein
34 23 11
SMALL
NO_CHARGES


@<TRIPOS>ATOM
      1 HH         11.7620    9.4570   22.3758 H        19 TYR19       0.2921
      2 OH         11.2460    8.8760   21.7530 O.3      19 TYR19      -0.5068
      3 HZ1        10.4063   -2.1275   32.9243 H        21 LYS21      -0.0901
      4 NZ         10.3990   -2.4490   31.9670 N.4      21 LYS21       0.3781
      5 HZ2         9.8790   -3.3136   31.9330 H        21 LYS21      -0.0901
      6 HZ3        11.3519   -2.6482   31.6986 H        21 LYS21      -0.0901
      7 HG1        -1.1771    5.8647   29.3056 H        29 THR29       0.2099
      8 OG1        -0.2510    6.0340   29.6640 O.3      29 THR29      -0.3897
      9 HZ1         5.5269   -4.0260   29.2620 H        31 LYS31      -0.0901
     10 NZ          4.6160   -4.4070   29.1230 N.4      31 LYS31       0.3781
     11 HZ2         4.5197   -5.2560   29.6360 H        31 LYS31      -0.0901
     12 HZ3         4.4610   -4.5760   28.1523 H        31 LYS31      -0.0901
     13 HZ1        -6.6316    8.7041   25.3790 H        58 LYS58      -0.0901
     14 NZ         -6.3630    9.0730   24.4910 N.4      58 LYS58       0.3781
     15 HZ2        -6.4486   10.0672   24.4971 H        58 LYS58      -0.0901
     16 HZ3        -6.9424    8.6874   23.7755 H        58 LYS58      -0.0901
     17 HG1         1.1814   11.4793   16.7926 H        60 THR60       0.2099
     18 OG1         0.2990   11.6990   16.3590 O.3      60 THR60      -0.3897
     19 HG1         4.2819   13.8209   24.6161 H        74 THR74       0.2099
     20 OG1         3.9650   13.0020   24.1260 O.3      74 THR74      -0.3897
     21 HZ1        -1.3958   17.3464   29.0434 H        79 LYS79      -0.0901
     22 NZ         -0.6110   17.3250   28.4230 N.4      79 LYS79       0.3781
     23 HZ2        -0.9326   17.1911   27.4850 H        79 LYS79      -0.0901
     24 HZ3        -0.0052   16.5703   28.6778 H        79 LYS79      -0.0901
     25 HZ1        11.2381   12.0913   33.0966 H       100 LYS100     -0.0901
     26 NZ         11.2370   13.0070   32.6960 N.4     100 LYS100      0.3781
     27 HZ2        10.7927   13.6466   33.3227 H       100 LYS100     -0.0901
     28 HZ3        10.7444   12.9917   31.8269 H       100 LYS100     -0.0901
     29 HG         17.8328   15.8611   22.7485 H       101 SER101      0.2095
     30 OG         16.9020   16.0520   23.0720 O.3     101 SER101     -0.3927
     31 HZ1        17.7849    7.2623   30.9930 H       120 LYS120     -0.0901
     32 NZ         18.3610    7.9960   31.3450 N.4     120 LYS120      0.3781
     33 HZ2        18.8760    7.6766   32.1366 H       120 LYS120     -0.0901
     34 HZ3        17.7996    8.7805   31.5961 H       120 LYS120     -0.0901
@<TRIPOS>BOND
     1   17   18 1
     2    2    1 1
     3   29   30 1
     4   13   14 1
     5   20   19 1
     6   15   14 1
     7   14   16 1
     8   24   22 1
     9   11   10 1
    10   22   21 1
    11   22   23 1
    12   10   12 1
    13   10    9 1
    14    8    7 1
    15   34   32 1
    16   32   33 1
    17   32   31 1
    18    3    4 1
    19   27   26 1
    20    4    5 1
    21    4    6 1
    22   26   28 1
    23   26   25 1
@<TRIPOS>SUBSTRUCTURE
19 TYR19 1
21 LYS21 3
29 THR29 7
31 LYS31 9
58 LYS58 13
60 THR60 17
74 THR74 19
79 LYS79 21
100 LYS100 25
101 SER101 29
120 LYS120 31
@<TRIPOS>COMMENT
