@<TRIPOS>MOLECULE
ibuprofen_entry_00001_conf_01_protein
34 23 11
SMALL
NO_CHARGES


@<TRIPOS>ATOM
      1 HH         10.2615    9.0198   21.7113 H        19 TYR19       0.2921
      2 OH         11.2460    8.8760   21.7530 O.3      19 TYR19      -0.5068
      3 HZ1         9.6953   -2.8774   32.5511 H        21 LYS21      -0.0901
      4 NZ         10.3990   -2.4490   31.9670 N.4      21 LYS21       0.3781
      5 HZ2        10.8483   -3.1795   31.4344 H        21 LYS21      -0.0901
      6 HZ3        11.0929   -2.0324   32.5709 H        21 LYS21      -0.0901
      7 HG1        -0.7979    6.6259   29.0596 H        29 THR29       0.2099
      8 OG1        -0.2510    6.0340   29.6640 O.3      29 THR29      -0.3897
      9 HZ1         5.4443   -3.9143   28.8672 H        31 LYS31      -0.0901
     10 NZ          4.6160   -4.4070   29.1230 N.4      31 LYS31       0.3781
     11 HZ2         4.8169   -5.0561   29.8521 H        31 LYS31      -0.0901
     12 HZ3         4.2463   -4.8877   28.3311 H        31 LYS31      -0.0901
     13 HZ1        -6.9389    8.2678   24.3619 H        58 LYS58      -0.0901
     14 NZ         -6.3630    9.0730   24.4910 N.4      58 LYS58       0.3781
     15 HZ2        -6.4422    9.3993   25.4307 H        58 LYS58      -0.0901
     16 HZ3        -6.6414    9.7927   23.8579 H        58 LYS58      -0.0901
     17 HG1         1.1910   12.1149   16.1437 H        60 THR60       0.2099
     18 OG1         0.2990   11.6990   16.3590 O.3      60 THR60      -0.3897
     19 HG1         3.2700   13.6423   24.4698 H        74 THR74       0.2099
     20 OG1         3.9650   13.0020   24.1260 O.3      74 THR74      -0.3897
     21 HZ1         0.0326   16.5617   28.4891 H        79 LYS79      -0.0901
     22 NZ         -0.6110   17.3250   28.4230 N.4      79 LYS79       0.3781
     23 HZ2        -1.2733   17.2668   29.1708 H        79 LYS79      -0.0901
     24 HZ3        -1.0932   17.2794   27.5473 H        79 LYS79      -0.0901
     25 HZ1        11.0609   12.1661   32.1852 H       100 LYS100     -0.0901
     26 NZ         11.2370   13.0070   32.6960 N.4     100 LYS100      0.3781
     27 HZ2        11.1026   12.8404   33.6724 H       100 LYS100     -0.0901
     28 HZ3        10.6116   13.7229   32.3884 H       100 LYS100     -0.0901
     29 HG         15.9990   15.9050   22.6593 H       101 SER101      0.2095
     30 OG         16.9020   16.0520   23.0720 O.3     101 SER101     -0.3927
     31 HZ1        18.8055    8.0872   32.2328 H       120 LYS120     -0.0901
     32 NZ         18.3610    7.9960   31.3450 N.4     120 LYS120      0.3781
     33 HZ2        17.5577    8.5848   31.3026 H       120 LYS120     -0.0901
     34 HZ3        18.0979    7.0470   31.1906 H       120 LYS120     -0.0901
@<TRIPOS>BOND
     1   17   18 1
     2    2    1 1
     3   29   30 1
     4   13   14 1
     5   20   19 1
     6   15   14 1
     7   14   16 1
     8   24   22 1
     9   11   10 1
    10   22   21 1
    11   22   23 1
    12   10   12 1
    13   10    9 1
    14    8    7 1
    15   34   32 1
    16   32   33 1
    17   32   31 1
    18    3    4 1
    19   27   26 1
    20    4    5 1
    21    4    6 1
    22   26   28 1
    23   26   25 1
@<TRIPOS>SUBSTRUCTURE
19 TYR19 1
21 LYS21 3
29 THR29 7
31 LYS31 9
58 LYS58 13
60 THR60 17
74 THR74 19
79 LYS79 21
100 LYS100 25
101 SER101 29
120 LYS120 31
@<TRIPOS>COMMENT
