MODEL 1
REMARK VINA RESULT:     -10.5      0.000      0.000
REMARK  4 active torsions:
REMARK  status: ('A' for Active; 'I' for Inactive)
REMARK       I    between atoms: N_1  and  C_17 
REMARK       I    between atoms: N_2  and  C_22 
REMARK    1  A    between atoms: C_12  and  C_13 
REMARK    2  A    between atoms: C_13  and  C_14 
REMARK    3  A    between atoms: C_16  and  C_17 
REMARK    4  A    between atoms: C_22  and  C_23 
ROOT
HETATM    1  C   UNL     1     -39.831 -56.905   4.977  1.00  0.00    -0.051 A 
HETATM    2  C   UNL     1     -40.619 -57.995   4.568  1.00  0.00     0.027 A 
HETATM    3  C   UNL     1     -40.020 -59.189   4.246  1.00  0.00     0.071 A 
HETATM    4  C   UNL     1     -38.661 -59.390   4.300  1.00  0.00     0.132 A 
HETATM    5  C   UNL     1     -37.890 -58.322   4.701  1.00  0.00     0.044 A 
HETATM    6  C   UNL     1     -38.498 -57.103   5.031  1.00  0.00     0.010 A 
HETATM    7  F   UNL     1     -38.114 -60.596   3.970  1.00  0.00    -0.205 F 
ENDROOT
BRANCH   1   8
HETATM    8  C   UNL     1     -40.579 -55.662   5.314  1.00  0.00     0.100 C 
BRANCH   8   9
HETATM    9  C   UNL     1     -41.441 -55.880   6.468  1.00  0.00     0.070 A 
HETATM   10  N   UNL     1     -42.093 -57.083   6.512  1.00  0.00    -0.175 NA
HETATM   11  N   UNL     1     -42.939 -57.369   7.471  1.00  0.00    -0.243 N 
HETATM   12  H   UNL     1     -43.382 -58.249   7.457  1.00  0.00     0.192 HD
HETATM   13  C   UNL     1     -43.230 -56.525   8.470  1.00  0.00     0.272 A 
HETATM   14  C   UNL     1     -42.613 -55.291   8.498  1.00  0.00     0.046 A 
HETATM   15  O   UNL     1     -44.040 -56.781   9.399  1.00  0.00    -0.266 OA
HETATM   16  C   UNL     1     -42.866 -54.382   9.526  1.00  0.00     0.018 A 
HETATM   17  C   UNL     1     -41.723 -55.002   7.480  1.00  0.00     0.006 A 
HETATM   18  C   UNL     1     -42.222 -53.163   9.544  1.00  0.00     0.001 A 
HETATM   19  C   UNL     1     -41.339 -52.907   8.516  1.00  0.00     0.001 A 
HETATM   20  C   UNL     1     -41.079 -53.800   7.490  1.00  0.00     0.014 A 
ENDBRANCH   8   9
ENDBRANCH   1   8
BRANCH   3  21
HETATM   21  C   UNL     1     -40.823 -60.355   3.814  1.00  0.00     0.257 C 
HETATM   22  N   UNL     1     -41.052 -61.396   4.752  1.00  0.00    -0.345 N 
HETATM   23  C   UNL     1     -41.825 -62.534   4.375  1.00  0.00     0.146 C 
HETATM   24  C   UNL     1     -40.489 -61.276   6.084  1.00  0.00     0.146 C 
HETATM   25  C   UNL     1     -41.470 -63.772   5.170  1.00  0.00     0.145 C 
HETATM   26  N   UNL     1     -40.114 -63.650   5.639  1.00  0.00    -0.349 N 
HETATM   27  C   UNL     1     -39.824 -62.543   6.557  1.00  0.00     0.145 C 
HETATM   28  C   UNL     1     -39.103 -64.534   5.250  1.00  0.00     0.224 C 
HETATM   29  O   UNL     1     -37.930 -64.345   5.734  1.00  0.00    -0.273 OA
HETATM   30  O   UNL     1     -41.300 -60.448   2.660  1.00  0.00    -0.267 OA
BRANCH  28  31
HETATM   31  C   UNL     1     -39.230 -65.671   4.335  1.00  0.00     0.078 A 
HETATM   32  C   UNL     1     -39.417 -67.027   4.979  1.00  0.00     0.015 A 
HETATM   33  C   UNL     1     -38.177 -66.718   4.263  1.00  0.00     0.015 A 
ENDBRANCH  28  31
ENDBRANCH   3  21
TORSDOF 4
ENDMDL
