MODEL 1
REMARK VINA RESULT:      -6.4      0.000      0.000
REMARK  3 active torsions:
REMARK  status: ('A' for Active; 'I' for Inactive)
REMARK    1  A    between atoms: C_2  and  O_11 
REMARK    2  A    between atoms: C_3  and  O_11 
REMARK    3  A    between atoms: C_8  and  C_9 
ROOT
HETATM    1  C   UNL     1     -42.244 -55.730   7.952  1.00  0.00     0.096 A 
HETATM    2  C   UNL     1     -43.263 -56.238   8.730  1.00  0.00     0.038 A 
HETATM    3  C   UNL     1     -44.155 -55.447   9.426  1.00  0.00     0.003 A 
HETATM    4  C   UNL     1     -44.020 -54.082   9.336  1.00  0.00     0.001 A 
HETATM    5  C   UNL     1     -43.019 -53.523   8.572  1.00  0.00     0.021 A 
HETATM    6  C   UNL     1     -42.136 -54.355   7.883  1.00  0.00     0.074 A 
ENDROOT
BRANCH   1   7
HETATM    7  O   UNL     1     -41.338 -56.476   7.246  1.00  0.00    -0.278 OA
BRANCH   7   8
HETATM    8  C   UNL     1     -41.622 -57.313   6.205  1.00  0.00     0.260 C 
HETATM    9  C   UNL     1     -41.223 -58.743   6.190  1.00  0.00     0.126 C 
HETATM   10  O   UNL     1     -42.256 -56.771   5.249  1.00  0.00    -0.265 OA
ENDBRANCH   7   8
ENDBRANCH   1   7
BRANCH   6  11
HETATM   11  C   UNL     1     -41.092 -53.722   7.086  1.00  0.00     0.212 C 
HETATM   12  O   UNL     1     -40.185 -53.042   7.630  1.00  0.00    -0.644 OA
HETATM   13  O   UNL     1     -41.060 -53.842   5.707  1.00  0.00    -0.644 OA
ENDBRANCH   6  11
TORSDOF 3
ENDMDL
