@<TRIPOS>MOLECULE
olaparib_entry_00001_conf_22
55 59 1
SMALL
NO_CHARGES


@<TRIPOS>ATOM
      1 N         -58.4642  -63.1017  -19.0543 N.am      1 UNL1        0.0000
      2 N         -57.1814  -65.3357  -19.3884 N.am      1 UNL1        0.0000
      3 N         -58.8059  -59.0215  -24.4503 N.2       1 UNL1        0.0000
      4 N         -58.3427  -57.8303  -24.7423 N.am      1 UNL1        0.0000
      5 C         -57.0428  -57.5101  -24.6743 C.2       1 UNL1        0.0000
      6 C         -56.1413  -58.4763  -24.2777 C.ar      1 UNL1        0.0000
      7 C         -54.7796  -58.1909  -24.1706 C.ar      1 UNL1        0.0000
      8 C         -53.9000  -59.1659  -23.7519 C.ar      1 UNL1        0.0000
      9 C         -54.4328  -60.4021  -23.4532 C.ar      1 UNL1        0.0000
     10 C         -55.7816  -60.6992  -23.5546 C.ar      1 UNL1        0.0000
     11 C         -56.6431  -59.7280  -23.9724 C.ar      1 UNL1        0.0000
     12 C         -57.9755  -60.0332  -24.0503 C.2       1 UNL1        0.0000
     13 C         -58.6082  -61.3254  -23.8201 C.3       1 UNL1        0.0000
     14 C         -59.6051  -61.2315  -22.7179 C.ar      1 UNL1        0.0000
     15 C         -59.2384  -61.8602  -21.5146 C.ar      1 UNL1        0.0000
     16 C         -60.0974  -61.8369  -20.4420 C.ar      1 UNL1        0.0000
     17 C         -59.7416  -62.4923  -19.1632 C.2       1 UNL1        0.0000
     18 C         -58.0833  -63.7392  -17.8355 C.3       1 UNL1        0.0000
     19 C         -57.0590  -64.8338  -18.0445 C.3       1 UNL1        0.0000
     20 C         -56.9171  -64.3901  -20.4783 C.3       1 UNL1        0.0000
     21 C         -57.5681  -63.0608  -20.1950 C.3       1 UNL1        0.0000
     22 C         -57.5356  -66.6592  -19.6663 C.2       1 UNL1        0.0000
     23 C         -57.8424  -67.7119  -18.6943 C.3       1 UNL1        0.0000
     24 C         -56.6627  -68.3004  -17.9539 C.3       1 UNL1        0.0000
     25 C         -57.4041  -69.1143  -18.9198 C.3       1 UNL1        0.0000
     26 C         -61.3256  -61.2201  -20.4725 C.ar      1 UNL1        0.0000
     27 C         -61.6835  -60.6051  -21.6510 C.ar      1 UNL1        0.0000
     28 C         -60.8099  -60.6278  -22.7476 C.ar      1 UNL1        0.0000
     29 O         -56.5795  -56.3742  -24.9514 O.2       1 UNL1        0.0000
     30 O         -57.6061  -67.0097  -20.8981 O.2       1 UNL1        0.0000
     31 O         -60.5264  -62.5233  -18.1875 O.2       1 UNL1        0.0000
     32 F         -62.1435  -61.2253  -19.3800 F         1 UNL1        0.0000
     33 H         -54.4303  -57.2487  -24.4057 H         1 UNL1        0.0000
     34 H         -52.8897  -58.9790  -23.6654 H         1 UNL1        0.0000
     35 H         -53.7918  -61.1458  -23.1367 H         1 UNL1        0.0000
     36 H         -56.1304  -61.6414  -23.3182 H         1 UNL1        0.0000
     37 H         -57.8590  -62.0427  -23.5571 H         1 UNL1        0.0000
     38 H         -59.1123  -61.6273  -24.7146 H         1 UNL1        0.0000
     39 H         -58.3272  -62.3379  -21.4372 H         1 UNL1        0.0000
     40 H         -58.9553  -64.1670  -17.3858 H         1 UNL1        0.0000
     41 H         -57.6385  -62.9955  -17.2070 H         1 UNL1        0.0000
     42 H         -57.2326  -65.6262  -17.3472 H         1 UNL1        0.0000
     43 H         -56.0745  -64.4431  -17.8910 H         1 UNL1        0.0000
     44 H         -57.3094  -64.7859  -21.3916 H         1 UNL1        0.0000
     45 H         -55.8603  -64.2452  -20.5626 H         1 UNL1        0.0000
     46 H         -58.1283  -62.7640  -21.0572 H         1 UNL1        0.0000
     47 H         -56.7897  -62.3645  -19.9661 H         1 UNL1        0.0000
     48 H         -58.7834  -67.2629  -18.4550 H         1 UNL1        0.0000
     49 H         -56.7383  -68.5102  -16.9072 H         1 UNL1        0.0000
     50 H         -55.6369  -68.0253  -17.8238 H         1 UNL1        0.0000
     51 H         -58.0135  -69.9233  -18.5747 H         1 UNL1        0.0000
     52 H         -57.1300  -69.6814  -19.7838 H         1 UNL1        0.0000
     53 H         -62.5955  -60.1269  -21.7268 H         1 UNL1        0.0000
     54 H         -61.1029  -60.1593  -23.6196 H         1 UNL1        0.0000
     55 H         -58.9815  -57.1367  -25.0262 H         1 UNL1        0.0000
@<TRIPOS>BOND
     1    1   18 1
     2    1   21 1
     3    1   17 am
     4    2   19 1
     5    2   20 1
     6    2   22 am
     7    3    4 1
     8    3   12 2
     9    4    5 am
    10    4   55 1
    11    5   29 2
    12    5    6 1
    13    6    7 ar
    14    6   11 ar
    15    7    8 ar
    16    7   33 1
    17    8   34 1
    18    8    9 ar
    19    9   10 ar
    20    9   35 1
    21   10   11 ar
    22   10   36 1
    23   11   12 1
    24   12   13 1
    25   13   37 1
    26   13   38 1
    27   13   14 1
    28   14   15 ar
    29   14   28 ar
    30   15   39 1
    31   15   16 ar
    32   16   26 ar
    33   16   17 1
    34   17   31 2
    35   18   19 1
    36   18   40 1
    37   18   41 1
    38   19   42 1
    39   19   43 1
    40   20   21 1
    41   20   45 1
    42   20   44 1
    43   21   46 1
    44   21   47 1
    45   22   30 2
    46   22   23 1
    47   23   25 1
    48   23   24 1
    49   23   48 1
    50   24   25 1
    51   24   49 1
    52   24   50 1
    53   25   51 1
    54   25   52 1
    55   26   27 ar
    56   26   32 1
    57   27   28 ar
    58   27   53 1
    59   28   54 1
@<TRIPOS>SUBSTRUCTURE
1 UNL1 1
@<TRIPOS>COMMENT
olaparib
PLANTSproteinTorsions
102
4661 131.6119
5386 116.1568
6210 40.8822
5890 301.4993
4461 189.2293
1390 46.7024
2824 90.8404
4339 80.1389
2732 123.5179
4792 11.9535
3407 62.0642
5134 40.4024
6916 189.8809
7370 192.9928
6038 345.0035
7225 333.0580
3592 335.8708
2064 2.7663
2488 301.3844
1253 236.7311
2069 166.6562
2569 268.1106
3058 243.9924
1748 148.4576
1162 118.4969
1509 201.1196
560 271.2535
1627 262.0885
1941 139.8480
3631 163.3689
2381 150.3180
4221 88.6178
4687 18.1555
6983 22.9381
6668 228.8054
7305 262.2234
8693 42.1645
8404 98.7574
9055 268.1764
7052 182.7436
4708 345.5456
2652 263.1589
4332 239.5588
3011 17.5172
2257 164.9633
2778 272.9645
2057 295.1144
192 155.2819
315 119.6941
1085 97.1256
1007 103.4842
1407 124.2124
4816 79.8766
3131 13.6275
4654 10.7030
5144 188.0161
117 40.0272
6 198.5255
259 101.3384
1979 139.3277
2609 126.8978
2623 73.7965
5910 211.7897
5937 90.3120
2062 28.5370
890 153.3961
5008 132.8323
8602 15.9221
8478 26.3941
8300 211.3014
7721 251.2619
8466 15.4618
7852 152.4262
5849 241.3028
6302 187.3403
7439 280.6676
6284 58.8448
6003 213.0554
7165 243.3092
7623 257.5963
8158 67.1158
8667 195.4519
9078 249.4205
8684 214.2882
7666 172.8061
4231 212.8190
1659 168.3436
489 230.0353
238 230.8091
46 39.7777
83 183.3236
254 190.6294
1066 5.8744
2112 148.7753
4047 216.0806
5402 46.8336
2544 285.7018
4670 71.9939
4426 243.9191
5656 289.0128
7040 167.7402
6282 173.5706
PLANTSmolcadARTstart hb
PLANTSmolcadARTstart HB
LINES
PLANTSmolcadARTstart HBCH
LINES
PLANTSmolcadARTstart HB-CHO
LINES
PLANTSmolcadARTend
PLANTSmolcadARTstart HB_WATER
LINES
PLANTSmolcadARTend

PLANTSmolcadARTend

