@<TRIPOS>MOLECULE
olaparib_entry_00001_conf_35
55 59 1
SMALL
NO_CHARGES


@<TRIPOS>ATOM
      1 N          -0.0479  -70.2717    7.9281 N.am      1 UNL1        0.0000
      2 N          -0.2845  -67.9408    9.0502 N.am      1 UNL1        0.0000
      3 N          -3.5776  -70.8091   10.5615 N.2       1 UNL1        0.0000
      4 N          -3.1966  -70.3135   11.7139 N.am      1 UNL1        0.0000
      5 C          -3.8707  -70.5070   12.8562 C.2       1 UNL1        0.0000
      6 C          -5.0241  -71.2638   12.8261 C.ar      1 UNL1        0.0000
      7 C          -5.7748  -71.4796   13.9824 C.ar      1 UNL1        0.0000
      8 C          -6.9351  -72.2211   13.9245 C.ar      1 UNL1        0.0000
      9 C          -7.2977  -72.7196   12.6912 C.ar      1 UNL1        0.0000
     10 C          -6.5628  -72.5130   11.5357 C.ar      1 UNL1        0.0000
     11 C          -5.4148  -71.7800   11.6044 C.ar      1 UNL1        0.0000
     12 C          -4.7094  -71.5705   10.4498 C.2       1 UNL1        0.0000
     13 C          -4.9847  -72.1151    9.1266 C.3       1 UNL1        0.0000
     14 C          -3.7429  -72.6689    8.5195 C.ar      1 UNL1        0.0000
     15 C          -2.8141  -71.7160    8.0646 C.ar      1 UNL1        0.0000
     16 C          -1.6414  -72.1297    7.4796 C.ar      1 UNL1        0.0000
     17 C          -0.6456  -71.1511    6.9876 C.2       1 UNL1        0.0000
     18 C           0.9201  -69.3177    7.4924 C.3       1 UNL1        0.0000
     19 C           0.9847  -68.1001    8.3892 C.3       1 UNL1        0.0000
     20 C          -0.7069  -69.0208    9.9485 C.3       1 UNL1        0.0000
     21 C          -0.4388  -70.3652    9.3224 C.3       1 UNL1        0.0000
     22 C          -1.0948  -66.8177    8.8591 C.2       1 UNL1        0.0000
     23 C          -0.8202  -65.6706    7.9898 C.3       1 UNL1        0.0000
     24 C          -1.9042  -64.6196    7.9102 C.3       1 UNL1        0.0000
     25 C          -1.5992  -65.4502    6.7431 C.3       1 UNL1        0.0000
     26 C          -1.3102  -73.4528    7.3074 C.ar      1 UNL1        0.0000
     27 C          -2.2200  -74.3847    7.7531 C.ar      1 UNL1        0.0000
     28 C          -3.4181  -73.9660    8.3495 C.ar      1 UNL1        0.0000
     29 O          -3.5207  -70.0413   13.9708 O.2       1 UNL1        0.0000
     30 O          -2.2022  -66.7670    9.5042 O.2       1 UNL1        0.0000
     31 O          -0.3200  -71.0789    5.7803 O.2       1 UNL1        0.0000
     32 F          -0.1324  -73.8131    6.7195 F         1 UNL1        0.0000
     33 H          -5.4606  -71.0842   14.8824 H         1 UNL1        0.0000
     34 H          -7.5063  -72.3945   14.7653 H         1 UNL1        0.0000
     35 H          -8.1637  -73.2763   12.6256 H         1 UNL1        0.0000
     36 H          -6.8782  -72.9078   10.6358 H         1 UNL1        0.0000
     37 H          -5.3675  -71.3380    8.4984 H         1 UNL1        0.0000
     38 H          -5.7027  -72.9032    9.2201 H         1 UNL1        0.0000
     39 H          -3.0128  -70.7089    8.1693 H         1 UNL1        0.0000
     40 H           0.6670  -69.0010    6.5019 H         1 UNL1        0.0000
     41 H           1.8788  -69.7931    7.5228 H         1 UNL1        0.0000
     42 H           1.1958  -67.2317    7.8013 H         1 UNL1        0.0000
     43 H           1.7596  -68.2262    9.1165 H         1 UNL1        0.0000
     44 H          -1.7545  -68.9272   10.1445 H         1 UNL1        0.0000
     45 H          -0.1527  -68.9490   10.8610 H         1 UNL1        0.0000
     46 H          -1.3287  -70.9560    9.3874 H         1 UNL1        0.0000
     47 H           0.3750  -70.8103    9.8542 H         1 UNL1        0.0000
     48 H           0.2263  -65.7137    8.2076 H         1 UNL1        0.0000
     49 H          -1.6443  -63.5814    7.9112 H         1 UNL1        0.0000
     50 H          -2.7869  -64.3982    8.4731 H         1 UNL1        0.0000
     51 H          -1.1238  -65.0125    5.8901 H         1 UNL1        0.0000
     52 H          -2.1795  -66.0807    6.1037 H         1 UNL1        0.0000
     53 H          -2.0197  -75.3922    7.6482 H         1 UNL1        0.0000
     54 H          -4.0832  -74.6854    8.6747 H         1 UNL1        0.0000
     55 H          -2.3740  -69.7729   11.7415 H         1 UNL1        0.0000
@<TRIPOS>BOND
     1    1   18 1
     2    1   21 1
     3    1   17 am
     4    2   19 1
     5    2   20 1
     6    2   22 am
     7    3    4 1
     8    3   12 2
     9    4    5 am
    10    4   55 1
    11    5   29 2
    12    5    6 1
    13    6    7 ar
    14    6   11 ar
    15    7    8 ar
    16    7   33 1
    17    8   34 1
    18    8    9 ar
    19    9   10 ar
    20    9   35 1
    21   10   11 ar
    22   10   36 1
    23   11   12 1
    24   12   13 1
    25   13   37 1
    26   13   38 1
    27   13   14 1
    28   14   15 ar
    29   14   28 ar
    30   15   39 1
    31   15   16 ar
    32   16   26 ar
    33   16   17 1
    34   17   31 2
    35   18   19 1
    36   18   40 1
    37   18   41 1
    38   19   42 1
    39   19   43 1
    40   20   21 1
    41   20   45 1
    42   20   44 1
    43   21   46 1
    44   21   47 1
    45   22   30 2
    46   22   23 1
    47   23   25 1
    48   23   24 1
    49   23   48 1
    50   24   25 1
    51   24   49 1
    52   24   50 1
    53   25   51 1
    54   25   52 1
    55   26   27 ar
    56   26   32 1
    57   27   28 ar
    58   27   53 1
    59   28   54 1
@<TRIPOS>SUBSTRUCTURE
1 UNL1 1
@<TRIPOS>COMMENT
olaparib
PLANTSproteinTorsions
102
4661 169.1844
5386 133.9378
6210 139.3226
5890 38.8101
4461 115.1311
1390 227.2547
2824 84.0776
4339 184.5230
2732 355.6187
4792 326.4182
3407 40.6819
5134 13.8352
6916 35.2133
7370 4.0368
6038 132.3779
7225 112.4010
3592 28.3641
2064 44.4314
2488 228.4608
1253 72.2773
2069 55.6449
2569 271.8296
3058 252.4275
1748 150.9771
1162 27.8861
1509 114.5701
560 101.1699
1627 173.0284
1941 41.7586
3631 149.0493
2381 274.0879
4221 2.3759
4687 236.1001
6983 90.8056
6668 116.6251
7305 218.2117
8693 187.8672
8404 19.0909
9055 250.0159
7052 190.4706
4708 103.1775
2652 102.6229
4332 48.9448
3011 213.4546
2257 249.3896
2778 311.9858
2057 70.2550
192 93.6587
315 208.3087
1085 338.8579
1007 37.1968
1407 308.3259
4816 44.6720
3131 229.8979
4654 120.1888
5144 251.4542
117 226.3803
6 269.1979
259 15.9601
1979 168.7097
2609 41.7499
2623 248.8210
5910 38.9075
5937 13.1522
2062 270.7255
890 42.4904
5008 196.1563
8602 302.4929
8478 117.8180
8300 232.2092
7721 288.6712
8466 148.4581
7852 155.8058
5849 213.4458
6302 16.3745
7439 187.9071
6284 263.9945
6003 184.0401
7165 155.5238
7623 169.0316
8158 197.8999
8667 14.2288
9078 113.0921
8684 270.9494
7666 218.6466
4231 73.8273
1659 219.3137
489 117.4320
238 267.9453
46 322.1880
83 253.6309
254 191.0740
1066 116.9744
2112 82.6124
4047 261.2749
5402 281.6605
2544 140.4206
4670 230.4017
4426 93.8232
5656 215.1951
7040 237.8714
6282 318.9333
PLANTSmolcadARTstart hb
PLANTSmolcadARTstart HB
LINES
-2.20225 -66.767 9.50422 -3.75089 -66.7463 9.27192 0 255 0 5
PLANTSmolcadARTstart HBCH
LINES
PLANTSmolcadARTstart HB-CHO
LINES
PLANTSmolcadARTend
PLANTSmolcadARTstart HB_WATER
LINES
PLANTSmolcadARTend

PLANTSmolcadARTend

