@<TRIPOS>MOLECULE
olaparib_entry_00001_conf_85
55 59 1
SMALL
NO_CHARGES


@<TRIPOS>ATOM
      1 N         -23.1395  -34.4550    1.8657 N.am      1 UNL1        0.0000
      2 N         -20.7059  -33.9892    1.0855 N.am      1 UNL1        0.0000
      3 N         -25.5834  -28.5805    5.1983 N.2       1 UNL1        0.0000
      4 N         -25.7258  -27.9536    6.3408 N.am      1 UNL1        0.0000
      5 C         -24.6972  -27.4433    7.0324 C.2       1 UNL1        0.0000
      6 C         -23.4221  -27.5806    6.5234 C.ar      1 UNL1        0.0000
      7 C         -22.3140  -27.0858    7.2122 C.ar      1 UNL1        0.0000
      8 C         -21.0475  -27.2533    6.6950 C.ar      1 UNL1        0.0000
      9 C         -20.9463  -27.9209    5.4929 C.ar      1 UNL1        0.0000
     10 C         -22.0370  -28.4175    4.7988 C.ar      1 UNL1        0.0000
     11 C         -23.2861  -28.2441    5.3180 C.ar      1 UNL1        0.0000
     12 C         -24.3518  -28.7565    4.6279 C.2       1 UNL1        0.0000
     13 C         -24.3385  -29.4109    3.3261 C.3       1 UNL1        0.0000
     14 C         -25.0085  -30.7386    3.4005 C.ar      1 UNL1        0.0000
     15 C         -24.4727  -31.7349    2.5651 C.ar      1 UNL1        0.0000
     16 C         -25.0300  -32.9912    2.5554 C.ar      1 UNL1        0.0000
     17 C         -24.4909  -34.0601    1.6847 C.2       1 UNL1        0.0000
     18 C         -22.5856  -35.4856    1.0484 C.3       1 UNL1        0.0000
     19 C         -21.0847  -35.3651    0.8941 C.3       1 UNL1        0.0000
     20 C         -20.9751  -33.4022    2.4026 C.3       1 UNL1        0.0000
     21 C         -22.3469  -33.7956    2.8869 C.3       1 UNL1        0.0000
     22 C         -20.1087  -33.2276    0.0767 C.2       1 UNL1        0.0000
     23 C         -19.7907  -33.6637   -1.2855 C.3       1 UNL1        0.0000
     24 C         -18.4224  -34.2742   -1.4880 C.3       1 UNL1        0.0000
     25 C         -18.7433  -32.9760   -2.0853 C.3       1 UNL1        0.0000
     26 C         -26.1072  -33.3444    3.3331 C.ar      1 UNL1        0.0000
     27 C         -26.6309  -32.3683    4.1504 C.ar      1 UNL1        0.0000
     28 C         -26.0654  -31.0852    4.1620 C.ar      1 UNL1        0.0000
     29 O         -24.8137  -26.8380    8.1287 O.2       1 UNL1        0.0000
     30 O         -19.7988  -32.0139    0.3527 O.2       1 UNL1        0.0000
     31 O         -25.1854  -34.6184    0.8045 O.2       1 UNL1        0.0000
     32 F         -26.6253  -34.6062    3.2871 F         1 UNL1        0.0000
     33 H         -22.4428  -26.5930    8.1098 H         1 UNL1        0.0000
     34 H         -20.2137  -26.8961    7.1853 H         1 UNL1        0.0000
     35 H         -20.0072  -28.0583    5.0888 H         1 UNL1        0.0000
     36 H         -21.9074  -28.9112    3.9017 H         1 UNL1        0.0000
     37 H         -23.3252  -29.5450    3.0096 H         1 UNL1        0.0000
     38 H         -24.8671  -28.7978    2.6260 H         1 UNL1        0.0000
     39 H         -23.6637  -31.5233    1.9608 H         1 UNL1        0.0000
     40 H         -23.0353  -35.4326    0.0787 H         1 UNL1        0.0000
     41 H         -22.7874  -36.4215    1.5274 H         1 UNL1        0.0000
     42 H         -20.7974  -35.6845   -0.0856 H         1 UNL1        0.0000
     43 H         -20.5950  -35.9809    1.6197 H         1 UNL1        0.0000
     44 H         -20.9201  -32.3361    2.3316 H         1 UNL1        0.0000
     45 H         -20.2472  -33.7640    3.0985 H         1 UNL1        0.0000
     46 H         -22.8641  -32.9134    3.2021 H         1 UNL1        0.0000
     47 H         -22.2170  -34.4899    3.6896 H         1 UNL1        0.0000
     48 H         -20.8105  -33.9255   -1.4754 H         1 UNL1        0.0000
     49 H         -18.3079  -35.1366   -2.1112 H         1 UNL1        0.0000
     50 H         -17.6538  -34.6413   -0.8403 H         1 UNL1        0.0000
     51 H         -18.8542  -32.8932   -3.1464 H         1 UNL1        0.0000
     52 H         -18.2931  -32.0068   -2.0506 H         1 UNL1        0.0000
     53 H         -27.4402  -32.5816    4.7552 H         1 UNL1        0.0000
     54 H         -26.4775  -30.3717    4.7838 H         1 UNL1        0.0000
     55 H         -26.6336  -27.8523    6.7089 H         1 UNL1        0.0000
@<TRIPOS>BOND
     1    1   18 1
     2    1   21 1
     3    1   17 am
     4    2   19 1
     5    2   20 1
     6    2   22 am
     7    3    4 1
     8    3   12 2
     9    4    5 am
    10    4   55 1
    11    5   29 2
    12    5    6 1
    13    6    7 ar
    14    6   11 ar
    15    7    8 ar
    16    7   33 1
    17    8   34 1
    18    8    9 ar
    19    9   10 ar
    20    9   35 1
    21   10   11 ar
    22   10   36 1
    23   11   12 1
    24   12   13 1
    25   13   37 1
    26   13   38 1
    27   13   14 1
    28   14   15 ar
    29   14   28 ar
    30   15   39 1
    31   15   16 ar
    32   16   26 ar
    33   16   17 1
    34   17   31 2
    35   18   19 1
    36   18   40 1
    37   18   41 1
    38   19   42 1
    39   19   43 1
    40   20   21 1
    41   20   45 1
    42   20   44 1
    43   21   46 1
    44   21   47 1
    45   22   30 2
    46   22   23 1
    47   23   25 1
    48   23   24 1
    49   23   48 1
    50   24   25 1
    51   24   49 1
    52   24   50 1
    53   25   51 1
    54   25   52 1
    55   26   27 ar
    56   26   32 1
    57   27   28 ar
    58   27   53 1
    59   28   54 1
@<TRIPOS>SUBSTRUCTURE
1 UNL1 1
@<TRIPOS>COMMENT
olaparib
PLANTSproteinTorsions
102
4661 142.6699
5386 156.1941
6210 42.9525
5890 76.4431
4461 321.5852
1390 199.7124
2824 11.7663
4339 114.8010
2732 284.7546
4792 56.8181
3407 44.2398
5134 92.2284
6916 42.7902
7370 6.3123
6038 70.2155
7225 118.0918
3592 239.3249
2064 256.1216
2488 92.3368
1253 262.0403
2069 179.8186
2569 126.6634
3058 180.0297
1748 159.7691
1162 236.9268
1509 256.4709
560 239.8010
1627 84.8141
1941 268.3712
3631 82.8285
2381 48.8035
4221 202.4286
4687 237.0875
6983 209.0741
6668 126.0537
7305 226.4713
8693 256.1883
8404 251.2365
9055 226.4837
7052 324.7622
4708 94.6420
2652 105.5873
4332 188.3990
3011 99.4308
2257 149.6383
2778 191.9137
2057 126.6708
192 106.1839
315 219.8726
1085 229.5692
1007 52.5449
1407 101.9579
4816 45.1426
3131 6.3357
4654 267.3438
5144 79.3888
117 50.7889
6 145.4235
259 62.4754
1979 242.3631
2609 251.0419
2623 108.2578
5910 229.4438
5937 195.8186
2062 48.0121
890 175.5960
5008 202.5929
8602 112.3332
8478 157.3968
8300 247.4754
7721 111.2390
8466 52.5005
7852 237.1371
5849 239.8951
6302 167.6498
7439 292.0342
6284 266.8327
6003 256.8188
7165 255.1818
7623 221.4298
8158 328.2391
8667 299.2925
9078 65.2743
8684 84.5420
7666 116.5262
4231 182.7682
1659 264.2350
489 267.1803
238 79.6871
46 229.8254
83 102.4290
254 119.0744
1066 118.3802
2112 148.4597
4047 93.9650
5402 177.3243
2544 113.3508
4670 307.1289
4426 313.7390
5656 194.8595
7040 225.4489
6282 131.5656
PLANTSmolcadARTstart hb
PLANTSmolcadARTstart HB
LINES
PLANTSmolcadARTstart HBCH
LINES
PLANTSmolcadARTstart HB-CHO
LINES
PLANTSmolcadARTend
PLANTSmolcadARTstart HB_WATER
LINES
PLANTSmolcadARTend

PLANTSmolcadARTend

