@<TRIPOS>MOLECULE
olaparib_entry_00001_conf_51
55 59 1
SMALL
NO_CHARGES


@<TRIPOS>ATOM
      1 N          -0.5000  -69.6175    9.2169 N.am      1 UNL1        0.0000
      2 N          -1.1215  -67.9100   11.0733 N.am      1 UNL1        0.0000
      3 N          -5.0245  -75.0419    9.8774 N.2       1 UNL1        0.0000
      4 N          -5.5522  -76.2358    9.7554 N.am      1 UNL1        0.0000
      5 C          -6.7490  -76.4566    9.1936 C.2       1 UNL1        0.0000
      6 C          -7.4677  -75.3792    8.7180 C.ar      1 UNL1        0.0000
      7 C          -8.7273  -75.5506    8.1424 C.ar      1 UNL1        0.0000
      8 C          -9.4365  -74.4574    7.6935 C.ar      1 UNL1        0.0000
      9 C          -8.8432  -73.2220    7.8452 C.ar      1 UNL1        0.0000
     10 C          -7.5945  -73.0371    8.4147 C.ar      1 UNL1        0.0000
     11 C          -6.8999  -74.1257    8.8533 C.ar      1 UNL1        0.0000
     12 C          -5.6746  -73.9238    9.4298 C.2       1 UNL1        0.0000
     13 C          -4.9506  -72.6667    9.5658 C.3       1 UNL1        0.0000
     14 C          -3.6519  -72.7291    8.8400 C.ar      1 UNL1        0.0000
     15 C          -2.9393  -71.5189    8.7685 C.ar      1 UNL1        0.0000
     16 C          -1.7339  -71.4733    8.1098 C.ar      1 UNL1        0.0000
     17 C          -0.9619  -70.2139    8.0144 C.2       1 UNL1        0.0000
     18 C           0.2519  -68.4054    9.1649 C.3       1 UNL1        0.0000
     19 C           0.1252  -67.5850   10.4306 C.3       1 UNL1        0.0000
     20 C          -1.2943  -69.2936   11.5289 C.3       1 UNL1        0.0000
     21 C          -0.8057  -70.2606   10.4812 C.3       1 UNL1        0.0000
     22 C          -2.1358  -66.9671   11.2644 C.2       1 UNL1        0.0000
     23 C          -2.1194  -65.5601   10.8557 C.3       1 UNL1        0.0000
     24 C          -1.8594  -64.5505   11.9509 C.3       1 UNL1        0.0000
     25 C          -3.1751  -64.6177   11.3108 C.3       1 UNL1        0.0000
     26 C          -1.1655  -72.5669    7.5007 C.ar      1 UNL1        0.0000
     27 C          -1.8640  -73.7510    7.5712 C.ar      1 UNL1        0.0000
     28 C          -3.0946  -73.8007    8.2416 C.ar      1 UNL1        0.0000
     29 O          -7.2709  -77.5939    9.0665 O.2       1 UNL1        0.0000
     30 O          -3.2041  -67.3554   11.8586 O.2       1 UNL1        0.0000
     31 O          -0.7081  -69.6675    6.9163 O.2       1 UNL1        0.0000
     32 F           0.0345  -72.4702    6.8578 F         1 UNL1        0.0000
     33 H          -9.1283  -76.4972    8.0520 H         1 UNL1        0.0000
     34 H         -10.3685  -74.5589    7.2643 H         1 UNL1        0.0000
     35 H          -9.3578  -72.3903    7.5170 H         1 UNL1        0.0000
     36 H          -7.1946  -72.0900    8.5058 H         1 UNL1        0.0000
     37 H          -4.7658  -72.4769   10.6025 H         1 UNL1        0.0000
     38 H          -5.5421  -71.8803    9.1450 H         1 UNL1        0.0000
     39 H          -3.3205  -70.6673    9.2090 H         1 UNL1        0.0000
     40 H          -0.0988  -67.8200    8.3404 H         1 UNL1        0.0000
     41 H           1.2832  -68.6694    9.0523 H         1 UNL1        0.0000
     42 H           0.1438  -66.5436   10.1871 H         1 UNL1        0.0000
     43 H           0.9408  -67.8046   11.0880 H         1 UNL1        0.0000
     44 H          -2.3313  -69.4757   11.7186 H         1 UNL1        0.0000
     45 H          -0.7245  -69.4376   12.4231 H         1 UNL1        0.0000
     46 H          -1.5652  -70.9958   10.3140 H         1 UNL1        0.0000
     47 H           0.0994  -70.6979   10.8454 H         1 UNL1        0.0000
     48 H          -1.7167  -65.8089    9.8964 H         1 UNL1        0.0000
     49 H          -1.2166  -63.7149   11.7670 H         1 UNL1        0.0000
     50 H          -1.5033  -64.6016   12.9586 H         1 UNL1        0.0000
     51 H          -3.4927  -63.8245   10.6666 H         1 UNL1        0.0000
     52 H          -4.1751  -64.7337   11.6710 H         1 UNL1        0.0000
     53 H          -1.4811  -74.6026    7.1305 H         1 UNL1        0.0000
     54 H          -3.5980  -74.7011    8.2794 H         1 UNL1        0.0000
     55 H          -5.0436  -77.0087   10.0928 H         1 UNL1        0.0000
@<TRIPOS>BOND
     1    1   18 1
     2    1   21 1
     3    1   17 am
     4    2   19 1
     5    2   20 1
     6    2   22 am
     7    3    4 1
     8    3   12 2
     9    4    5 am
    10    4   55 1
    11    5   29 2
    12    5    6 1
    13    6    7 ar
    14    6   11 ar
    15    7    8 ar
    16    7   33 1
    17    8   34 1
    18    8    9 ar
    19    9   10 ar
    20    9   35 1
    21   10   11 ar
    22   10   36 1
    23   11   12 1
    24   12   13 1
    25   13   37 1
    26   13   38 1
    27   13   14 1
    28   14   15 ar
    29   14   28 ar
    30   15   39 1
    31   15   16 ar
    32   16   26 ar
    33   16   17 1
    34   17   31 2
    35   18   19 1
    36   18   40 1
    37   18   41 1
    38   19   42 1
    39   19   43 1
    40   20   21 1
    41   20   45 1
    42   20   44 1
    43   21   46 1
    44   21   47 1
    45   22   30 2
    46   22   23 1
    47   23   25 1
    48   23   24 1
    49   23   48 1
    50   24   25 1
    51   24   49 1
    52   24   50 1
    53   25   51 1
    54   25   52 1
    55   26   27 ar
    56   26   32 1
    57   27   28 ar
    58   27   53 1
    59   28   54 1
@<TRIPOS>SUBSTRUCTURE
1 UNL1 1
@<TRIPOS>COMMENT
olaparib
PLANTSproteinTorsions
102
4661 111.4746
5386 70.1655
6210 356.4375
5890 252.0925
4461 348.6826
1390 282.4622
2824 72.8702
4339 167.7674
2732 332.0228
4792 352.1369
3407 15.9835
5134 11.0129
6916 114.2122
7370 233.4926
6038 149.4959
7225 113.4821
3592 351.9048
2064 44.1150
2488 228.8700
1253 84.7404
2069 321.3165
2569 38.4676
3058 236.5699
1748 177.6868
1162 44.7572
1509 115.6163
560 192.8845
1627 132.8122
1941 197.5195
3631 205.5705
2381 251.5343
4221 275.6884
4687 254.2247
6983 202.1299
6668 24.5192
7305 238.6937
8693 168.5296
8404 32.8290
9055 256.6983
7052 45.0364
4708 73.3799
2652 205.0163
4332 181.7985
3011 150.2135
2257 245.5249
2778 158.7715
2057 66.4369
192 260.5680
315 310.3048
1085 203.1943
1007 19.9828
1407 117.7908
4816 99.8604
3131 231.6699
4654 45.7513
5144 27.7838
117 257.5544
6 264.8284
259 93.9456
1979 169.9216
2609 257.8069
2623 189.6062
5910 73.8899
5937 303.1153
2062 262.7901
890 4.7964
5008 142.3203
8602 75.5622
8478 117.1766
8300 252.8629
7721 308.4489
8466 147.4128
7852 216.5295
5849 232.4679
6302 190.4158
7439 249.7498
6284 91.7743
6003 172.9999
7165 282.1976
7623 267.0448
8158 172.8752
8667 47.5763
9078 89.9879
8684 260.4729
7666 110.6783
4231 264.3975
1659 218.4488
489 105.5721
238 123.3599
46 111.5206
83 193.2503
254 155.9125
1066 229.0911
2112 82.6147
4047 241.8206
5402 253.0928
2544 139.5830
4670 255.5745
4426 296.8132
5656 167.2220
7040 218.5943
6282 262.8896
PLANTSmolcadARTstart hb
PLANTSmolcadARTstart HB
LINES
PLANTSmolcadARTstart HBCH
LINES
PLANTSmolcadARTstart HB-CHO
LINES
PLANTSmolcadARTend
PLANTSmolcadARTstart HB_WATER
LINES
PLANTSmolcadARTend

PLANTSmolcadARTend

