@<TRIPOS>MOLECULE
olaparib_entry_00001_conf_87
55 59 1
SMALL
NO_CHARGES


@<TRIPOS>ATOM
      1 N         -69.1517  -57.2814  -12.7058 N.am      1 UNL1        0.0000
      2 N         -68.3742  -57.1473  -10.2308 N.am      1 UNL1        0.0000
      3 N         -68.2836  -56.0391  -17.8903 N.2       1 UNL1        0.0000
      4 N         -69.1920  -55.7520  -18.7908 N.am      1 UNL1        0.0000
      5 C         -68.9583  -55.7940  -20.1101 C.2       1 UNL1        0.0000
      6 C         -67.7017  -56.1560  -20.5502 C.ar      1 UNL1        0.0000
      7 C         -67.3990  -56.1965  -21.9118 C.ar      1 UNL1        0.0000
      8 C         -66.1307  -56.5402  -22.3277 C.ar      1 UNL1        0.0000
      9 C         -65.2079  -56.8311  -21.3454 C.ar      1 UNL1        0.0000
     10 C         -65.4943  -56.7946  -19.9909 C.ar      1 UNL1        0.0000
     11 C         -66.7530  -56.4557  -19.5900 C.ar      1 UNL1        0.0000
     12 C         -67.0146  -56.4074  -18.2470 C.2       1 UNL1        0.0000
     13 C         -66.1215  -56.7638  -17.1522 C.3       1 UNL1        0.0000
     14 C         -66.6893  -57.8882  -16.3581 C.ar      1 UNL1        0.0000
     15 C         -67.7365  -57.5446  -15.4848 C.ar      1 UNL1        0.0000
     16 C         -68.3186  -58.5124  -14.7016 C.ar      1 UNL1        0.0000
     17 C         -69.4205  -58.1815  -13.7700 C.2       1 UNL1        0.0000
     18 C         -70.1900  -56.9345  -11.7901 C.3       1 UNL1        0.0000
     19 C         -69.6592  -56.5296  -10.4316 C.3       1 UNL1        0.0000
     20 C         -67.3020  -56.7687  -11.1576 C.3       1 UNL1        0.0000
     21 C         -67.8158  -56.7304  -12.5738 C.3       1 UNL1        0.0000
     22 C         -68.1360  -58.0691   -9.2071 C.2       1 UNL1        0.0000
     23 C         -69.1008  -58.5560   -8.2176 C.3       1 UNL1        0.0000
     24 C         -69.2256  -57.7406   -6.9505 C.3       1 UNL1        0.0000
     25 C         -68.6498  -59.0865   -6.9043 C.3       1 UNL1        0.0000
     26 C         -67.9310  -59.8313  -14.7197 C.ar      1 UNL1        0.0000
     27 C         -66.9058  -60.1664  -15.5749 C.ar      1 UNL1        0.0000
     28 C         -66.3090  -59.1813  -16.3747 C.ar      1 UNL1        0.0000
     29 O         -69.8166  -55.5235  -20.9887 O.2       1 UNL1        0.0000
     30 O         -66.9524  -58.5531   -9.1066 O.2       1 UNL1        0.0000
     31 O         -70.5683  -58.6674  -13.8936 O.2       1 UNL1        0.0000
     32 F         -68.5406  -60.7553  -13.9214 F         1 UNL1        0.0000
     33 H         -68.1256  -55.9694  -22.6085 H         1 UNL1        0.0000
     34 H         -65.8833  -56.5775  -23.3280 H         1 UNL1        0.0000
     35 H         -64.2522  -57.0895  -21.6352 H         1 UNL1        0.0000
     36 H         -64.7667  -57.0207  -19.2946 H         1 UNL1        0.0000
     37 H         -65.9889  -55.9144  -16.5150 H         1 UNL1        0.0000
     38 H         -65.1811  -57.0714  -17.5600 H         1 UNL1        0.0000
     39 H         -68.0668  -56.5686  -15.4318 H         1 UNL1        0.0000
     40 H         -70.8354  -57.7795  -11.6681 H         1 UNL1        0.0000
     41 H         -70.7122  -56.0933  -12.1972 H         1 UNL1        0.0000
     42 H         -70.3370  -56.8533   -9.6700 H         1 UNL1        0.0000
     43 H         -69.5620  -55.4649  -10.3830 H         1 UNL1        0.0000
     44 H         -66.5091  -57.4838  -11.0907 H         1 UNL1        0.0000
     45 H         -66.9443  -55.7951  -10.8944 H         1 UNL1        0.0000
     46 H         -67.1517  -57.2961  -13.1936 H         1 UNL1        0.0000
     47 H         -67.8616  -55.7043  -12.8709 H         1 UNL1        0.0000
     48 H         -69.7459  -58.9332   -8.9832 H         1 UNL1        0.0000
     49 H         -70.1903  -57.5561   -6.5255 H         1 UNL1        0.0000
     50 H         -68.9044  -56.7678   -6.6415 H         1 UNL1        0.0000
     51 H         -69.1940  -59.8806   -6.4370 H         1 UNL1        0.0000
     52 H         -67.7309  -59.4929   -6.5386 H         1 UNL1        0.0000
     53 H         -66.5767  -61.1437  -15.6274 H         1 UNL1        0.0000
     54 H         -65.5419  -59.4593  -17.0071 H         1 UNL1        0.0000
     55 H         -70.0908  -55.4932  -18.4826 H         1 UNL1        0.0000
@<TRIPOS>BOND
     1    1   18 1
     2    1   21 1
     3    1   17 am
     4    2   19 1
     5    2   20 1
     6    2   22 am
     7    3    4 1
     8    3   12 2
     9    4    5 am
    10    4   55 1
    11    5   29 2
    12    5    6 1
    13    6    7 ar
    14    6   11 ar
    15    7    8 ar
    16    7   33 1
    17    8   34 1
    18    8    9 ar
    19    9   10 ar
    20    9   35 1
    21   10   11 ar
    22   10   36 1
    23   11   12 1
    24   12   13 1
    25   13   37 1
    26   13   38 1
    27   13   14 1
    28   14   15 ar
    29   14   28 ar
    30   15   39 1
    31   15   16 ar
    32   16   26 ar
    33   16   17 1
    34   17   31 2
    35   18   19 1
    36   18   40 1
    37   18   41 1
    38   19   42 1
    39   19   43 1
    40   20   21 1
    41   20   45 1
    42   20   44 1
    43   21   46 1
    44   21   47 1
    45   22   30 2
    46   22   23 1
    47   23   25 1
    48   23   24 1
    49   23   48 1
    50   24   25 1
    51   24   49 1
    52   24   50 1
    53   25   51 1
    54   25   52 1
    55   26   27 ar
    56   26   32 1
    57   27   28 ar
    58   27   53 1
    59   28   54 1
@<TRIPOS>SUBSTRUCTURE
1 UNL1 1
@<TRIPOS>COMMENT
olaparib
PLANTSproteinTorsions
102
4661 226.7027
5386 339.9010
6210 238.6810
5890 347.3103
4461 41.4050
1390 209.0625
2824 227.1317
4339 120.9535
2732 220.1290
4792 120.8117
3407 109.5353
5134 219.5520
6916 56.4253
7370 117.1779
6038 261.8783
7225 52.4327
3592 170.5269
2064 36.2564
2488 310.6891
1253 321.0157
2069 6.4445
2569 140.9653
3058 118.9381
1748 21.3779
1162 70.8511
1509 163.5235
560 138.1076
1627 17.4106
1941 47.3468
3631 346.0155
2381 327.9182
4221 168.9865
4687 241.2143
6983 153.2574
6668 113.8640
7305 3.8844
8693 95.5896
8404 264.5869
9055 108.1896
7052 153.9280
4708 65.3725
2652 113.0827
4332 165.2827
3011 41.4704
2257 54.6347
2778 215.1205
2057 243.8622
192 226.5496
315 15.6135
1085 229.2278
1007 122.0385
1407 168.2486
4816 33.0275
3131 78.8609
4654 71.6754
5144 51.5835
117 201.7338
6 80.9915
259 270.6252
1979 104.0347
2609 89.7211
2623 205.8783
5910 291.3474
5937 220.2440
2062 4.8741
890 153.2279
5008 355.4623
8602 308.9260
8478 36.2474
8300 64.7879
7721 49.7685
8466 46.2993
7852 206.1610
5849 43.4040
6302 276.6796
7439 177.5579
6284 113.1156
6003 40.2620
7165 206.9805
7623 217.3036
8158 179.7935
8667 263.3955
9078 358.1353
8684 220.0840
7666 202.1570
4231 315.0954
1659 303.0017
489 155.5021
238 85.3177
46 215.8569
83 121.8078
254 197.1530
1066 202.3737
2112 246.7196
4047 263.8881
5402 323.7029
2544 81.9789
4670 245.7529
4426 228.9402
5656 182.4889
7040 70.0096
6282 266.2903
PLANTSmolcadARTstart hb
PLANTSmolcadARTstart HB
LINES
PLANTSmolcadARTstart HBCH
LINES
PLANTSmolcadARTstart HB-CHO
LINES
PLANTSmolcadARTend
PLANTSmolcadARTstart HB_WATER
LINES
PLANTSmolcadARTend

PLANTSmolcadARTend

