@<TRIPOS>MOLECULE
olaparib_entry_00001_conf_06
55 59 1
SMALL
NO_CHARGES


@<TRIPOS>ATOM
      1 N          -0.3351  -70.6003    7.2369 N.am      1 UNL1        0.0000
      2 N           0.7841  -70.5933    4.8926 N.am      1 UNL1        0.0000
      3 N          -6.1880  -72.9745   11.4902 N.2       1 UNL1        0.0000
      4 N          -6.9481  -73.8898   12.0407 N.am      1 UNL1        0.0000
      5 C          -7.9080  -74.5464   11.3742 C.2       1 UNL1        0.0000
      6 C          -8.1128  -74.2497   10.0423 C.ar      1 UNL1        0.0000
      7 C          -9.1116  -74.8889    9.3069 C.ar      1 UNL1        0.0000
      8 C          -9.3122  -74.5611    7.9833 C.ar      1 UNL1        0.0000
      9 C          -8.4912  -73.5912    7.4480 C.ar      1 UNL1        0.0000
     10 C          -7.4966  -72.9486    8.1660 C.ar      1 UNL1        0.0000
     11 C          -7.3046  -73.2822    9.4743 C.ar      1 UNL1        0.0000
     12 C          -6.3288  -72.6248   10.1745 C.2       1 UNL1        0.0000
     13 C          -5.3784  -71.6427    9.6694 C.3       1 UNL1        0.0000
     14 C          -4.2390  -72.3181    8.9890 C.ar      1 UNL1        0.0000
     15 C          -3.0255  -71.6075    8.9901 C.ar      1 UNL1        0.0000
     16 C          -1.9186  -72.1443    8.3776 C.ar      1 UNL1        0.0000
     17 C          -0.6281  -71.4192    8.3588 C.2       1 UNL1        0.0000
     18 C           0.8971  -69.8819    7.1850 C.3       1 UNL1        0.0000
     19 C           1.3492  -69.5999    5.7682 C.3       1 UNL1        0.0000
     20 C          -0.6789  -70.6394    4.7953 C.3       1 UNL1        0.0000
     21 C          -1.3043  -70.5123    6.1606 C.3       1 UNL1        0.0000
     22 C           1.5734  -71.4845    4.1598 C.2       1 UNL1        0.0000
     23 C           3.0360  -71.5724    4.1609 C.3       1 UNL1        0.0000
     24 C           3.7661  -70.5505    3.3189 C.3       1 UNL1        0.0000
     25 C           3.7810  -71.9640    2.9356 C.3       1 UNL1        0.0000
     26 C          -1.9234  -73.3661    7.7474 C.ar      1 UNL1        0.0000
     27 C          -3.1118  -74.0609    7.7470 C.ar      1 UNL1        0.0000
     28 C          -4.2434  -73.5156    8.3701 C.ar      1 UNL1        0.0000
     29 O          -8.6460  -75.4279   11.8842 O.2       1 UNL1        0.0000
     30 O           0.9720  -72.3242    3.3992 O.2       1 UNL1        0.0000
     31 O           0.2012  -71.5071    9.2933 O.2       1 UNL1        0.0000
     32 F          -0.7970  -73.8560    7.1525 F         1 UNL1        0.0000
     33 H          -9.7006  -75.6086    9.7542 H         1 UNL1        0.0000
     34 H         -10.0435  -75.0199    7.4194 H         1 UNL1        0.0000
     35 H          -8.6255  -73.3300    6.4592 H         1 UNL1        0.0000
     36 H          -6.9086  -72.2280    7.7183 H         1 UNL1        0.0000
     37 H          -5.0056  -71.0606   10.4863 H         1 UNL1        0.0000
     38 H          -5.8762  -71.0123    8.9623 H         1 UNL1        0.0000
     39 H          -2.9665  -70.6853    9.4492 H         1 UNL1        0.0000
     40 H           1.6515  -70.4599    7.6770 H         1 UNL1        0.0000
     41 H           0.7424  -68.9395    7.6688 H         1 UNL1        0.0000
     42 H           2.4169  -69.6406    5.7171 H         1 UNL1        0.0000
     43 H           1.0223  -68.6252    5.4706 H         1 UNL1        0.0000
     44 H          -0.9742  -71.5705    4.3589 H         1 UNL1        0.0000
     45 H          -1.0114  -69.8244    4.1868 H         1 UNL1        0.0000
     46 H          -2.0206  -71.2979    6.2828 H         1 UNL1        0.0000
     47 H          -1.7586  -69.5461    6.2168 H         1 UNL1        0.0000
     48 H           3.0476  -71.9182    5.1732 H         1 UNL1        0.0000
     49 H           4.6561  -70.0875    3.6915 H         1 UNL1        0.0000
     50 H           3.4948  -69.6364    2.8335 H         1 UNL1        0.0000
     51 H           4.6865  -72.5276    3.0220 H         1 UNL1        0.0000
     52 H           3.5261  -72.4985    2.0453 H         1 UNL1        0.0000
     53 H          -3.1693  -74.9839    7.2877 H         1 UNL1        0.0000
     54 H          -5.1221  -74.0571    8.3550 H         1 UNL1        0.0000
     55 H          -6.8063  -74.1060   12.9910 H         1 UNL1        0.0000
@<TRIPOS>BOND
     1    1   18 1
     2    1   21 1
     3    1   17 am
     4    2   19 1
     5    2   20 1
     6    2   22 am
     7    3    4 1
     8    3   12 2
     9    4    5 am
    10    4   55 1
    11    5   29 2
    12    5    6 1
    13    6    7 ar
    14    6   11 ar
    15    7    8 ar
    16    7   33 1
    17    8   34 1
    18    8    9 ar
    19    9   10 ar
    20    9   35 1
    21   10   11 ar
    22   10   36 1
    23   11   12 1
    24   12   13 1
    25   13   37 1
    26   13   38 1
    27   13   14 1
    28   14   15 ar
    29   14   28 ar
    30   15   39 1
    31   15   16 ar
    32   16   26 ar
    33   16   17 1
    34   17   31 2
    35   18   19 1
    36   18   40 1
    37   18   41 1
    38   19   42 1
    39   19   43 1
    40   20   21 1
    41   20   45 1
    42   20   44 1
    43   21   46 1
    44   21   47 1
    45   22   30 2
    46   22   23 1
    47   23   25 1
    48   23   24 1
    49   23   48 1
    50   24   25 1
    51   24   49 1
    52   24   50 1
    53   25   51 1
    54   25   52 1
    55   26   27 ar
    56   26   32 1
    57   27   28 ar
    58   27   53 1
    59   28   54 1
@<TRIPOS>SUBSTRUCTURE
1 UNL1 1
@<TRIPOS>COMMENT
olaparib
PLANTSproteinTorsions
102
4661 121.9297
5386 292.4231
6210 349.5305
5890 165.9912
4461 41.5690
1390 266.0792
2824 88.0138
4339 168.6587
2732 70.7352
4792 310.0596
3407 39.5537
5134 13.7451
6916 113.8144
7370 346.3586
6038 149.9755
7225 123.2417
3592 345.3639
2064 53.2395
2488 260.0747
1253 79.7509
2069 53.5360
2569 25.6243
3058 15.4647
1748 165.6184
1162 353.8922
1509 178.3975
560 190.5087
1627 172.0148
1941 248.0434
3631 176.0343
2381 238.0770
4221 65.4888
4687 246.0935
6983 87.5768
6668 21.0763
7305 328.8857
8693 177.3077
8404 13.2247
9055 256.6114
7052 102.3991
4708 76.7580
2652 247.7299
4332 321.6965
3011 171.1995
2257 234.7681
2778 168.4841
2057 248.5631
192 259.7316
315 205.6599
1085 13.1155
1007 42.4851
1407 259.6654
4816 326.7104
3131 234.5941
4654 122.3962
5144 252.0619
117 264.8608
6 74.5159
259 130.4060
1979 39.3890
2609 179.4568
2623 206.2906
5910 154.7725
5937 151.9630
2062 307.7904
890 8.2042
5008 146.9589
8602 71.6623
8478 84.8848
8300 195.6387
7721 241.3420
8466 131.1599
7852 209.7144
5849 205.7735
6302 162.5125
7439 291.9633
6284 79.6970
6003 123.5554
7165 289.8800
7623 271.7689
8158 153.9506
8667 358.6777
9078 106.7336
8684 98.2978
7666 216.8981
4231 284.1772
1659 223.5853
489 279.7597
238 268.8607
46 10.0255
83 195.5793
254 160.9403
1066 207.0797
2112 79.4050
4047 246.6036
5402 216.9220
2544 143.2307
4670 173.8905
4426 235.4792
5656 152.0620
7040 173.8634
6282 261.0522
PLANTSmolcadARTstart hb
PLANTSmolcadARTstart HB
LINES
PLANTSmolcadARTstart HBCH
LINES
PLANTSmolcadARTstart HB-CHO
LINES
PLANTSmolcadARTend
PLANTSmolcadARTstart HB_WATER
LINES
PLANTSmolcadARTend

PLANTSmolcadARTend

