@<TRIPOS>MOLECULE
olaparib_entry_00001_conf_21
55 59 1
SMALL
NO_CHARGES


@<TRIPOS>ATOM
      1 N         -25.6477  -32.6258    2.8833 N.am      1 UNL1        0.0000
      2 N         -24.6774  -30.2611    3.3474 N.am      1 UNL1        0.0000
      3 N         -22.7528  -37.7104    3.5755 N.2       1 UNL1        0.0000
      4 N         -23.0195  -38.5406    4.5544 N.am      1 UNL1        0.0000
      5 C         -22.0731  -39.1982    5.2389 C.2       1 UNL1        0.0000
      6 C         -20.7502  -38.9972    4.9024 C.ar      1 UNL1        0.0000
      7 C         -19.7265  -39.6715    5.5692 C.ar      1 UNL1        0.0000
      8 C         -18.4134  -39.4713    5.2018 C.ar      1 UNL1        0.0000
      9 C         -18.1812  -38.5918    4.1655 C.ar      1 UNL1        0.0000
     10 C         -19.1871  -37.9163    3.4948 C.ar      1 UNL1        0.0000
     11 C         -20.4829  -38.1196    3.8680 C.ar      1 UNL1        0.0000
     12 C         -21.4662  -37.4573    3.1831 C.2       1 UNL1        0.0000
     13 C         -21.3036  -36.4655    2.1282 C.3       1 UNL1        0.0000
     14 C         -22.6304  -36.0014    1.6367 C.ar      1 UNL1        0.0000
     15 C         -23.3900  -35.2560    2.5559 C.ar      1 UNL1        0.0000
     16 C         -24.6333  -34.7924    2.1982 C.ar      1 UNL1        0.0000
     17 C         -25.4582  -34.0081    3.1446 C.2       1 UNL1        0.0000
     18 C         -26.4407  -31.8377    3.7704 C.3       1 UNL1        0.0000
     19 C         -26.0532  -30.3746    3.7564 C.3       1 UNL1        0.0000
     20 C         -24.3439  -30.7291    1.9977 C.3       1 UNL1        0.0000
     21 C         -25.0251  -32.0422    1.7096 C.3       1 UNL1        0.0000
     22 C         -23.6873  -29.7336    4.1814 C.2       1 UNL1        0.0000
     23 C         -23.8589  -29.2411    5.5508 C.3       1 UNL1        0.0000
     24 C         -24.6064  -27.9355    5.7011 C.3       1 UNL1        0.0000
     25 C         -23.1765  -28.0033    6.0109 C.3       1 UNL1        0.0000
     26 C         -25.1958  -35.0172    0.9641 C.ar      1 UNL1        0.0000
     27 C         -24.4514  -35.7469    0.0651 C.ar      1 UNL1        0.0000
     28 C         -23.1829  -36.2224    0.4271 C.ar      1 UNL1        0.0000
     29 O         -22.3090  -39.9971    6.1813 O.2       1 UNL1        0.0000
     30 O         -22.4934  -29.6654    3.7173 O.2       1 UNL1        0.0000
     31 O         -25.9870  -34.5239    4.1561 O.2       1 UNL1        0.0000
     32 F         -26.4353  -34.5357    0.6570 F         1 UNL1        0.0000
     33 H         -19.9527  -40.3206    6.3390 H         1 UNL1        0.0000
     34 H         -17.6399  -39.9576    5.6797 H         1 UNL1        0.0000
     35 H         -17.2053  -38.4285    3.8738 H         1 UNL1        0.0000
     36 H         -18.9602  -37.2681    2.7243 H         1 UNL1        0.0000
     37 H         -20.7598  -36.9009    1.3160 H         1 UNL1        0.0000
     38 H         -20.7704  -35.6257    2.5230 H         1 UNL1        0.0000
     39 H         -23.0150  -35.0581    3.4966 H         1 UNL1        0.0000
     40 H         -26.3197  -32.2150    4.7646 H         1 UNL1        0.0000
     41 H         -27.4575  -31.9062    3.4424 H         1 UNL1        0.0000
     42 H         -26.1726  -29.9619    4.7361 H         1 UNL1        0.0000
     43 H         -26.6804  -29.8400    3.0736 H         1 UNL1        0.0000
     44 H         -23.2847  -30.8585    1.9209 H         1 UNL1        0.0000
     45 H         -24.6798  -30.0034    1.2866 H         1 UNL1        0.0000
     46 H         -24.2965  -32.7299    1.3336 H         1 UNL1        0.0000
     47 H         -25.7994  -31.8525    0.9971 H         1 UNL1        0.0000
     48 H         -23.9191  -30.2370    5.9368 H         1 UNL1        0.0000
     49 H         -25.3199  -27.8150    6.4895 H         1 UNL1        0.0000
     50 H         -25.2152  -27.3334    5.0593 H         1 UNL1        0.0000
     51 H         -22.8494  -27.9233    7.0266 H         1 UNL1        0.0000
     52 H         -22.3157  -27.4595    5.6845 H         1 UNL1        0.0000
     53 H         -24.8275  -35.9438   -0.8762 H         1 UNL1        0.0000
     54 H         -22.6457  -36.7674   -0.2657 H         1 UNL1        0.0000
     55 H         -23.9620  -38.6877    4.7992 H         1 UNL1        0.0000
@<TRIPOS>BOND
     1    1   18 1
     2    1   21 1
     3    1   17 am
     4    2   19 1
     5    2   20 1
     6    2   22 am
     7    3    4 1
     8    3   12 2
     9    4    5 am
    10    4   55 1
    11    5   29 2
    12    5    6 1
    13    6    7 ar
    14    6   11 ar
    15    7    8 ar
    16    7   33 1
    17    8   34 1
    18    8    9 ar
    19    9   10 ar
    20    9   35 1
    21   10   11 ar
    22   10   36 1
    23   11   12 1
    24   12   13 1
    25   13   37 1
    26   13   38 1
    27   13   14 1
    28   14   15 ar
    29   14   28 ar
    30   15   39 1
    31   15   16 ar
    32   16   26 ar
    33   16   17 1
    34   17   31 2
    35   18   19 1
    36   18   40 1
    37   18   41 1
    38   19   42 1
    39   19   43 1
    40   20   21 1
    41   20   45 1
    42   20   44 1
    43   21   46 1
    44   21   47 1
    45   22   30 2
    46   22   23 1
    47   23   25 1
    48   23   24 1
    49   23   48 1
    50   24   25 1
    51   24   49 1
    52   24   50 1
    53   25   51 1
    54   25   52 1
    55   26   27 ar
    56   26   32 1
    57   27   28 ar
    58   27   53 1
    59   28   54 1
@<TRIPOS>SUBSTRUCTURE
1 UNL1 1
@<TRIPOS>COMMENT
olaparib
PLANTSproteinTorsions
102
4661 140.8053
5386 149.6739
6210 3.8098
5890 67.4246
4461 1.3470
1390 64.8135
2824 223.9208
4339 130.1393
2732 13.9583
4792 27.6673
3407 63.3359
5134 151.8221
6916 20.3087
7370 209.3238
6038 92.1966
7225 16.7902
3592 282.0830
2064 51.1608
2488 180.0057
1253 11.1829
2069 226.7286
2569 134.3951
3058 150.2675
1748 187.5705
1162 89.4854
1509 310.0663
560 263.2943
1627 230.0785
1941 207.7957
3631 100.3069
2381 237.4295
4221 250.0058
4687 14.6418
6983 188.8623
6668 32.5382
7305 218.1535
8693 41.5276
8404 235.6977
9055 224.6614
7052 349.2300
4708 57.7035
2652 176.7800
4332 204.4864
3011 64.7087
2257 256.2390
2778 201.2087
2057 49.0272
192 70.8481
315 298.0614
1085 41.5747
1007 323.9230
1407 175.1820
4816 59.1150
3131 142.5990
4654 50.4652
5144 312.2938
117 138.2680
6 57.0464
259 88.9619
1979 198.9442
2609 238.8402
2623 115.7679
5910 187.0765
5937 47.2607
2062 118.5867
890 291.6390
5008 21.7226
8602 156.4837
8478 305.1999
8300 123.1072
7721 154.9283
8466 92.4516
7852 199.5966
5849 272.2487
6302 18.3617
7439 150.4072
6284 239.8078
6003 13.9148
7165 228.7930
7623 233.9439
8158 264.5594
8667 220.6406
9078 69.6324
8684 85.9407
7666 233.1638
4231 205.8997
1659 269.9281
489 267.7690
238 94.7459
46 238.4371
83 131.8099
254 111.9665
1066 211.6068
2112 204.8319
4047 133.5603
5402 47.0320
2544 49.4146
4670 348.7720
4426 12.6886
5656 180.8261
7040 260.5322
6282 241.8021
PLANTSmolcadARTstart hb
PLANTSmolcadARTstart HB
LINES
PLANTSmolcadARTstart HBCH
LINES
PLANTSmolcadARTstart HB-CHO
LINES
PLANTSmolcadARTend
PLANTSmolcadARTstart HB_WATER
LINES
PLANTSmolcadARTend

PLANTSmolcadARTend

