@<TRIPOS>MOLECULE
olaparib_entry_00001_conf_99
55 59 1
SMALL
NO_CHARGES


@<TRIPOS>ATOM
      1 N         -18.4475  -42.2898   -2.8323 N.am      1 UNL1        0.0000
      2 N         -17.5018  -39.8773   -3.0161 N.am      1 UNL1        0.0000
      3 N         -15.6911  -47.5781    1.8423 N.2       1 UNL1        0.0000
      4 N         -15.0318  -47.7606    2.9606 N.am      1 UNL1        0.0000
      5 C         -14.0136  -46.9801    3.3494 C.2       1 UNL1        0.0000
      6 C         -13.6344  -45.9308    2.5377 C.ar      1 UNL1        0.0000
      7 C         -12.5685  -45.1000    2.8849 C.ar      1 UNL1        0.0000
      8 C         -12.1935  -44.0709    2.0482 C.ar      1 UNL1        0.0000
      9 C         -12.9137  -43.9191    0.8823 C.ar      1 UNL1        0.0000
     10 C         -13.9732  -44.7362    0.5250 C.ar      1 UNL1        0.0000
     11 C         -14.3378  -45.7499    1.3611 C.ar      1 UNL1        0.0000
     12 C         -15.3759  -46.5592    0.9846 C.2       1 UNL1        0.0000
     13 C         -16.2279  -46.4266   -0.1900 C.3       1 UNL1        0.0000
     14 C         -17.3264  -45.4547    0.0670 C.ar      1 UNL1        0.0000
     15 C         -17.8089  -44.7730   -1.0645 C.ar      1 UNL1        0.0000
     16 C         -18.8158  -43.8478   -0.9272 C.ar      1 UNL1        0.0000
     17 C         -19.3426  -43.1115   -2.0984 C.2       1 UNL1        0.0000
     18 C         -18.9173  -41.5682   -3.9706 C.3       1 UNL1        0.0000
     19 C         -18.1073  -40.3194   -4.2453 C.3       1 UNL1        0.0000
     20 C         -16.5437  -40.7887   -2.3811 C.3       1 UNL1        0.0000
     21 C         -17.0637  -42.2030   -2.4039 C.3       1 UNL1        0.0000
     22 C         -17.7987  -38.6410   -2.4351 C.2       1 UNL1        0.0000
     23 C         -18.7375  -37.6341   -2.9371 C.3       1 UNL1        0.0000
     24 C         -18.1229  -36.3960   -3.5498 C.3       1 UNL1        0.0000
     25 C         -18.8552  -36.3036   -2.2847 C.3       1 UNL1        0.0000
     26 C         -19.3970  -43.5391    0.2799 C.ar      1 UNL1        0.0000
     27 C         -18.9239  -44.2069    1.3867 C.ar      1 UNL1        0.0000
     28 C         -17.8959  -45.1509    1.2503 C.ar      1 UNL1        0.0000
     29 O         -13.3702  -47.1384    4.4184 O.2       1 UNL1        0.0000
     30 O         -17.1959  -38.3365   -1.3446 O.2       1 UNL1        0.0000
     31 O         -20.5405  -43.1928   -2.4550 O.2       1 UNL1        0.0000
     32 F         -20.3944  -42.6113    0.3644 F         1 UNL1        0.0000
     33 H         -12.0604  -45.2555    3.7696 H         1 UNL1        0.0000
     34 H         -11.4097  -43.4436    2.2834 H         1 UNL1        0.0000
     35 H         -12.6485  -43.1556    0.2412 H         1 UNL1        0.0000
     36 H         -14.4801  -44.5807   -0.3606 H         1 UNL1        0.0000
     37 H         -16.6503  -47.3804   -0.4284 H         1 UNL1        0.0000
     38 H         -15.6365  -46.0687   -1.0070 H         1 UNL1        0.0000
     39 H         -17.4079  -44.9668   -1.9952 H         1 UNL1        0.0000
     40 H         -19.9356  -41.2860   -3.8006 H         1 UNL1        0.0000
     41 H         -18.8215  -42.2099   -4.8221 H         1 UNL1        0.0000
     42 H         -18.7479  -39.5525   -4.6271 H         1 UNL1        0.0000
     43 H         -17.3476  -40.5320   -4.9686 H         1 UNL1        0.0000
     44 H         -16.3897  -40.4874   -1.3662 H         1 UNL1        0.0000
     45 H         -15.6207  -40.7523   -2.9212 H         1 UNL1        0.0000
     46 H         -16.9867  -42.6114   -1.4178 H         1 UNL1        0.0000
     47 H         -16.4751  -42.7500   -3.1093 H         1 UNL1        0.0000
     48 H         -19.4472  -38.3854   -3.2133 H         1 UNL1        0.0000
     49 H         -18.5400  -35.9767   -4.4417 H         1 UNL1        0.0000
     50 H         -17.1428  -36.1214   -3.8800 H         1 UNL1        0.0000
     51 H         -19.8033  -35.8083   -2.2556 H         1 UNL1        0.0000
     52 H         -18.6207  -35.9250   -1.3127 H         1 UNL1        0.0000
     53 H         -19.3265  -44.0125    2.3175 H         1 UNL1        0.0000
     54 H         -17.5593  -45.6372    2.0963 H         1 UNL1        0.0000
     55 H         -15.2983  -48.5078    3.5442 H         1 UNL1        0.0000
@<TRIPOS>BOND
     1    1   18 1
     2    1   21 1
     3    1   17 am
     4    2   19 1
     5    2   20 1
     6    2   22 am
     7    3    4 1
     8    3   12 2
     9    4    5 am
    10    4   55 1
    11    5   29 2
    12    5    6 1
    13    6    7 ar
    14    6   11 ar
    15    7    8 ar
    16    7   33 1
    17    8   34 1
    18    8    9 ar
    19    9   10 ar
    20    9   35 1
    21   10   11 ar
    22   10   36 1
    23   11   12 1
    24   12   13 1
    25   13   37 1
    26   13   38 1
    27   13   14 1
    28   14   15 ar
    29   14   28 ar
    30   15   39 1
    31   15   16 ar
    32   16   26 ar
    33   16   17 1
    34   17   31 2
    35   18   19 1
    36   18   40 1
    37   18   41 1
    38   19   42 1
    39   19   43 1
    40   20   21 1
    41   20   45 1
    42   20   44 1
    43   21   46 1
    44   21   47 1
    45   22   30 2
    46   22   23 1
    47   23   25 1
    48   23   24 1
    49   23   48 1
    50   24   25 1
    51   24   49 1
    52   24   50 1
    53   25   51 1
    54   25   52 1
    55   26   27 ar
    56   26   32 1
    57   27   28 ar
    58   27   53 1
    59   28   54 1
@<TRIPOS>SUBSTRUCTURE
1 UNL1 1
@<TRIPOS>COMMENT
olaparib
PLANTSproteinTorsions
102
4661 195.5121
5386 236.0753
6210 216.2500
5890 62.4659
4461 303.8610
1390 26.4695
2824 233.9355
4339 7.2001
2732 130.3343
4792 192.2940
3407 21.3551
5134 2.7861
6916 137.0959
7370 253.5986
6038 167.5191
7225 290.1942
3592 70.3157
2064 147.4987
2488 226.8255
1253 133.3974
2069 261.0084
2569 210.1144
3058 125.5410
1748 6.2405
1162 166.7683
1509 261.7895
560 275.5274
1627 149.3471
1941 21.8176
3631 213.8544
2381 127.6344
4221 344.3039
4687 350.6336
6983 357.6409
6668 354.4827
7305 142.0969
8693 12.3890
8404 62.9015
9055 12.5935
7052 21.3027
4708 63.9532
2652 214.6792
4332 53.5252
3011 264.3859
2257 181.7988
2778 194.4809
2057 174.5414
192 119.2661
315 88.0420
1085 200.0686
1007 129.1717
1407 15.8804
4816 222.5794
3131 182.6253
4654 208.9933
5144 35.8019
117 339.1653
6 184.4856
259 73.3245
1979 215.2966
2609 172.0011
2623 197.4790
5910 107.9314
5937 312.4075
2062 270.0324
890 222.7852
5008 247.0092
8602 133.2340
8478 150.0392
8300 132.4504
7721 37.0121
8466 88.5737
7852 173.4744
5849 276.6420
6302 17.8437
7439 60.8771
6284 224.8502
6003 67.3796
7165 158.4742
7623 278.1575
8158 255.7105
8667 198.7198
9078 9.8642
8684 110.9407
7666 194.2058
4231 130.5525
1659 338.9133
489 116.4568
238 21.6212
46 178.2982
83 101.3565
254 277.2212
1066 172.9117
2112 251.3792
4047 249.8044
5402 230.1373
2544 231.2343
4670 122.2087
4426 157.2900
5656 61.2871
7040 262.9095
6282 283.7247
PLANTSmolcadARTstart hb
PLANTSmolcadARTstart HB
LINES
-15.2983 -48.5078 3.54418 -15.738 -49.952 3.818 0 255 0 5
PLANTSmolcadARTstart HBCH
LINES
PLANTSmolcadARTstart HB-CHO
LINES
PLANTSmolcadARTend
PLANTSmolcadARTstart HB_WATER
LINES
PLANTSmolcadARTend

PLANTSmolcadARTend

