@<TRIPOS>MOLECULE
olaparib_entry_00001_conf_89
55 59 1
SMALL
NO_CHARGES


@<TRIPOS>ATOM
      1 N          -2.4972  -55.8898    8.7645 N.am      1 UNL1        0.0000
      2 N          -3.7833  -53.6569    8.4354 N.am      1 UNL1        0.0000
      3 N          -2.7834  -62.3588    8.4017 N.2       1 UNL1        0.0000
      4 N          -2.1007  -63.4603    8.6000 N.am      1 UNL1        0.0000
      5 C          -1.8890  -64.3761    7.6443 C.2       1 UNL1        0.0000
      6 C          -2.4127  -64.1561    6.3868 C.ar      1 UNL1        0.0000
      7 C          -2.2392  -65.0862    5.3612 C.ar      1 UNL1        0.0000
      8 C          -2.7895  -64.8554    4.1188 C.ar      1 UNL1        0.0000
      9 C          -3.5013  -63.6856    3.9577 C.ar      1 UNL1        0.0000
     10 C          -3.6817  -62.7541    4.9665 C.ar      1 UNL1        0.0000
     11 C          -3.1309  -62.9909    6.1915 C.ar      1 UNL1        0.0000
     12 C          -3.3335  -62.0683    7.1826 C.2       1 UNL1        0.0000
     13 C          -4.0106  -60.7824    7.0776 C.3       1 UNL1        0.0000
     14 C          -3.0661  -59.7297    6.6117 C.ar      1 UNL1        0.0000
     15 C          -2.7167  -58.7622    7.5705 C.ar      1 UNL1        0.0000
     16 C          -1.8583  -57.7436    7.2323 C.ar      1 UNL1        0.0000
     17 C          -1.4742  -56.7083    8.2182 C.2       1 UNL1        0.0000
     18 C          -2.1665  -54.8839    9.7215 C.3       1 UNL1        0.0000
     19 C          -3.1541  -53.7369    9.7280 C.3       1 UNL1        0.0000
     20 C          -4.5835  -54.8113    8.0125 C.3       1 UNL1        0.0000
     21 C          -3.8671  -56.0978    8.3331 C.3       1 UNL1        0.0000
     22 C          -3.6510  -52.5410    7.6037 C.2       1 UNL1        0.0000
     23 C          -2.8800  -51.3252    7.8765 C.3       1 UNL1        0.0000
     24 C          -3.6830  -50.0731    8.1475 C.3       1 UNL1        0.0000
     25 C          -2.8861  -50.1842    6.9237 C.3       1 UNL1        0.0000
     26 C          -1.3043  -57.6082    5.9814 C.ar      1 UNL1        0.0000
     27 C          -1.6470  -58.5558    5.0436 C.ar      1 UNL1        0.0000
     28 C          -2.5234  -59.5959    5.3851 C.ar      1 UNL1        0.0000
     29 O          -1.2362  -65.4374    7.8148 O.2       1 UNL1        0.0000
     30 O          -4.2615  -52.5644    6.4760 O.2       1 UNL1        0.0000
     31 O          -0.2871  -56.5372    8.5791 O.2       1 UNL1        0.0000
     32 F          -0.4568  -56.5776    5.6944 F         1 UNL1        0.0000
     33 H          -1.6976  -65.9478    5.5326 H         1 UNL1        0.0000
     34 H          -2.6745  -65.5275    3.3452 H         1 UNL1        0.0000
     35 H          -3.9226  -63.4941    3.0358 H         1 UNL1        0.0000
     36 H          -4.2245  -61.8932    4.7946 H         1 UNL1        0.0000
     37 H          -4.3977  -60.5087    8.0369 H         1 UNL1        0.0000
     38 H          -4.8069  -60.8684    6.3677 H         1 UNL1        0.0000
     39 H          -3.1040  -58.8167    8.5253 H         1 UNL1        0.0000
     40 H          -1.1949  -54.4985    9.4913 H         1 UNL1        0.0000
     41 H          -2.1924  -55.3386   10.6903 H         1 UNL1        0.0000
     42 H          -2.6405  -52.8218    9.9355 H         1 UNL1        0.0000
     43 H          -3.8948  -53.9006   10.4830 H         1 UNL1        0.0000
     44 H          -4.7517  -54.7564    6.9573 H         1 UNL1        0.0000
     45 H          -5.5165  -54.7967    8.5363 H         1 UNL1        0.0000
     46 H          -3.8582  -56.7117    7.4566 H         1 UNL1        0.0000
     47 H          -4.3901  -56.5637    9.1409 H         1 UNL1        0.0000
     48 H          -2.1020  -51.8851    8.3514 H         1 UNL1        0.0000
     49 H          -3.3811  -49.4011    8.9238 H         1 UNL1        0.0000
     50 H          -4.7093  -49.8646    8.3675 H         1 UNL1        0.0000
     51 H          -2.0072  -49.5851    6.8067 H         1 UNL1        0.0000
     52 H          -3.1014  -50.0827    5.8813 H         1 UNL1        0.0000
     53 H          -1.2583  -58.5005    4.0886 H         1 UNL1        0.0000
     54 H          -2.7644  -60.2930    4.6629 H         1 UNL1        0.0000
     55 H          -1.7243  -63.6225    9.4954 H         1 UNL1        0.0000
@<TRIPOS>BOND
     1    1   18 1
     2    1   21 1
     3    1   17 am
     4    2   19 1
     5    2   20 1
     6    2   22 am
     7    3    4 1
     8    3   12 2
     9    4    5 am
    10    4   55 1
    11    5   29 2
    12    5    6 1
    13    6    7 ar
    14    6   11 ar
    15    7    8 ar
    16    7   33 1
    17    8   34 1
    18    8    9 ar
    19    9   10 ar
    20    9   35 1
    21   10   11 ar
    22   10   36 1
    23   11   12 1
    24   12   13 1
    25   13   37 1
    26   13   38 1
    27   13   14 1
    28   14   15 ar
    29   14   28 ar
    30   15   39 1
    31   15   16 ar
    32   16   26 ar
    33   16   17 1
    34   17   31 2
    35   18   19 1
    36   18   40 1
    37   18   41 1
    38   19   42 1
    39   19   43 1
    40   20   21 1
    41   20   45 1
    42   20   44 1
    43   21   46 1
    44   21   47 1
    45   22   30 2
    46   22   23 1
    47   23   25 1
    48   23   24 1
    49   23   48 1
    50   24   25 1
    51   24   49 1
    52   24   50 1
    53   25   51 1
    54   25   52 1
    55   26   27 ar
    56   26   32 1
    57   27   28 ar
    58   27   53 1
    59   28   54 1
@<TRIPOS>SUBSTRUCTURE
1 UNL1 1
@<TRIPOS>COMMENT
olaparib
PLANTSproteinTorsions
102
4661 105.0975
5386 122.3051
6210 75.5096
5890 31.1614
4461 5.1141
1390 121.1770
2824 121.4407
4339 244.8840
2732 47.3976
4792 35.5629
3407 351.0036
5134 334.2894
6916 355.0818
7370 41.4703
6038 131.5485
7225 113.1647
3592 301.6959
2064 69.8659
2488 189.9191
1253 67.5557
2069 307.3890
2569 4.4788
3058 239.8336
1748 96.3874
1162 78.4698
1509 120.9663
560 104.2357
1627 176.9702
1941 197.9237
3631 133.3706
2381 288.2799
4221 96.6030
4687 177.0587
6983 204.9094
6668 133.2864
7305 223.7279
8693 213.5248
8404 17.6487
9055 239.4739
7052 185.0207
4708 56.8818
2652 224.6969
4332 143.3705
3011 174.1966
2257 245.8689
2778 159.4272
2057 199.2224
192 259.7708
315 170.8586
1085 326.2196
1007 327.0786
1407 135.0775
4816 101.0738
3131 226.4759
4654 55.9121
5144 89.6767
117 274.5084
6 108.8854
259 280.2954
1979 23.6358
2609 318.9631
2623 193.9778
5910 64.8755
5937 173.3235
2062 262.2125
890 258.1929
5008 183.9314
8602 114.1879
8478 328.7219
8300 279.3817
7721 261.3025
8466 161.4654
7852 311.5773
5849 44.2779
6302 181.2726
7439 176.8664
6284 76.5064
6003 9.0533
7165 91.3948
7623 107.8060
8158 250.3019
8667 206.5544
9078 143.1655
8684 251.3098
7666 105.2903
4231 255.3683
1659 262.0525
489 80.2807
238 238.5462
46 125.5769
83 250.8898
254 174.4772
1066 231.4723
2112 190.3387
4047 268.9019
5402 260.8491
2544 135.6999
4670 187.2130
4426 305.5347
5656 217.2809
7040 228.1203
6282 166.8166
PLANTSmolcadARTstart hb
PLANTSmolcadARTstart HB
LINES
PLANTSmolcadARTstart HBCH
LINES
PLANTSmolcadARTstart HB-CHO
LINES
PLANTSmolcadARTend
PLANTSmolcadARTstart HB_WATER
LINES
PLANTSmolcadARTend

PLANTSmolcadARTend

