@<TRIPOS>MOLECULE
olaparib_entry_00001_conf_90
55 59 1
SMALL
NO_CHARGES


@<TRIPOS>ATOM
      1 N           1.7156  -75.3687    1.4465 N.am      1 UNL1        0.0000
      2 N           1.7521  -74.5807    3.9216 N.am      1 UNL1        0.0000
      3 N          -1.6276  -81.1926    1.9547 N.2       1 UNL1        0.0000
      4 N          -1.7231  -82.4991    1.9041 N.am      1 UNL1        0.0000
      5 C          -2.8609  -83.1420    1.6061 C.2       1 UNL1        0.0000
      6 C          -3.9923  -82.3991    1.3382 C.ar      1 UNL1        0.0000
      7 C          -5.2074  -83.0180    1.0421 C.ar      1 UNL1        0.0000
      8 C          -6.3297  -82.2559    0.7989 C.ar      1 UNL1        0.0000
      9 C          -6.1823  -80.8866    0.8658 C.ar      1 UNL1        0.0000
     10 C          -4.9830  -80.2592    1.1589 C.ar      1 UNL1        0.0000
     11 C          -3.8779  -81.0224    1.3954 C.ar      1 UNL1        0.0000
     12 C          -2.7044  -80.3867    1.7009 C.2       1 UNL1        0.0000
     13 C          -2.4484  -78.9525    1.7251 C.3       1 UNL1        0.0000
     14 C          -1.3428  -78.6020    0.7914 C.ar      1 UNL1        0.0000
     15 C          -0.7723  -77.3302    0.9784 C.ar      1 UNL1        0.0000
     16 C           0.2482  -76.9116    0.1586 C.ar      1 UNL1        0.0000
     17 C           0.8667  -75.5774    0.3281 C.2       1 UNL1        0.0000
     18 C           2.3339  -74.0972    1.6409 C.3       1 UNL1        0.0000
     19 C           2.6506  -73.8180    3.0945 C.3       1 UNL1        0.0000
     20 C           1.8293  -76.0418    3.8161 C.3       1 UNL1        0.0000
     21 C           1.9365  -76.4633    2.3732 C.3       1 UNL1        0.0000
     22 C           0.8388  -73.9784    4.7918 C.2       1 UNL1        0.0000
     23 C           0.6331  -72.5423    4.9976 C.3       1 UNL1        0.0000
     24 C           1.5780  -71.8652    5.9645 C.3       1 UNL1        0.0000
     25 C           0.1614  -72.0155    6.3051 C.3       1 UNL1        0.0000
     26 C           0.7606  -77.6796   -0.8601 C.ar      1 UNL1        0.0000
     27 C           0.2014  -78.9242   -1.0423 C.ar      1 UNL1        0.0000
     28 C          -0.8407  -79.3540   -0.2082 C.ar      1 UNL1        0.0000
     29 O          -2.9718  -84.3936    1.5515 O.2       1 UNL1        0.0000
     30 O           0.0904  -74.7479    5.4939 O.2       1 UNL1        0.0000
     31 O           0.6645  -74.6402   -0.4778 O.2       1 UNL1        0.0000
     32 F           1.7750  -77.2181   -1.6480 F         1 UNL1        0.0000
     33 H          -5.2658  -84.0476    1.0044 H         1 UNL1        0.0000
     34 H          -7.2384  -82.6903    0.5776 H         1 UNL1        0.0000
     35 H          -7.0105  -80.2977    0.6884 H         1 UNL1        0.0000
     36 H          -4.9256  -79.2293    1.1975 H         1 UNL1        0.0000
     37 H          -2.1770  -78.6598    2.7179 H         1 UNL1        0.0000
     38 H          -3.3349  -78.4383    1.4167 H         1 UNL1        0.0000
     39 H          -1.1193  -76.7130    1.7289 H         1 UNL1        0.0000
     40 H           1.6724  -73.3362    1.2818 H         1 UNL1        0.0000
     41 H           3.2597  -74.1024    1.1033 H         1 UNL1        0.0000
     42 H           2.5265  -72.7747    3.2953 H         1 UNL1        0.0000
     43 H           3.6624  -74.0962    3.3049 H         1 UNL1        0.0000
     44 H           0.9487  -76.4734    4.2437 H         1 UNL1        0.0000
     45 H           2.6985  -76.3815    4.3397 H         1 UNL1        0.0000
     46 H           1.2061  -77.2221    2.1837 H         1 UNL1        0.0000
     47 H           2.9321  -76.8200    2.2162 H         1 UNL1        0.0000
     48 H           0.3051  -72.4107    3.9879 H         1 UNL1        0.0000
     49 H           1.9740  -70.8974    5.7368 H         1 UNL1        0.0000
     50 H           2.5025  -72.1325    6.4322 H         1 UNL1        0.0000
     51 H          -0.4718  -71.1533    6.3332 H         1 UNL1        0.0000
     52 H          -0.3661  -72.4374    7.1340 H         1 UNL1        0.0000
     53 H           0.5500  -79.5412   -1.7933 H         1 UNL1        0.0000
     54 H          -1.2424  -80.2916   -0.3666 H         1 UNL1        0.0000
     55 H          -0.9187  -83.0345    2.0940 H         1 UNL1        0.0000
@<TRIPOS>BOND
     1    1   18 1
     2    1   21 1
     3    1   17 am
     4    2   19 1
     5    2   20 1
     6    2   22 am
     7    3    4 1
     8    3   12 2
     9    4    5 am
    10    4   55 1
    11    5   29 2
    12    5    6 1
    13    6    7 ar
    14    6   11 ar
    15    7    8 ar
    16    7   33 1
    17    8   34 1
    18    8    9 ar
    19    9   10 ar
    20    9   35 1
    21   10   11 ar
    22   10   36 1
    23   11   12 1
    24   12   13 1
    25   13   37 1
    26   13   38 1
    27   13   14 1
    28   14   15 ar
    29   14   28 ar
    30   15   39 1
    31   15   16 ar
    32   16   26 ar
    33   16   17 1
    34   17   31 2
    35   18   19 1
    36   18   40 1
    37   18   41 1
    38   19   42 1
    39   19   43 1
    40   20   21 1
    41   20   45 1
    42   20   44 1
    43   21   46 1
    44   21   47 1
    45   22   30 2
    46   22   23 1
    47   23   25 1
    48   23   24 1
    49   23   48 1
    50   24   25 1
    51   24   49 1
    52   24   50 1
    53   25   51 1
    54   25   52 1
    55   26   27 ar
    56   26   32 1
    57   27   28 ar
    58   27   53 1
    59   28   54 1
@<TRIPOS>SUBSTRUCTURE
1 UNL1 1
@<TRIPOS>COMMENT
olaparib
PLANTSproteinTorsions
102
4661 137.4533
5386 75.1678
6210 80.8614
5890 138.7694
4461 15.2760
1390 3.4389
2824 89.6363
4339 199.6140
2732 61.2000
4792 26.5412
3407 37.6873
5134 66.8884
6916 129.0103
7370 4.8923
6038 134.7789
7225 85.3352
3592 85.6022
2064 48.0785
2488 216.5202
1253 30.1479
2069 28.9638
2569 5.7606
3058 242.7298
1748 135.6089
1162 28.0699
1509 105.1069
560 175.1933
1627 121.2186
1941 59.9303
3631 11.0375
2381 238.7474
4221 46.3205
4687 235.1625
6983 81.5182
6668 53.4075
7305 203.1542
8693 180.3913
8404 91.0247
9055 243.0536
7052 130.8802
4708 64.8832
2652 227.4908
4332 221.6493
3011 171.6640
2257 242.6407
2778 168.2270
2057 248.1090
192 261.8512
315 187.1541
1085 296.7885
1007 46.3594
1407 123.7359
4816 108.9658
3131 228.0173
4654 267.3251
5144 228.2755
117 335.9260
6 70.9534
259 75.9909
1979 20.6793
2609 32.1529
2623 149.1284
5910 73.5102
5937 148.5208
2062 248.1756
890 326.6740
5008 122.6502
8602 104.0658
8478 34.5054
8300 286.7474
7721 231.9041
8466 125.4108
7852 235.8408
5849 215.3601
6302 169.5543
7439 248.7574
6284 221.6662
6003 201.3855
7165 0.2783
7623 109.8936
8158 169.6534
8667 53.1484
9078 98.7058
8684 214.5088
7666 250.8330
4231 271.6378
1659 282.4649
489 92.0864
238 277.7986
46 150.3248
83 223.8469
254 154.1561
1066 277.1080
2112 77.6045
4047 257.5276
5402 260.4546
2544 156.5251
4670 196.0369
4426 187.2522
5656 288.2621
7040 197.5307
6282 276.4909
PLANTSmolcadARTstart hb
PLANTSmolcadARTstart HB
LINES
PLANTSmolcadARTstart HBCH
LINES
PLANTSmolcadARTstart HB-CHO
LINES
PLANTSmolcadARTend
PLANTSmolcadARTstart HB_WATER
LINES
PLANTSmolcadARTend

PLANTSmolcadARTend

