@<TRIPOS>MOLECULE
olaparib_entry_00001_conf_32
55 59 1
SMALL
NO_CHARGES


@<TRIPOS>ATOM
      1 N         -17.8941  -42.3488   -2.1907 N.am      1 UNL1        0.0000
      2 N         -17.4392  -39.8010   -1.9670 N.am      1 UNL1        0.0000
      3 N         -13.0734  -44.4366   -1.1999 N.2       1 UNL1        0.0000
      4 N         -12.4511  -43.4965   -1.8689 N.am      1 UNL1        0.0000
      5 C         -12.4752  -43.4071   -3.2062 C.2       1 UNL1        0.0000
      6 C         -13.1876  -44.3477   -3.9214 C.ar      1 UNL1        0.0000
      7 C         -13.2292  -44.3130   -5.3157 C.ar      1 UNL1        0.0000
      8 C         -13.9298  -45.2756   -6.0102 C.ar      1 UNL1        0.0000
      9 C         -14.5658  -46.2457   -5.2649 C.ar      1 UNL1        0.0000
     10 C         -14.5326  -46.2926   -3.8813 C.ar      1 UNL1        0.0000
     11 C         -13.8387  -45.3339   -3.2035 C.ar      1 UNL1        0.0000
     12 C         -13.8014  -45.4049   -1.8368 C.2       1 UNL1        0.0000
     13 C         -14.4976  -46.3512   -0.9747 C.3       1 UNL1        0.0000
     14 C         -15.6690  -45.7023   -0.3233 C.ar      1 UNL1        0.0000
     15 C         -16.4855  -44.9341   -1.1723 C.ar      1 UNL1        0.0000
     16 C         -17.5854  -44.2875   -0.6615 C.ar      1 UNL1        0.0000
     17 C         -18.4621  -43.4687   -1.5288 C.2       1 UNL1        0.0000
     18 C         -18.7067  -41.5382   -3.0390 C.3       1 UNL1        0.0000
     19 C         -18.1997  -40.1162   -3.1482 C.3       1 UNL1        0.0000
     20 C         -16.2275  -40.5917   -1.7253 C.3       1 UNL1        0.0000
     21 C         -16.4881  -42.0528   -1.9873 C.3       1 UNL1        0.0000
     22 C         -17.8192  -38.7928   -1.0762 C.2       1 UNL1        0.0000
     23 C         -19.0013  -37.9322   -1.1716 C.3       1 UNL1        0.0000
     24 C         -18.7679  -36.5347   -1.6994 C.3       1 UNL1        0.0000
     25 C         -19.1512  -36.7371   -0.3003 C.3       1 UNL1        0.0000
     26 C         -17.9475  -44.3470    0.6634 C.ar      1 UNL1        0.0000
     27 C         -17.1475  -45.0993    1.4935 C.ar      1 UNL1        0.0000
     28 C         -16.0239  -45.7595    0.9758 C.ar      1 UNL1        0.0000
     29 O         -11.8861  -42.5125   -3.8653 O.2       1 UNL1        0.0000
     30 O         -17.0661  -38.5832   -0.0593 O.2       1 UNL1        0.0000
     31 O         -19.6753  -43.7336   -1.6926 O.2       1 UNL1        0.0000
     32 F         -19.0496  -43.6859    1.1225 F         1 UNL1        0.0000
     33 H         -12.7355  -43.5654   -5.8278 H         1 UNL1        0.0000
     34 H         -13.9755  -45.2706   -7.0403 H         1 UNL1        0.0000
     35 H         -15.0947  -46.9765   -5.7653 H         1 UNL1        0.0000
     36 H         -15.0257  -47.0413   -3.3698 H         1 UNL1        0.0000
     37 H         -13.8246  -46.7016   -0.2203 H         1 UNL1        0.0000
     38 H         -14.8452  -47.1697   -1.5702 H         1 UNL1        0.0000
     39 H         -16.2592  -44.8558   -2.1759 H         1 UNL1        0.0000
     40 H         -19.7010  -41.5183   -2.6437 H         1 UNL1        0.0000
     41 H         -18.6792  -41.9676   -4.0193 H         1 UNL1        0.0000
     42 H         -19.0282  -39.4449   -3.2325 H         1 UNL1        0.0000
     43 H         -17.5807  -40.0176   -4.0158 H         1 UNL1        0.0000
     44 H         -15.9217  -40.4664   -0.7077 H         1 UNL1        0.0000
     45 H         -15.4566  -40.2552   -2.3866 H         1 UNL1        0.0000
     46 H         -16.1394  -42.6180   -1.1482 H         1 UNL1        0.0000
     47 H         -15.9723  -42.3145   -2.8865 H         1 UNL1        0.0000
     48 H         -19.6323  -38.7671   -1.3931 H         1 UNL1        0.0000
     49 H         -19.4627  -36.0994   -2.3872 H         1 UNL1        0.0000
     50 H         -17.9627  -36.0393   -2.2006 H         1 UNL1        0.0000
     51 H         -20.1243  -36.4403    0.0314 H         1 UNL1        0.0000
     52 H         -18.7339  -36.4399    0.6382 H         1 UNL1        0.0000
     53 H         -17.3754  -45.1773    2.4976 H         1 UNL1        0.0000
     54 H         -15.4407  -46.3166    1.6200 H         1 UNL1        0.0000
     55 H         -11.9413  -42.8222   -1.3637 H         1 UNL1        0.0000
@<TRIPOS>BOND
     1    1   18 1
     2    1   21 1
     3    1   17 am
     4    2   19 1
     5    2   20 1
     6    2   22 am
     7    3    4 1
     8    3   12 2
     9    4    5 am
    10    4   55 1
    11    5   29 2
    12    5    6 1
    13    6    7 ar
    14    6   11 ar
    15    7    8 ar
    16    7   33 1
    17    8   34 1
    18    8    9 ar
    19    9   10 ar
    20    9   35 1
    21   10   11 ar
    22   10   36 1
    23   11   12 1
    24   12   13 1
    25   13   37 1
    26   13   38 1
    27   13   14 1
    28   14   15 ar
    29   14   28 ar
    30   15   39 1
    31   15   16 ar
    32   16   26 ar
    33   16   17 1
    34   17   31 2
    35   18   19 1
    36   18   40 1
    37   18   41 1
    38   19   42 1
    39   19   43 1
    40   20   21 1
    41   20   45 1
    42   20   44 1
    43   21   46 1
    44   21   47 1
    45   22   30 2
    46   22   23 1
    47   23   25 1
    48   23   24 1
    49   23   48 1
    50   24   25 1
    51   24   49 1
    52   24   50 1
    53   25   51 1
    54   25   52 1
    55   26   27 ar
    56   26   32 1
    57   27   28 ar
    58   27   53 1
    59   28   54 1
@<TRIPOS>SUBSTRUCTURE
1 UNL1 1
@<TRIPOS>COMMENT
olaparib
PLANTSproteinTorsions
102
4661 203.4109
5386 169.0436
6210 192.3911
5890 149.6728
4461 119.4021
1390 358.7616
2824 253.3375
4339 139.3545
2732 138.3367
4792 103.9877
3407 273.4672
5134 5.2699
6916 203.9347
7370 240.4017
6038 213.0573
7225 345.3508
3592 185.1164
2064 120.1207
2488 189.6893
1253 32.2713
2069 68.6422
2569 316.6979
3058 219.5705
1748 357.3471
1162 233.2202
1509 44.4894
560 162.9913
1627 345.0719
1941 176.9757
3631 347.3964
2381 122.5526
4221 290.3069
4687 321.2097
6983 12.5085
6668 25.6680
7305 53.7466
8693 45.9546
8404 152.7534
9055 65.4655
7052 71.0195
4708 10.1001
2652 116.2937
4332 48.1550
3011 243.0570
2257 208.3502
2778 240.3157
2057 247.3180
192 16.5185
315 158.0750
1085 357.0603
1007 134.9404
1407 298.6128
4816 187.8463
3131 165.1695
4654 181.6932
5144 58.8876
117 151.5090
6 267.3304
259 187.5326
1979 213.1532
2609 241.6640
2623 136.5055
5910 120.8975
5937 310.3267
2062 138.8094
890 269.4803
5008 85.1705
8602 215.2883
8478 51.6474
8300 32.1429
7721 37.3453
8466 82.2003
7852 171.3221
5849 179.3470
6302 54.6607
7439 68.9886
6284 210.4249
6003 202.2294
7165 17.4128
7623 88.9336
8158 256.2611
8667 165.4263
9078 226.9587
8684 346.3181
7666 56.6214
4231 272.1623
1659 97.7027
489 150.5619
238 187.4458
46 233.0846
83 210.5467
254 224.3665
1066 270.5147
2112 203.4129
4047 187.5168
5402 254.7135
2544 259.0073
4670 158.1364
4426 250.2439
5656 169.7617
7040 89.4183
6282 235.8192
PLANTSmolcadARTstart hb
PLANTSmolcadARTstart HB
LINES
-11.8861 -42.5125 -3.86525 -12.228 -40.893 -4.598 0 255 0 5
PLANTSmolcadARTstart HBCH
LINES
PLANTSmolcadARTstart HB-CHO
LINES
PLANTSmolcadARTend
PLANTSmolcadARTstart HB_WATER
LINES
PLANTSmolcadARTend

PLANTSmolcadARTend

