@<TRIPOS>MOLECULE
olaparib_entry_00001_conf_81
55 59 1
SMALL
NO_CHARGES


@<TRIPOS>ATOM
      1 N          -0.5145  -39.2896   -0.7493 N.am      1 UNL1        0.0000
      2 N          -0.7246  -37.5787   -2.6928 N.am      1 UNL1        0.0000
      3 N           2.8971  -40.8469   -4.7908 N.2       1 UNL1        0.0000
      4 N           2.2493  -40.2762   -5.7773 N.am      1 UNL1        0.0000
      5 C           1.0819  -40.7331   -6.2519 C.2       1 UNL1        0.0000
      6 C           0.5282  -41.8598   -5.6793 C.ar      1 UNL1        0.0000
      7 C          -0.6748  -42.3893   -6.1479 C.ar      1 UNL1        0.0000
      8 C          -1.1984  -43.5280   -5.5747 C.ar      1 UNL1        0.0000
      9 C          -0.4811  -44.0950   -4.5425 C.ar      1 UNL1        0.0000
     10 C           0.7138  -43.5807   -4.0677 C.ar      1 UNL1        0.0000
     11 C           1.2220  -42.4520   -4.6402 C.ar      1 UNL1        0.0000
     12 C           2.4130  -41.9668   -4.1706 C.2       1 UNL1        0.0000
     13 C           3.1956  -42.4629   -3.0461 C.3       1 UNL1        0.0000
     14 C           2.3708  -42.4930   -1.8068 C.ar      1 UNL1        0.0000
     15 C           1.7969  -41.2653   -1.4312 C.ar      1 UNL1        0.0000
     16 C           1.0268  -41.1898   -0.2954 C.ar      1 UNL1        0.0000
     17 C           0.4121  -39.9114    0.1280 C.2       1 UNL1        0.0000
     18 C          -1.1315  -38.0586   -0.3737 C.3       1 UNL1        0.0000
     19 C          -1.5513  -37.2279   -1.5673 C.3       1 UNL1        0.0000
     20 C          -0.8098  -38.9613   -3.1755 C.3       1 UNL1        0.0000
     21 C          -0.8150  -39.9265   -2.0181 C.3       1 UNL1        0.0000
     22 C           0.1287  -36.6610   -3.3125 C.2       1 UNL1        0.0000
     23 C           0.3343  -35.2587   -2.9407 C.3       1 UNL1        0.0000
     24 C           1.5732  -34.9592   -2.1274 C.3       1 UNL1        0.0000
     25 C           0.2464  -34.8211   -1.5228 C.3       1 UNL1        0.0000
     26 C           0.7750  -42.2690    0.5182 C.ar      1 UNL1        0.0000
     27 C           1.3373  -43.4702    0.1496 C.ar      1 UNL1        0.0000
     28 C           2.1244  -43.5505   -1.0081 C.ar      1 UNL1        0.0000
     29 O           0.4452  -40.1990   -7.1959 O.2       1 UNL1        0.0000
     30 O           0.8149  -37.0710   -4.3157 O.2       1 UNL1        0.0000
     31 O           0.6834  -39.3708    1.2247 O.2       1 UNL1        0.0000
     32 F           0.0035  -42.1425    1.6369 F         1 UNL1        0.0000
     33 H          -1.1737  -41.9273   -6.9243 H         1 UNL1        0.0000
     34 H          -2.0858  -43.9376   -5.9033 H         1 UNL1        0.0000
     35 H          -0.8548  -44.9488   -4.1004 H         1 UNL1        0.0000
     36 H           1.2128  -44.0439   -3.2920 H         1 UNL1        0.0000
     37 H           4.0381  -41.8212   -2.8929 H         1 UNL1        0.0000
     38 H           3.5229  -43.4579   -3.2655 H         1 UNL1        0.0000
     39 H           1.9539  -40.4234   -2.0066 H         1 UNL1        0.0000
     40 H          -0.4371  -37.4920    0.2112 H         1 UNL1        0.0000
     41 H          -2.0151  -38.2964    0.1819 H         1 UNL1        0.0000
     42 H          -1.4309  -36.1891   -1.3423 H         1 UNL1        0.0000
     43 H          -2.5789  -37.4183   -1.7982 H         1 UNL1        0.0000
     44 H           0.0321  -39.1687   -3.8021 H         1 UNL1        0.0000
     45 H          -1.7189  -39.0801   -3.7273 H         1 UNL1        0.0000
     46 H          -0.0810  -40.6834   -2.2010 H         1 UNL1        0.0000
     47 H          -1.8002  -40.3356   -1.9458 H         1 UNL1        0.0000
     48 H          -0.1193  -34.9172   -3.8473 H         1 UNL1        0.0000
     49 H           2.1569  -34.0883   -2.3422 H         1 UNL1        0.0000
     50 H           2.4659  -35.4958   -1.8820 H         1 UNL1        0.0000
     51 H          -0.1318  -33.8476   -1.2898 H         1 UNL1        0.0000
     52 H          -0.2191  -35.2184   -0.6460 H         1 UNL1        0.0000
     53 H           1.1789  -44.3122    0.7260 H         1 UNL1        0.0000
     54 H           2.5345  -44.4633   -1.2616 H         1 UNL1        0.0000
     55 H           2.6395  -39.4715   -6.1896 H         1 UNL1        0.0000
@<TRIPOS>BOND
     1    1   18 1
     2    1   21 1
     3    1   17 am
     4    2   19 1
     5    2   20 1
     6    2   22 am
     7    3    4 1
     8    3   12 2
     9    4    5 am
    10    4   55 1
    11    5   29 2
    12    5    6 1
    13    6    7 ar
    14    6   11 ar
    15    7    8 ar
    16    7   33 1
    17    8   34 1
    18    8    9 ar
    19    9   10 ar
    20    9   35 1
    21   10   11 ar
    22   10   36 1
    23   11   12 1
    24   12   13 1
    25   13   37 1
    26   13   38 1
    27   13   14 1
    28   14   15 ar
    29   14   28 ar
    30   15   39 1
    31   15   16 ar
    32   16   26 ar
    33   16   17 1
    34   17   31 2
    35   18   19 1
    36   18   40 1
    37   18   41 1
    38   19   42 1
    39   19   43 1
    40   20   21 1
    41   20   45 1
    42   20   44 1
    43   21   46 1
    44   21   47 1
    45   22   30 2
    46   22   23 1
    47   23   25 1
    48   23   24 1
    49   23   48 1
    50   24   25 1
    51   24   49 1
    52   24   50 1
    53   25   51 1
    54   25   52 1
    55   26   27 ar
    56   26   32 1
    57   27   28 ar
    58   27   53 1
    59   28   54 1
@<TRIPOS>SUBSTRUCTURE
1 UNL1 1
@<TRIPOS>COMMENT
olaparib
PLANTSproteinTorsions
102
4661 78.5618
5386 169.0466
6210 59.9420
5890 274.4018
4461 358.6587
1390 285.1172
2824 179.6739
4339 31.9935
2732 162.6757
4792 2.2559
3407 41.1438
5134 194.2075
6916 88.4551
7370 94.0308
6038 161.7279
7225 312.3468
3592 52.0827
2064 128.0551
2488 0.4268
1253 71.2560
2069 132.9919
2569 22.5064
3058 52.1270
1748 97.5068
1162 149.3403
1509 102.3326
560 35.9053
1627 158.8595
1941 256.3772
3631 77.5499
2381 251.6724
4221 179.8702
4687 226.7329
6983 128.5364
6668 89.8405
7305 263.1253
8693 64.0737
8404 79.1339
9055 307.6058
7052 346.1292
4708 197.3824
2652 45.8317
4332 116.5547
3011 346.6892
2257 245.2420
2778 131.9924
2057 247.7627
192 21.3783
315 237.8829
1085 286.2897
1007 131.0950
1407 219.5861
4816 165.9184
3131 120.4896
4654 272.2969
5144 23.8040
117 66.6960
6 153.5694
259 213.0564
1979 242.0921
2609 109.5776
2623 356.6165
5910 235.4332
5937 27.3774
2062 70.1483
890 233.1438
5008 197.3738
8602 338.0874
8478 243.7910
8300 209.1615
7721 36.9877
8466 2.2142
7852 91.8106
5849 132.5009
6302 60.2601
7439 114.1191
6284 89.8875
6003 184.2449
7165 61.6768
7623 117.9380
8158 208.1325
8667 284.5036
9078 329.8401
8684 122.0202
7666 245.3043
4231 98.8876
1659 218.4875
489 254.3271
238 213.4029
46 91.3518
83 39.1610
254 129.6744
1066 249.5424
2112 64.9348
4047 343.8884
5402 282.3646
2544 147.9970
4670 47.8091
4426 332.3038
5656 15.7799
7040 67.6983
6282 132.5471
PLANTSmolcadARTstart hb
PLANTSmolcadARTstart HB
LINES
PLANTSmolcadARTstart HBCH
LINES
PLANTSmolcadARTstart HB-CHO
LINES
PLANTSmolcadARTend
PLANTSmolcadARTstart HB_WATER
LINES
PLANTSmolcadARTend

PLANTSmolcadARTend

