@<TRIPOS>MOLECULE
olaparib_entry_00001_conf_30
55 59 1
SMALL
NO_CHARGES


@<TRIPOS>ATOM
      1 N         -44.3065  -54.5579  -19.1700 N.am      1 UNL1        0.0000
      2 N         -45.8384  -56.6170  -18.7675 N.am      1 UNL1        0.0000
      3 N         -43.4781  -48.8632  -21.9405 N.2       1 UNL1        0.0000
      4 N         -42.7310  -47.7919  -22.0540 N.am      1 UNL1        0.0000
      5 C         -43.2279  -46.5724  -22.3047 C.2       1 UNL1        0.0000
      6 C         -44.5922  -46.4292  -22.4524 C.ar      1 UNL1        0.0000
      7 C         -45.1600  -45.1861  -22.7342 C.ar      1 UNL1        0.0000
      8 C         -46.5235  -45.0706  -22.8988 C.ar      1 UNL1        0.0000
      9 C         -47.2684  -46.2241  -22.7734 C.ar      1 UNL1        0.0000
     10 C         -46.7183  -47.4641  -22.4945 C.ar      1 UNL1        0.0000
     11 C         -45.3684  -47.5671  -22.3308 C.ar      1 UNL1        0.0000
     12 C         -44.8390  -48.8031  -22.0730 C.2       1 UNL1        0.0000
     13 C         -45.5574  -50.0526  -21.8586 C.3       1 UNL1        0.0000
     14 C         -45.4765  -50.4646  -20.4300 C.ar      1 UNL1        0.0000
     15 C         -44.7437  -51.6383  -20.1788 C.ar      1 UNL1        0.0000
     16 C         -44.6209  -52.1051  -18.8920 C.ar      1 UNL1        0.0000
     17 C         -43.8590  -53.3393  -18.5958 C.2       1 UNL1        0.0000
     18 C         -43.5951  -55.7679  -18.9114 C.3       1 UNL1        0.0000
     19 C         -44.4728  -56.9962  -19.0215 C.3       1 UNL1        0.0000
     20 C         -46.4476  -55.6613  -19.6988 C.3       1 UNL1        0.0000
     21 C         -45.4869  -54.5438  -20.0140 C.3       1 UNL1        0.0000
     22 C         -46.5696  -57.1224  -17.6885 C.2       1 UNL1        0.0000
     23 C         -46.1002  -58.0660  -16.6706 C.3       1 UNL1        0.0000
     24 C         -45.8004  -59.4686  -17.1491 C.3       1 UNL1        0.0000
     25 C         -46.9351  -59.2239  -16.2560 C.3       1 UNL1        0.0000
     26 C         -45.1844  -51.4790  -17.8056 C.ar      1 UNL1        0.0000
     27 C         -45.9016  -50.3303  -18.0527 C.ar      1 UNL1        0.0000
     28 C         -46.0297  -49.8518  -19.3645 C.ar      1 UNL1        0.0000
     29 O         -42.5280  -45.5334  -22.4157 O.2       1 UNL1        0.0000
     30 O         -47.7837  -56.7298  -17.5572 O.2       1 UNL1        0.0000
     31 O         -42.8437  -53.3378  -17.8625 O.2       1 UNL1        0.0000
     32 F         -45.0343  -51.9831  -16.5462 F         1 UNL1        0.0000
     33 H         -44.5585  -44.3518  -22.8187 H         1 UNL1        0.0000
     34 H         -46.9662  -44.1629  -23.1069 H         1 UNL1        0.0000
     35 H         -48.2909  -46.1599  -22.8942 H         1 UNL1        0.0000
     36 H         -47.3205  -48.2983  -22.4112 H         1 UNL1        0.0000
     37 H         -45.1253  -50.8167  -22.4705 H         1 UNL1        0.0000
     38 H         -46.5858  -49.9083  -22.1171 H         1 UNL1        0.0000
     39 H         -44.2997  -52.1478  -20.9584 H         1 UNL1        0.0000
     40 H         -43.1912  -55.7228  -17.9213 H         1 UNL1        0.0000
     41 H         -42.8245  -55.8538  -19.6495 H         1 UNL1        0.0000
     42 H         -44.1622  -57.7253  -18.3030 H         1 UNL1        0.0000
     43 H         -44.3887  -57.4151  -20.0028 H         1 UNL1        0.0000
     44 H         -47.3307  -55.2509  -19.2556 H         1 UNL1        0.0000
     45 H         -46.6931  -56.1711  -20.6070 H         1 UNL1        0.0000
     46 H         -45.9918  -53.6103  -19.8771 H         1 UNL1        0.0000
     47 H         -45.1605  -54.6763  -21.0235 H         1 UNL1        0.0000
     48 H         -45.5987  -57.2886  -16.1335 H         1 UNL1        0.0000
     49 H         -44.9355  -59.9843  -16.7868 H         1 UNL1        0.0000
     50 H         -45.6747  -59.9316  -18.1056 H         1 UNL1        0.0000
     51 H         -46.8981  -59.5702  -15.2442 H         1 UNL1        0.0000
     52 H         -47.9804  -59.4448  -16.2997 H         1 UNL1        0.0000
     53 H         -46.3449  -49.8211  -17.2714 H         1 UNL1        0.0000
     54 H         -46.5731  -48.9884  -19.5222 H         1 UNL1        0.0000
     55 H         -41.7566  -47.8880  -21.9492 H         1 UNL1        0.0000
@<TRIPOS>BOND
     1    1   18 1
     2    1   21 1
     3    1   17 am
     4    2   19 1
     5    2   20 1
     6    2   22 am
     7    3    4 1
     8    3   12 2
     9    4    5 am
    10    4   55 1
    11    5   29 2
    12    5    6 1
    13    6    7 ar
    14    6   11 ar
    15    7    8 ar
    16    7   33 1
    17    8   34 1
    18    8    9 ar
    19    9   10 ar
    20    9   35 1
    21   10   11 ar
    22   10   36 1
    23   11   12 1
    24   12   13 1
    25   13   37 1
    26   13   38 1
    27   13   14 1
    28   14   15 ar
    29   14   28 ar
    30   15   39 1
    31   15   16 ar
    32   16   26 ar
    33   16   17 1
    34   17   31 2
    35   18   19 1
    36   18   40 1
    37   18   41 1
    38   19   42 1
    39   19   43 1
    40   20   21 1
    41   20   45 1
    42   20   44 1
    43   21   46 1
    44   21   47 1
    45   22   30 2
    46   22   23 1
    47   23   25 1
    48   23   24 1
    49   23   48 1
    50   24   25 1
    51   24   49 1
    52   24   50 1
    53   25   51 1
    54   25   52 1
    55   26   27 ar
    56   26   32 1
    57   27   28 ar
    58   27   53 1
    59   28   54 1
@<TRIPOS>SUBSTRUCTURE
1 UNL1 1
@<TRIPOS>COMMENT
olaparib
PLANTSproteinTorsions
102
4661 22.9970
5386 42.9736
6210 293.1521
5890 234.9253
4461 165.9105
1390 122.9040
2824 7.8218
4339 183.8130
2732 161.8164
4792 104.8235
3407 341.5129
5134 357.8372
6916 83.8492
7370 8.8604
6038 12.8747
7225 16.8914
3592 303.2672
2064 23.9306
2488 220.9476
1253 237.9716
2069 97.0038
2569 285.9073
3058 195.0537
1748 78.0934
1162 157.1174
1509 357.5309
560 95.1930
1627 60.2320
1941 128.2650
3631 160.2985
2381 82.3423
4221 102.3824
4687 107.4238
6983 11.7455
6668 210.4369
7305 251.4841
8693 53.5396
8404 81.5859
9055 52.6361
7052 6.6838
4708 26.6925
2652 318.7748
4332 225.7556
3011 180.7730
2257 94.9863
2778 332.0191
2057 48.0182
192 110.0710
315 163.1228
1085 54.1848
1007 124.2371
1407 74.3056
4816 42.3524
3131 34.4074
4654 198.4587
5144 236.5147
117 15.5779
6 214.6280
259 330.0343
1979 133.7187
2609 126.7787
2623 64.8416
5910 73.8730
5937 43.9314
2062 156.9870
890 252.0429
5008 174.0780
8602 20.1448
8478 42.1832
8300 54.2459
7721 203.2978
8466 31.3650
7852 202.0271
5849 250.7623
6302 120.9157
7439 228.0572
6284 33.2067
6003 216.3413
7165 259.4793
7623 255.6161
8158 245.7515
8667 97.8898
9078 81.0191
8684 189.1388
7666 126.2689
4231 253.3866
1659 221.5057
489 267.6237
238 249.7401
46 241.8539
83 193.9065
254 266.6123
1066 268.2384
2112 139.3478
4047 48.4561
5402 267.3632
2544 255.6500
4670 82.7558
4426 268.8432
5656 113.9454
7040 92.0405
6282 160.1252
PLANTSmolcadARTstart hb
PLANTSmolcadARTstart HB
LINES
-47.7837 -56.7298 -17.5572 -48.958 -56.853 -16.406 0 255 0 5
-47.7837 -56.7298 -17.5572 -48.965 -54.951 -18.265 0 255 0 5
PLANTSmolcadARTstart HBCH
LINES
PLANTSmolcadARTstart HB-CHO
LINES
PLANTSmolcadARTend
PLANTSmolcadARTstart HB_WATER
LINES
PLANTSmolcadARTend

PLANTSmolcadARTend

