@<TRIPOS>MOLECULE
olaparib_entry_00001_conf_02
55 59 1
SMALL
NO_CHARGES


@<TRIPOS>ATOM
      1 N         -26.2197  -32.8199    2.5539 N.am      1 UNL1        0.0000
      2 N         -25.1221  -30.7489    3.6739 N.am      1 UNL1        0.0000
      3 N         -21.2745  -36.6742    2.5542 N.2       1 UNL1        0.0000
      4 N         -19.9990  -36.5127    2.2980 N.am      1 UNL1        0.0000
      5 C         -19.0345  -37.2378    2.8818 C.2       1 UNL1        0.0000
      6 C         -19.3936  -38.2037    3.7992 C.ar      1 UNL1        0.0000
      7 C         -18.4289  -38.9729    4.4509 C.ar      1 UNL1        0.0000
      8 C         -18.8097  -39.9174    5.3795 C.ar      1 UNL1        0.0000
      9 C         -20.1613  -40.0499    5.6185 C.ar      1 UNL1        0.0000
     10 C         -21.1294  -39.2933    4.9796 C.ar      1 UNL1        0.0000
     11 C         -20.7420  -38.3632    4.0605 C.ar      1 UNL1        0.0000
     12 C         -21.7106  -37.6116    3.4510 C.2       1 UNL1        0.0000
     13 C         -23.1554  -37.7343    3.5949 C.3       1 UNL1        0.0000
     14 C         -23.8555  -36.9025    2.5775 C.ar      1 UNL1        0.0000
     15 C         -24.7904  -35.9833    3.0860 C.ar      1 UNL1        0.0000
     16 C         -25.4952  -35.1776    2.2241 C.ar      1 UNL1        0.0000
     17 C         -26.4885  -34.2028    2.7284 C.2       1 UNL1        0.0000
     18 C         -27.1560  -31.8500    3.0226 C.3       1 UNL1        0.0000
     19 C         -26.5068  -30.5227    3.3509 C.3       1 UNL1        0.0000
     20 C         -24.2742  -31.3057    2.6142 C.3       1 UNL1        0.0000
     21 C         -24.9885  -32.4223    1.8969 C.3       1 UNL1        0.0000
     22 C         -24.5879  -30.4598    4.9330 C.2       1 UNL1        0.0000
     23 C         -25.3040  -29.9175    6.0907 C.3       1 UNL1        0.0000
     24 C         -25.9056  -28.5412    5.9179 C.3       1 UNL1        0.0000
     25 C         -24.7801  -28.7414    6.8335 C.3       1 UNL1        0.0000
     26 C         -25.3385  -35.2146    0.8588 C.ar      1 UNL1        0.0000
     27 C         -24.4231  -36.1147    0.3621 C.ar      1 UNL1        0.0000
     28 C         -23.7030  -36.9390    1.2387 C.ar      1 UNL1        0.0000
     29 O         -17.8065  -37.0987    2.6482 O.2       1 UNL1        0.0000
     30 O         -23.3388  -30.6873    5.1153 O.2       1 UNL1        0.0000
     31 O         -27.5458  -34.5599    3.2970 O.2       1 UNL1        0.0000
     32 F         -26.0633  -34.3936    0.0443 F         1 UNL1        0.0000
     33 H         -17.4288  -38.8350    4.2369 H         1 UNL1        0.0000
     34 H         -18.1154  -40.4980    5.8735 H         1 UNL1        0.0000
     35 H         -20.4677  -40.7503    6.3110 H         1 UNL1        0.0000
     36 H         -22.1294  -39.4310    5.1949 H         1 UNL1        0.0000
     37 H         -23.4409  -37.4084    4.5732 H         1 UNL1        0.0000
     38 H         -23.4310  -38.7583    3.4505 H         1 UNL1        0.0000
     39 H         -24.9471  -35.9142    4.1035 H         1 UNL1        0.0000
     40 H         -27.6281  -32.2285    3.9054 H         1 UNL1        0.0000
     41 H         -27.8639  -31.6787    2.2380 H         1 UNL1        0.0000
     42 H         -27.0032  -30.0770    4.1871 H         1 UNL1        0.0000
     43 H         -26.5809  -29.8651    2.5097 H         1 UNL1        0.0000
     44 H         -23.3729  -31.6863    3.0470 H         1 UNL1        0.0000
     45 H         -24.0478  -30.5329    1.9096 H         1 UNL1        0.0000
     46 H         -24.3378  -33.2706    1.8515 H         1 UNL1        0.0000
     47 H         -25.2462  -32.0647    0.9228 H         1 UNL1        0.0000
     48 H         -25.6294  -30.8923    6.3878 H         1 UNL1        0.0000
     49 H         -26.8805  -28.3306    6.3059 H         1 UNL1        0.0000
     50 H         -26.0996  -27.8989    5.0844 H         1 UNL1        0.0000
     51 H         -24.9358  -28.6677    7.8896 H         1 UNL1        0.0000
     52 H         -23.8148  -28.2936    6.9385 H         1 UNL1        0.0000
     53 H         -24.2668  -36.1825   -0.6563 H         1 UNL1        0.0000
     54 H         -23.0230  -37.6055    0.8401 H         1 UNL1        0.0000
     55 H         -19.7367  -35.8250    1.6437 H         1 UNL1        0.0000
@<TRIPOS>BOND
     1    1   18 1
     2    1   21 1
     3    1   17 am
     4    2   19 1
     5    2   20 1
     6    2   22 am
     7    3    4 1
     8    3   12 2
     9    4    5 am
    10    4   55 1
    11    5   29 2
    12    5    6 1
    13    6    7 ar
    14    6   11 ar
    15    7    8 ar
    16    7   33 1
    17    8   34 1
    18    8    9 ar
    19    9   10 ar
    20    9   35 1
    21   10   11 ar
    22   10   36 1
    23   11   12 1
    24   12   13 1
    25   13   37 1
    26   13   38 1
    27   13   14 1
    28   14   15 ar
    29   14   28 ar
    30   15   39 1
    31   15   16 ar
    32   16   26 ar
    33   16   17 1
    34   17   31 2
    35   18   19 1
    36   18   40 1
    37   18   41 1
    38   19   42 1
    39   19   43 1
    40   20   21 1
    41   20   45 1
    42   20   44 1
    43   21   46 1
    44   21   47 1
    45   22   30 2
    46   22   23 1
    47   23   25 1
    48   23   24 1
    49   23   48 1
    50   24   25 1
    51   24   49 1
    52   24   50 1
    53   25   51 1
    54   25   52 1
    55   26   27 ar
    56   26   32 1
    57   27   28 ar
    58   27   53 1
    59   28   54 1
@<TRIPOS>SUBSTRUCTURE
1 UNL1 1
@<TRIPOS>COMMENT
olaparib
PLANTSproteinTorsions
102
4661 147.5191
5386 117.9246
6210 3.5458
5890 66.1281
4461 302.7100
1390 210.3708
2824 78.6378
4339 93.3033
2732 267.5953
4792 182.3207
3407 57.1904
5134 14.9824
6916 68.1178
7370 197.5275
6038 57.6407
7225 102.0999
3592 289.6808
2064 48.2452
2488 189.3004
1253 23.5299
2069 135.9508
2569 275.1016
3058 179.3622
1748 89.6022
1162 206.4658
1509 241.0930
560 150.9128
1627 228.7452
1941 71.0538
3631 305.7163
2381 175.6689
4221 328.8974
4687 235.9288
6983 34.2924
6668 142.1256
7305 224.9196
8693 254.2926
8404 196.7158
9055 31.3909
7052 254.3318
4708 79.6911
2652 324.7515
4332 202.2320
3011 177.5563
2257 251.1499
2778 238.1383
2057 87.4419
192 43.8634
315 140.6324
1085 167.6970
1007 257.3160
1407 159.8766
4816 40.9038
3131 5.2702
4654 72.4049
5144 74.8886
117 135.4273
6 209.0172
259 97.5946
1979 195.2951
2609 286.9505
2623 181.5897
5910 172.2143
5937 58.3134
2062 115.9452
890 172.0563
5008 156.6334
8602 142.7281
8478 133.5736
8300 139.1295
7721 159.0914
8466 332.2141
7852 281.0383
5849 276.9181
6302 37.0445
7439 249.9348
6284 265.9231
6003 59.7345
7165 252.3122
7623 182.5114
8158 254.6266
8667 58.0992
9078 159.2145
8684 61.5168
7666 120.9478
4231 220.6150
1659 219.2209
489 177.2205
238 174.2868
46 122.4764
83 112.1070
254 87.1560
1066 219.8335
2112 155.5941
4047 74.4060
5402 91.3866
2544 210.6318
4670 239.2711
4426 52.6583
5656 53.3894
7040 223.2632
6282 209.1136
PLANTSmolcadARTstart hb
PLANTSmolcadARTstart HB
LINES
PLANTSmolcadARTstart HBCH
LINES
PLANTSmolcadARTstart HB-CHO
LINES
PLANTSmolcadARTend
PLANTSmolcadARTstart HB_WATER
LINES
PLANTSmolcadARTend

PLANTSmolcadARTend

