@<TRIPOS>MOLECULE
olaparib_entry_00001_conf_13
55 59 1
SMALL
NO_CHARGES


@<TRIPOS>ATOM
      1 N         -13.8615  -41.7098    0.0811 N.am      1 UNL1        0.0000
      2 N         -12.4345  -43.5028   -1.1425 N.am      1 UNL1        0.0000
      3 N         -17.0182  -36.6008    1.7814 N.2       1 UNL1        0.0000
      4 N         -17.9699  -36.6130    2.6829 N.am      1 UNL1        0.0000
      5 C         -19.2538  -36.3513    2.3999 C.2       1 UNL1        0.0000
      6 C         -19.5989  -36.0532    1.0977 C.ar      1 UNL1        0.0000
      7 C         -20.9171  -35.7535    0.7521 C.ar      1 UNL1        0.0000
      8 C         -21.2350  -35.4377   -0.5513 C.ar      1 UNL1        0.0000
      9 C         -20.2014  -35.4347   -1.4639 C.ar      1 UNL1        0.0000
     10 C         -18.8889  -35.7296   -1.1349 C.ar      1 UNL1        0.0000
     11 C         -18.5854  -36.0434    0.1571 C.ar      1 UNL1        0.0000
     12 C         -17.2802  -36.3152    0.4688 C.2       1 UNL1        0.0000
     13 C         -16.1461  -36.4000   -0.4420 C.3       1 UNL1        0.0000
     14 C         -16.0706  -37.7528   -1.0597 C.ar      1 UNL1        0.0000
     15 C         -15.6884  -38.7933   -0.1942 C.ar      1 UNL1        0.0000
     16 C         -15.5803  -40.0765   -0.6742 C.ar      1 UNL1        0.0000
     17 C         -15.1769  -41.1924    0.2109 C.2       1 UNL1        0.0000
     18 C         -13.4344  -42.7824    0.9203 C.3       1 UNL1        0.0000
     19 C         -12.3405  -43.6171    0.2897 C.3       1 UNL1        0.0000
     20 C         -12.2378  -42.1677   -1.7176 C.3       1 UNL1        0.0000
     21 C         -12.9745  -41.1300   -0.9104 C.3       1 UNL1        0.0000
     22 C         -12.7012  -44.5996   -1.9673 C.2       1 UNL1        0.0000
     23 C         -12.9337  -45.9835   -1.5456 C.3       1 UNL1        0.0000
     24 C         -13.9886  -46.7466   -2.3144 C.3       1 UNL1        0.0000
     25 C         -14.2173  -46.3863   -0.9133 C.3       1 UNL1        0.0000
     26 C         -15.8299  -40.4159   -1.9828 C.ar      1 UNL1        0.0000
     27 C         -16.2039  -39.3966   -2.8291 C.ar      1 UNL1        0.0000
     28 C         -16.3142  -38.0860   -2.3429 C.ar      1 UNL1        0.0000
     29 O         -20.1806  -36.3594    3.2501 O.2       1 UNL1        0.0000
     30 O         -12.7531  -44.3934   -3.2322 O.2       1 UNL1        0.0000
     31 O         -15.9541  -41.6859    1.0602 O.2       1 UNL1        0.0000
     32 F         -15.7078  -41.7059   -2.4113 F         1 UNL1        0.0000
     33 H         -21.6554  -35.7690    1.4730 H         1 UNL1        0.0000
     34 H         -22.2018  -35.2132   -0.8309 H         1 UNL1        0.0000
     35 H         -20.4175  -35.1996   -2.4448 H         1 UNL1        0.0000
     36 H         -18.1508  -35.7128   -1.8562 H         1 UNL1        0.0000
     37 H         -15.2436  -36.2098    0.1005 H         1 UNL1        0.0000
     38 H         -16.2716  -35.6742   -1.2184 H         1 UNL1        0.0000
     39 H         -15.4894  -38.5938    0.7983 H         1 UNL1        0.0000
     40 H         -14.2743  -43.4142    1.1225 H         1 UNL1        0.0000
     41 H         -13.0375  -42.3529    1.8169 H         1 UNL1        0.0000
     42 H         -12.4585  -44.6406    0.5775 H         1 UNL1        0.0000
     43 H         -11.3835  -43.2697    0.6197 H         1 UNL1        0.0000
     44 H         -12.6065  -42.1584   -2.7219 H         1 UNL1        0.0000
     45 H         -11.1933  -41.9359   -1.7056 H         1 UNL1        0.0000
     46 H         -13.5565  -40.5283   -1.5770 H         1 UNL1        0.0000
     47 H         -12.2431  -40.5519   -0.3869 H         1 UNL1        0.0000
     48 H         -11.9067  -46.1082   -1.2737 H         1 UNL1        0.0000
     49 H         -13.8201  -47.7685   -2.5838 H         1 UNL1        0.0000
     50 H         -14.5161  -46.5925   -3.2325 H         1 UNL1        0.0000
     51 H         -14.2235  -47.1497   -0.1635 H         1 UNL1        0.0000
     52 H         -14.9914  -45.8620   -0.3945 H         1 UNL1        0.0000
     53 H         -16.4034  -39.5978   -3.8220 H         1 UNL1        0.0000
     54 H         -16.5960  -37.3403   -2.9987 H         1 UNL1        0.0000
     55 H         -17.7297  -36.8254    3.6140 H         1 UNL1        0.0000
@<TRIPOS>BOND
     1    1   18 1
     2    1   21 1
     3    1   17 am
     4    2   19 1
     5    2   20 1
     6    2   22 am
     7    3    4 1
     8    3   12 2
     9    4    5 am
    10    4   55 1
    11    5   29 2
    12    5    6 1
    13    6    7 ar
    14    6   11 ar
    15    7    8 ar
    16    7   33 1
    17    8   34 1
    18    8    9 ar
    19    9   10 ar
    20    9   35 1
    21   10   11 ar
    22   10   36 1
    23   11   12 1
    24   12   13 1
    25   13   37 1
    26   13   38 1
    27   13   14 1
    28   14   15 ar
    29   14   28 ar
    30   15   39 1
    31   15   16 ar
    32   16   26 ar
    33   16   17 1
    34   17   31 2
    35   18   19 1
    36   18   40 1
    37   18   41 1
    38   19   42 1
    39   19   43 1
    40   20   21 1
    41   20   45 1
    42   20   44 1
    43   21   46 1
    44   21   47 1
    45   22   30 2
    46   22   23 1
    47   23   25 1
    48   23   24 1
    49   23   48 1
    50   24   25 1
    51   24   49 1
    52   24   50 1
    53   25   51 1
    54   25   52 1
    55   26   27 ar
    56   26   32 1
    57   27   28 ar
    58   27   53 1
    59   28   54 1
@<TRIPOS>SUBSTRUCTURE
1 UNL1 1
@<TRIPOS>COMMENT
olaparib
PLANTSproteinTorsions
102
4661 99.0092
5386 123.4081
6210 276.8792
5890 117.6944
4461 229.5970
1390 40.2648
2824 247.3773
4339 9.2081
2732 65.8580
4792 145.9290
3407 33.8142
5134 257.0435
6916 237.1688
7370 253.0453
6038 160.7348
7225 353.0364
3592 19.1677
2064 69.9263
2488 175.6851
1253 249.3472
2069 132.3721
2569 250.0908
3058 84.8595
1748 86.9787
1162 338.5063
1509 45.9369
560 80.2117
1627 94.9296
1941 225.2807
3631 207.4526
2381 80.0344
4221 125.3310
4687 40.3663
6983 10.4767
6668 61.7899
7305 64.8024
8693 339.3206
8404 66.9553
9055 118.3496
7052 354.4784
4708 2.8681
2652 191.1822
4332 281.6850
3011 71.3953
2257 103.0151
2778 155.5499
2057 9.3675
192 40.5466
315 356.4239
1085 332.9082
1007 134.2202
1407 219.4870
4816 358.0457
3131 243.9525
4654 311.8354
5144 137.7186
117 237.1079
6 140.3776
259 81.7526
1979 120.2624
2609 185.8344
2623 42.8898
5910 314.8887
5937 109.2999
2062 35.7217
890 243.7782
5008 282.0213
8602 97.7114
8478 274.2898
8300 87.2784
7721 260.8270
8466 258.8542
7852 240.5886
5849 266.0193
6302 225.3091
7439 98.3365
6284 258.6534
6003 272.2581
7165 79.2481
7623 272.0705
8158 39.5618
8667 268.2761
9078 118.6943
8684 167.1537
7666 254.8813
4231 267.9567
1659 254.6248
489 6.5263
238 176.6987
46 219.0035
83 250.3299
254 241.1210
1066 242.0264
2112 58.5342
4047 235.4454
5402 274.4004
2544 247.4405
4670 66.8106
4426 105.5555
5656 197.0406
7040 251.8034
6282 205.8682
PLANTSmolcadARTstart hb
PLANTSmolcadARTstart HB
LINES
PLANTSmolcadARTstart HBCH
LINES
PLANTSmolcadARTstart HB-CHO
LINES
PLANTSmolcadARTend
PLANTSmolcadARTstart HB_WATER
LINES
PLANTSmolcadARTend

PLANTSmolcadARTend

