@<TRIPOS>MOLECULE
olaparib_entry_00001_conf_31
55 59 1
SMALL
NO_CHARGES


@<TRIPOS>ATOM
      1 N         -43.8185  -52.2565  -15.7692 N.am      1 UNL1        0.0000
      2 N         -41.3799  -51.7895  -15.0052 N.am      1 UNL1        0.0000
      3 N         -43.2635  -50.4100  -21.4389 N.2       1 UNL1        0.0000
      4 N         -42.2567  -50.2861  -22.2693 N.am      1 UNL1        0.0000
      5 C         -41.8243  -49.1035  -22.7290 C.2       1 UNL1        0.0000
      6 C         -42.4655  -47.9550  -22.3125 C.ar      1 UNL1        0.0000
      7 C         -42.0689  -46.6998  -22.7756 C.ar      1 UNL1        0.0000
      8 C         -42.7379  -45.5678  -22.3626 C.ar      1 UNL1        0.0000
      9 C         -43.7917  -45.7471  -21.4916 C.ar      1 UNL1        0.0000
     10 C         -44.1963  -46.9864  -21.0242 C.ar      1 UNL1        0.0000
     11 C         -43.5259  -48.1000  -21.4371 C.ar      1 UNL1        0.0000
     12 C         -43.9498  -49.3187  -20.9794 C.2       1 UNL1        0.0000
     13 C         -45.0041  -49.5887  -20.0105 C.3       1 UNL1        0.0000
     14 C         -45.0722  -51.0440  -19.7026 C.ar      1 UNL1        0.0000
     15 C         -44.8355  -51.3908  -18.3605 C.ar      1 UNL1        0.0000
     16 C         -44.8665  -52.7110  -17.9800 C.ar      1 UNL1        0.0000
     17 C         -44.6180  -53.1081  -16.5757 C.2       1 UNL1        0.0000
     18 C         -43.5608  -52.6033  -14.4090 C.3       1 UNL1        0.0000
     19 C         -42.2648  -52.0164  -13.8922 C.3       1 UNL1        0.0000
     20 C         -41.8230  -50.8298  -16.0223 C.3       1 UNL1        0.0000
     21 C         -43.2780  -51.0426  -16.3525 C.3       1 UNL1        0.0000
     22 C         -40.1507  -52.4430  -15.1324 C.2       1 UNL1        0.0000
     23 C         -39.5791  -53.4317  -14.2144 C.3       1 UNL1        0.0000
     24 C         -39.4941  -53.0218  -12.7615 C.3       1 UNL1        0.0000
     25 C         -38.2713  -53.1934  -13.5492 C.3       1 UNL1        0.0000
     26 C         -45.1221  -53.7418  -18.8531 C.ar      1 UNL1        0.0000
     27 C         -45.3536  -53.4011  -20.1666 C.ar      1 UNL1        0.0000
     28 C         -45.3217  -52.0551  -20.5584 C.ar      1 UNL1        0.0000
     29 O         -40.8601  -48.9643  -23.5244 O.2       1 UNL1        0.0000
     30 O         -39.4311  -52.1615  -16.1562 O.2       1 UNL1        0.0000
     31 O         -45.0879  -54.1608  -16.0861 O.2       1 UNL1        0.0000
     32 F         -45.1412  -55.0379  -18.4261 F         1 UNL1        0.0000
     33 H         -41.2733  -46.6187  -23.4278 H         1 UNL1        0.0000
     34 H         -42.4631  -44.6297  -22.6906 H         1 UNL1        0.0000
     35 H         -44.3068  -44.9128  -21.1710 H         1 UNL1        0.0000
     36 H         -44.9929  -47.0668  -20.3729 H         1 UNL1        0.0000
     37 H         -45.9427  -49.2697  -20.4131 H         1 UNL1        0.0000
     38 H         -44.7880  -49.0561  -19.1077 H         1 UNL1        0.0000
     39 H         -44.6387  -50.6561  -17.6633 H         1 UNL1        0.0000
     40 H         -43.5094  -53.6695  -14.3313 H         1 UNL1        0.0000
     41 H         -44.3568  -52.2015  -13.8166 H         1 UNL1        0.0000
     42 H         -41.8105  -52.6984  -13.2046 H         1 UNL1        0.0000
     43 H         -42.4605  -51.0921  -13.3894 H         1 UNL1        0.0000
     44 H         -41.2388  -50.9607  -16.9090 H         1 UNL1        0.0000
     45 H         -41.6978  -49.8380  -15.6407 H         1 UNL1        0.0000
     46 H         -43.3822  -51.1005  -17.4159 H         1 UNL1        0.0000
     47 H         -43.8238  -50.2197  -15.9426 H         1 UNL1        0.0000
     48 H         -39.9787  -54.2427  -14.7862 H         1 UNL1        0.0000
     49 H         -39.7383  -53.7244  -11.9920 H         1 UNL1        0.0000
     50 H         -39.9114  -52.2324  -12.1719 H         1 UNL1        0.0000
     51 H         -37.6207  -54.0183  -13.3459 H         1 UNL1        0.0000
     52 H         -37.4273  -52.5723  -13.7618 H         1 UNL1        0.0000
     53 H         -45.5510  -54.1374  -20.8632 H         1 UNL1        0.0000
     54 H         -45.4984  -51.8270  -21.5495 H         1 UNL1        0.0000
     55 H         -41.7949  -51.1023  -22.5698 H         1 UNL1        0.0000
@<TRIPOS>BOND
     1    1   18 1
     2    1   21 1
     3    1   17 am
     4    2   19 1
     5    2   20 1
     6    2   22 am
     7    3    4 1
     8    3   12 2
     9    4    5 am
    10    4   55 1
    11    5   29 2
    12    5    6 1
    13    6    7 ar
    14    6   11 ar
    15    7    8 ar
    16    7   33 1
    17    8   34 1
    18    8    9 ar
    19    9   10 ar
    20    9   35 1
    21   10   11 ar
    22   10   36 1
    23   11   12 1
    24   12   13 1
    25   13   37 1
    26   13   38 1
    27   13   14 1
    28   14   15 ar
    29   14   28 ar
    30   15   39 1
    31   15   16 ar
    32   16   26 ar
    33   16   17 1
    34   17   31 2
    35   18   19 1
    36   18   40 1
    37   18   41 1
    38   19   42 1
    39   19   43 1
    40   20   21 1
    41   20   45 1
    42   20   44 1
    43   21   46 1
    44   21   47 1
    45   22   30 2
    46   22   23 1
    47   23   25 1
    48   23   24 1
    49   23   48 1
    50   24   25 1
    51   24   49 1
    52   24   50 1
    53   25   51 1
    54   25   52 1
    55   26   27 ar
    56   26   32 1
    57   27   28 ar
    58   27   53 1
    59   28   54 1
@<TRIPOS>SUBSTRUCTURE
1 UNL1 1
@<TRIPOS>COMMENT
olaparib
PLANTSproteinTorsions
102
4661 125.5953
5386 18.8966
6210 176.7922
5890 264.3721
4461 195.8558
1390 97.6047
2824 130.0363
4339 189.7338
2732 172.0168
4792 64.1803
3407 75.2075
5134 75.7211
6916 91.6638
7370 211.4113
6038 305.5383
7225 77.3425
3592 176.1239
2064 259.6351
2488 267.3277
1253 127.0324
2069 238.3345
2569 203.5703
3058 243.2958
1748 65.2594
1162 202.8977
1509 234.3314
560 158.0617
1627 74.6548
1941 189.9384
3631 154.7406
2381 178.9520
4221 100.3388
4687 24.9276
6983 139.5343
6668 54.9237
7305 323.8877
8693 200.7811
8404 24.8057
9055 195.0695
7052 159.9303
4708 140.1901
2652 173.3926
4332 235.7227
3011 146.9275
2257 17.3256
2778 239.8620
2057 239.6435
192 39.3651
315 167.8960
1085 253.6499
1007 115.9431
1407 218.2679
4816 227.8821
3131 153.3595
4654 4.8310
5144 69.7382
117 97.4719
6 229.4671
259 118.3357
1979 205.8864
2609 7.0211
2623 139.7533
5910 224.3722
5937 33.8577
2062 116.5209
890 125.7537
5008 261.4388
8602 312.2166
8478 41.2458
8300 183.5938
7721 258.5986
8466 90.4499
7852 250.0828
5849 318.5616
6302 214.3117
7439 139.2759
6284 34.6013
6003 242.2644
7165 257.4204
7623 349.2300
8158 37.8871
8667 205.0224
9078 50.8841
8684 181.8892
7666 218.3465
4231 32.0352
1659 130.6769
489 223.9168
238 280.0810
46 204.7712
83 229.1892
254 157.9924
1066 10.4615
2112 152.0626
4047 146.8765
5402 171.2244
2544 212.7675
4670 268.4092
4426 79.5277
5656 45.0721
7040 276.2882
6282 227.0296
PLANTSmolcadARTstart hb
PLANTSmolcadARTstart HB
LINES
-40.8601 -48.9643 -23.5244 -39.4785 -48.9799 -22.054 0 255 0 5
PLANTSmolcadARTstart HBCH
LINES
PLANTSmolcadARTstart HB-CHO
LINES
PLANTSmolcadARTend
PLANTSmolcadARTstart HB_WATER
LINES
PLANTSmolcadARTend

PLANTSmolcadARTend

