@<TRIPOS>MOLECULE
olaparib_entry_00001_conf_67
55 59 1
SMALL
NO_CHARGES


@<TRIPOS>ATOM
      1 N         -25.6892  -32.5975    2.9607 N.am      1 UNL1        0.0000
      2 N         -25.1930  -30.2347    3.9194 N.am      1 UNL1        0.0000
      3 N         -19.3439  -37.5657    2.8516 N.2       1 UNL1        0.0000
      4 N         -18.7605  -38.6126    2.3202 N.am      1 UNL1        0.0000
      5 C         -19.3879  -39.7796    2.1172 C.2       1 UNL1        0.0000
      6 C         -20.7134  -39.8929    2.4833 C.ar      1 UNL1        0.0000
      7 C         -21.4083  -41.0909    2.3126 C.ar      1 UNL1        0.0000
      8 C         -22.7258  -41.1875    2.7054 C.ar      1 UNL1        0.0000
      9 C         -23.2965  -40.0623    3.2617 C.ar      1 UNL1        0.0000
     10 C         -22.6189  -38.8673    3.4374 C.ar      1 UNL1        0.0000
     11 C         -21.3162  -38.7816    3.0430 C.ar      1 UNL1        0.0000
     12 C         -20.6559  -37.5985    3.2399 C.2       1 UNL1        0.0000
     13 C         -21.2011  -36.3491    3.7545 C.3       1 UNL1        0.0000
     14 C         -22.1960  -35.7808    2.8034 C.ar      1 UNL1        0.0000
     15 C         -23.3188  -35.1730    3.3930 C.ar      1 UNL1        0.0000
     16 C         -24.2979  -34.6284    2.5971 C.ar      1 UNL1        0.0000
     17 C         -25.4932  -33.9850    3.1875 C.2       1 UNL1        0.0000
     18 C         -26.8325  -31.9429    3.5097 C.3       1 UNL1        0.0000
     19 C         -26.6033  -30.4650    3.7428 C.3       1 UNL1        0.0000
     20 C         -24.3196  -30.5543    2.7850 C.3       1 UNL1        0.0000
     21 C         -24.7137  -31.8717    2.1684 C.3       1 UNL1        0.0000
     22 C         -24.6577  -29.7313    5.1086 C.2       1 UNL1        0.0000
     23 C         -25.3926  -29.3798    6.3266 C.3       1 UNL1        0.0000
     24 C         -26.0233  -28.0059    6.3519 C.3       1 UNL1        0.0000
     25 C         -24.8993  -28.3147    7.2387 C.3       1 UNL1        0.0000
     26 C         -24.2465  -34.6403    1.2233 C.ar      1 UNL1        0.0000
     27 C         -23.1470  -35.2355    0.6473 C.ar      1 UNL1        0.0000
     28 C         -22.1466  -35.7931    1.4564 C.ar      1 UNL1        0.0000
     29 O         -18.8460  -40.7939    1.6079 O.2       1 UNL1        0.0000
     30 O         -23.3887  -29.5513    5.1600 O.2       1 UNL1        0.0000
     31 O         -26.3255  -34.6228    3.8725 O.2       1 UNL1        0.0000
     32 F         -25.2454  -34.0862    0.4764 F         1 UNL1        0.0000
     33 H         -20.9355  -41.9056    1.8911 H         1 UNL1        0.0000
     34 H         -23.2601  -42.0617    2.5891 H         1 UNL1        0.0000
     35 H         -24.2815  -40.1136    3.5637 H         1 UNL1        0.0000
     36 H         -23.0921  -38.0532    3.8601 H         1 UNL1        0.0000
     37 H         -20.4049  -35.6475    3.8921 H         1 UNL1        0.0000
     38 H         -21.6890  -36.5433    4.6870 H         1 UNL1        0.0000
     39 H         -23.4074  -35.1364    4.4203 H         1 UNL1        0.0000
     40 H         -27.0749  -32.4040    4.4446 H         1 UNL1        0.0000
     41 H         -27.6305  -32.0390    2.8026 H         1 UNL1        0.0000
     42 H         -27.1314  -30.1534    4.6193 H         1 UNL1        0.0000
     43 H         -26.9602  -29.9059    2.9028 H         1 UNL1        0.0000
     44 H         -23.3071  -30.6147    3.1255 H         1 UNL1        0.0000
     45 H         -24.4156  -29.7858    2.0466 H         1 UNL1        0.0000
     46 H         -23.8376  -32.4781    2.0686 H         1 UNL1        0.0000
     47 H         -25.1630  -31.6612    1.2213 H         1 UNL1        0.0000
     48 H         -25.6983  -30.3942    6.4747 H         1 UNL1        0.0000
     49 H         -27.0049  -27.8750    6.7574 H         1 UNL1        0.0000
     50 H         -26.2263  -27.2525    5.6196 H         1 UNL1        0.0000
     51 H         -25.0631  -28.4001    8.2926 H         1 UNL1        0.0000
     52 H         -23.9448  -27.8672    7.4171 H         1 UNL1        0.0000
     53 H         -23.0592  -35.2710   -0.3809 H         1 UNL1        0.0000
     54 H         -21.3328  -36.2336    0.9990 H         1 UNL1        0.0000
     55 H         -17.8147  -38.5375    2.0566 H         1 UNL1        0.0000
@<TRIPOS>BOND
     1    1   18 1
     2    1   21 1
     3    1   17 am
     4    2   19 1
     5    2   20 1
     6    2   22 am
     7    3    4 1
     8    3   12 2
     9    4    5 am
    10    4   55 1
    11    5   29 2
    12    5    6 1
    13    6    7 ar
    14    6   11 ar
    15    7    8 ar
    16    7   33 1
    17    8   34 1
    18    8    9 ar
    19    9   10 ar
    20    9   35 1
    21   10   11 ar
    22   10   36 1
    23   11   12 1
    24   12   13 1
    25   13   37 1
    26   13   38 1
    27   13   14 1
    28   14   15 ar
    29   14   28 ar
    30   15   39 1
    31   15   16 ar
    32   16   26 ar
    33   16   17 1
    34   17   31 2
    35   18   19 1
    36   18   40 1
    37   18   41 1
    38   19   42 1
    39   19   43 1
    40   20   21 1
    41   20   45 1
    42   20   44 1
    43   21   46 1
    44   21   47 1
    45   22   30 2
    46   22   23 1
    47   23   25 1
    48   23   24 1
    49   23   48 1
    50   24   25 1
    51   24   49 1
    52   24   50 1
    53   25   51 1
    54   25   52 1
    55   26   27 ar
    56   26   32 1
    57   27   28 ar
    58   27   53 1
    59   28   54 1
@<TRIPOS>SUBSTRUCTURE
1 UNL1 1
@<TRIPOS>COMMENT
olaparib
PLANTSproteinTorsions
102
4661 151.8167
5386 21.7578
6210 13.0142
5890 5.0813
4461 4.9319
1390 116.1782
2824 64.6483
4339 198.7329
2732 98.7750
4792 71.2707
3407 127.1780
5134 4.6789
6916 139.4477
7370 202.5884
6038 41.9649
7225 170.8465
3592 266.0312
2064 158.9769
2488 105.4497
1253 358.0132
2069 211.2753
2569 221.0490
3058 149.5609
1748 196.9220
1162 239.0589
1509 221.7907
560 305.3823
1627 135.6615
1941 55.4477
3631 76.7301
2381 68.6856
4221 98.3233
4687 100.6749
6983 48.4023
6668 182.3372
7305 224.1220
8693 212.6360
8404 221.8615
9055 115.0660
7052 288.7991
4708 130.3943
2652 157.4807
4332 46.5981
3011 190.9454
2257 153.6004
2778 108.5200
2057 45.0466
192 80.0353
315 126.3795
1085 256.7567
1007 279.0289
1407 11.4529
4816 88.5357
3131 38.8124
4654 244.5282
5144 7.4220
117 141.8017
6 168.8113
259 63.2375
1979 107.1463
2609 226.4660
2623 64.2050
5910 119.5923
5937 56.4134
2062 123.0364
890 201.3385
5008 199.8792
8602 38.9714
8478 178.7766
8300 317.4904
7721 184.2587
8466 339.8497
7852 247.5677
5849 92.7714
6302 100.6735
7439 264.5451
6284 262.6344
6003 90.5464
7165 61.5899
7623 174.1583
8158 126.2302
8667 271.1329
9078 266.4794
8684 194.3492
7666 151.4093
4231 172.8931
1659 125.0574
489 185.9758
238 251.0829
46 200.2275
83 256.1064
254 117.9797
1066 141.8280
2112 198.6220
4047 90.0594
5402 184.1175
2544 229.1026
4670 140.6176
4426 158.9166
5656 38.6862
7040 224.4572
6282 242.7589
PLANTSmolcadARTstart hb
PLANTSmolcadARTstart HB
LINES
PLANTSmolcadARTstart HBCH
LINES
PLANTSmolcadARTstart HB-CHO
LINES
PLANTSmolcadARTend
PLANTSmolcadARTstart HB_WATER
LINES
PLANTSmolcadARTend

PLANTSmolcadARTend

