@<TRIPOS>MOLECULE
olaparib_entry_00001_conf_45
55 59 1
SMALL
NO_CHARGES


@<TRIPOS>ATOM
      1 N         -17.6259  -34.1922    0.5940 N.am      1 UNL1        0.0000
      2 N         -16.7380  -36.4715    1.4687 N.am      1 UNL1        0.0000
      3 N         -14.5529  -33.2541   -4.2704 N.2       1 UNL1        0.0000
      4 N         -14.7309  -33.6839   -5.4960 N.am      1 UNL1        0.0000
      5 C         -13.7396  -34.1719   -6.2550 C.2       1 UNL1        0.0000
      6 C         -12.4659  -34.2276   -5.7276 C.ar      1 UNL1        0.0000
      7 C         -11.3942  -34.7078   -6.4813 C.ar      1 UNL1        0.0000
      8 C         -10.1265  -34.7343   -5.9411 C.ar      1 UNL1        0.0000
      9 C          -9.9869  -34.2698   -4.6504 C.ar      1 UNL1        0.0000
     10 C         -11.0412  -33.7903   -3.8912 C.ar      1 UNL1        0.0000
     11 C         -12.2921  -33.7708   -4.4342 C.ar      1 UNL1        0.0000
     12 C         -13.3201  -33.2772   -3.6765 C.2       1 UNL1        0.0000
     13 C         -13.2708  -32.8332   -2.2896 C.3       1 UNL1        0.0000
     14 C         -14.5529  -32.1825   -1.9022 C.ar      1 UNL1        0.0000
     15 C         -15.5580  -33.0513   -1.4412 C.ar      1 UNL1        0.0000
     16 C         -16.7808  -32.5459   -1.0697 C.ar      1 UNL1        0.0000
     17 C         -17.8600  -33.4350   -0.5837 C.2       1 UNL1        0.0000
     18 C         -18.6444  -35.0569    1.0961 C.3       1 UNL1        0.0000
     19 C         -18.0861  -36.2103    1.9018 C.3       1 UNL1        0.0000
     20 C         -15.7577  -35.3973    1.6611 C.3       1 UNL1        0.0000
     21 C         -16.3455  -34.0672    1.2653 C.3       1 UNL1        0.0000
     22 C         -16.3577  -37.6848    0.8878 C.2       1 UNL1        0.0000
     23 C         -17.2175  -38.8402    0.6176 C.3       1 UNL1        0.0000
     24 C         -17.7004  -39.6094    1.8264 C.3       1 UNL1        0.0000
     25 C         -16.7511  -40.2240    0.8956 C.3       1 UNL1        0.0000
     26 C         -17.0910  -31.2076   -1.1213 C.ar      1 UNL1        0.0000
     27 C         -16.1065  -30.3580   -1.5728 C.ar      1 UNL1        0.0000
     28 C         -14.8580  -30.8705   -1.9536 C.ar      1 UNL1        0.0000
     29 O         -13.8907  -34.5899   -7.4316 O.2       1 UNL1        0.0000
     30 O         -15.1288  -37.8213    0.5468 O.2       1 UNL1        0.0000
     31 O         -18.9594  -33.5360   -1.1750 O.2       1 UNL1        0.0000
     32 F         -18.3212  -30.7548   -0.7416 F         1 UNL1        0.0000
     33 H         -11.5509  -35.0443   -7.4442 H         1 UNL1        0.0000
     34 H          -9.3191  -35.0850   -6.4782 H         1 UNL1        0.0000
     35 H          -9.0460  -34.2797   -4.2276 H         1 UNL1        0.0000
     36 H         -10.8836  -33.4528   -2.9286 H         1 UNL1        0.0000
     37 H         -12.4707  -32.1324   -2.1722 H         1 UNL1        0.0000
     38 H         -13.1132  -33.6841   -1.6599 H         1 UNL1        0.0000
     39 H         -15.3780  -34.0656   -1.3823 H         1 UNL1        0.0000
     40 H         -19.1966  -35.4521    0.2688 H         1 UNL1        0.0000
     41 H         -19.2671  -34.4789    1.7474 H         1 UNL1        0.0000
     42 H         -18.6884  -37.0808    1.7479 H         1 UNL1        0.0000
     43 H         -18.0914  -35.9615    2.9427 H         1 UNL1        0.0000
     44 H         -14.8960  -35.5940    1.0582 H         1 UNL1        0.0000
     45 H         -15.4841  -35.3591    2.6949 H         1 UNL1        0.0000
     46 H         -15.6622  -33.5744    0.6054 H         1 UNL1        0.0000
     47 H         -16.5072  -33.5081    2.1622 H         1 UNL1        0.0000
     48 H         -17.6441  -38.3641   -0.2402 H         1 UNL1        0.0000
     49 H         -18.7107  -39.9594    1.8696 H         1 UNL1        0.0000
     50 H         -17.7189  -39.4287    2.8809 H         1 UNL1        0.0000
     51 H         -17.0704  -41.0285    0.2666 H         1 UNL1        0.0000
     52 H         -15.7905  -40.6810    1.0029 H         1 UNL1        0.0000
     53 H         -16.2877  -29.3431   -1.6306 H         1 UNL1        0.0000
     54 H         -14.1374  -30.2117   -2.2889 H         1 UNL1        0.0000
     55 H         -15.6379  -33.6469   -5.8776 H         1 UNL1        0.0000
@<TRIPOS>BOND
     1    1   18 1
     2    1   21 1
     3    1   17 am
     4    2   19 1
     5    2   20 1
     6    2   22 am
     7    3    4 1
     8    3   12 2
     9    4    5 am
    10    4   55 1
    11    5   29 2
    12    5    6 1
    13    6    7 ar
    14    6   11 ar
    15    7    8 ar
    16    7   33 1
    17    8   34 1
    18    8    9 ar
    19    9   10 ar
    20    9   35 1
    21   10   11 ar
    22   10   36 1
    23   11   12 1
    24   12   13 1
    25   13   37 1
    26   13   38 1
    27   13   14 1
    28   14   15 ar
    29   14   28 ar
    30   15   39 1
    31   15   16 ar
    32   16   26 ar
    33   16   17 1
    34   17   31 2
    35   18   19 1
    36   18   40 1
    37   18   41 1
    38   19   42 1
    39   19   43 1
    40   20   21 1
    41   20   45 1
    42   20   44 1
    43   21   46 1
    44   21   47 1
    45   22   30 2
    46   22   23 1
    47   23   25 1
    48   23   24 1
    49   23   48 1
    50   24   25 1
    51   24   49 1
    52   24   50 1
    53   25   51 1
    54   25   52 1
    55   26   27 ar
    56   26   32 1
    57   27   28 ar
    58   27   53 1
    59   28   54 1
@<TRIPOS>SUBSTRUCTURE
1 UNL1 1
@<TRIPOS>COMMENT
olaparib
PLANTSproteinTorsions
102
4661 194.6898
5386 55.7244
6210 3.4767
5890 171.2148
4461 111.4235
1390 15.0075
2824 315.4106
4339 106.6247
2732 132.6862
4792 30.4624
3407 358.4453
5134 126.8411
6916 48.9568
7370 19.6704
6038 247.0711
7225 161.4474
3592 230.9781
2064 199.6901
2488 96.1925
1253 54.1986
2069 175.3488
2569 117.9525
3058 157.1812
1748 3.1413
1162 203.7787
1509 310.9267
560 232.0957
1627 116.1278
1941 350.2910
3631 46.3129
2381 139.3112
4221 131.6400
4687 60.5035
6983 84.4070
6668 103.1043
7305 15.1697
8693 193.3850
8404 26.0638
9055 72.0456
7052 294.4283
4708 356.9161
2652 47.1314
4332 131.6216
3011 95.8737
2257 156.4747
2778 120.2360
2057 262.2671
192 63.2864
315 34.4266
1085 255.9397
1007 319.7611
1407 205.2676
4816 87.5239
3131 190.7608
4654 32.1087
5144 228.5093
117 307.7365
6 166.9344
259 12.8518
1979 228.5576
2609 0.9413
2623 89.6299
5910 34.7316
5937 257.0661
2062 108.8654
890 254.8108
5008 140.5242
8602 98.7646
8478 93.8427
8300 76.0446
7721 231.2463
8466 320.8565
7852 244.3055
5849 212.5616
6302 9.1347
7439 259.8482
6284 273.4800
6003 112.0337
7165 59.6624
7623 205.9955
8158 261.8142
8667 279.5107
9078 2.0262
8684 182.9772
7666 165.5575
4231 167.1048
1659 53.1982
489 183.5818
238 130.4976
46 117.7467
83 324.6981
254 159.4309
1066 219.0356
2112 167.6818
4047 242.7363
5402 224.0922
2544 345.3830
4670 212.1068
4426 97.8519
5656 233.2879
7040 262.2774
6282 192.8751
PLANTSmolcadARTstart hb
PLANTSmolcadARTstart HB
LINES
PLANTSmolcadARTstart HBCH
LINES
PLANTSmolcadARTstart HB-CHO
LINES
PLANTSmolcadARTend
PLANTSmolcadARTstart HB_WATER
LINES
PLANTSmolcadARTend

PLANTSmolcadARTend

