@<TRIPOS>MOLECULE
olaparib_entry_00001_conf_75
55 59 1
SMALL
NO_CHARGES


@<TRIPOS>ATOM
      1 N         -21.7369  -28.1578    5.7773 N.am      1 UNL1        0.0000
      2 N         -23.1120  -30.2405    5.0565 N.am      1 UNL1        0.0000
      3 N         -24.9645  -21.9320    8.5027 N.2       1 UNL1        0.0000
      4 N         -25.5112  -21.1455    9.3977 N.am      1 UNL1        0.0000
      5 C         -26.2952  -21.5930   10.3887 C.2       1 UNL1        0.0000
      6 C         -26.5443  -22.9471   10.4777 C.ar      1 UNL1        0.0000
      7 C         -27.3693  -23.4639   11.4775 C.ar      1 UNL1        0.0000
      8 C         -27.6213  -24.8177   11.5342 C.ar      1 UNL1        0.0000
      9 C         -27.0273  -25.6052   10.5707 C.ar      1 UNL1        0.0000
     10 C         -26.2069  -25.1060    9.5729 C.ar      1 UNL1        0.0000
     11 C         -25.9620  -23.7652    9.5272 C.ar      1 UNL1        0.0000
     12 C         -25.1630  -23.2860    8.5240 C.2       1 UNL1        0.0000
     13 C         -24.4458  -24.0526    7.5135 C.3       1 UNL1        0.0000
     14 C         -23.4424  -24.9494    8.1508 C.ar      1 UNL1        0.0000
     15 C         -22.7399  -25.7934    7.2723 C.ar      1 UNL1        0.0000
     16 C         -21.7998  -26.6650    7.7673 C.ar      1 UNL1        0.0000
     17 C         -21.0464  -27.5684    6.8686 C.2       1 UNL1        0.0000
     18 C         -21.0431  -29.0305    4.8862 C.3       1 UNL1        0.0000
     19 C         -21.9602  -30.0323    4.2181 C.3       1 UNL1        0.0000
     20 C         -23.9744  -29.0796    5.3025 C.3       1 UNL1        0.0000
     21 C         -23.1441  -27.8557    5.5922 C.3       1 UNL1        0.0000
     22 C         -23.4143  -31.4827    5.6221 C.2       1 UNL1        0.0000
     23 C         -22.6487  -32.7243    5.4826 C.3       1 UNL1        0.0000
     24 C         -21.7403  -33.0809    6.6374 C.3       1 UNL1        0.0000
     25 C         -21.1689  -32.7004    5.3436 C.3       1 UNL1        0.0000
     26 C         -21.4943  -26.7656    9.1039 C.ar      1 UNL1        0.0000
     27 C         -22.1826  -25.9390    9.9630 C.ar      1 UNL1        0.0000
     28 C         -23.1432  -25.0492    9.4614 C.ar      1 UNL1        0.0000
     29 O         -26.8273  -20.8548   11.2569 O.2       1 UNL1        0.0000
     30 O         -24.4707  -31.5655    6.3449 O.2       1 UNL1        0.0000
     31 O         -19.8325  -27.8234    7.0421 O.2       1 UNL1        0.0000
     32 F         -20.5522  -27.6484    9.5464 F         1 UNL1        0.0000
     33 H         -27.7909  -22.8319   12.1758 H         1 UNL1        0.0000
     34 H         -28.2270  -25.2230   12.2637 H         1 UNL1        0.0000
     35 H         -27.2040  -26.6213   10.5943 H         1 UNL1        0.0000
     36 H         -25.7865  -25.7386    8.8741 H         1 UNL1        0.0000
     37 H         -23.9449  -23.3789    6.8500 H         1 UNL1        0.0000
     38 H         -25.1479  -24.6521    6.9721 H         1 UNL1        0.0000
     39 H         -22.9301  -25.7586    6.2587 H         1 UNL1        0.0000
     40 H         -20.2982  -29.5635    5.4398 H         1 UNL1        0.0000
     41 H         -20.6077  -28.4270    4.1166 H         1 UNL1        0.0000
     42 H         -21.4423  -30.9583    4.0817 H         1 UNL1        0.0000
     43 H         -22.2686  -29.6607    3.2630 H         1 UNL1        0.0000
     44 H         -24.6070  -29.2815    6.1413 H         1 UNL1        0.0000
     45 H         -24.5656  -28.8961    4.4297 H         1 UNL1        0.0000
     46 H         -23.5135  -27.3956    6.4850 H         1 UNL1        0.0000
     47 H         -23.2238  -27.2063    4.7466 H         1 UNL1        0.0000
     48 H         -23.4347  -33.1850    4.9219 H         1 UNL1        0.0000
     49 H         -21.6754  -34.0947    6.9740 H         1 UNL1        0.0000
     50 H         -21.6278  -32.7400    7.6454 H         1 UNL1        0.0000
     51 H         -20.6799  -33.4380    4.7421 H         1 UNL1        0.0000
     52 H         -20.4601  -31.9646    5.0284 H         1 UNL1        0.0000
     53 H         -21.9908  -25.9744   10.9770 H         1 UNL1        0.0000
     54 H         -23.6452  -24.4407   10.1272 H         1 UNL1        0.0000
     55 H         -25.3367  -20.1781    9.3394 H         1 UNL1        0.0000
@<TRIPOS>BOND
     1    1   18 1
     2    1   21 1
     3    1   17 am
     4    2   19 1
     5    2   20 1
     6    2   22 am
     7    3    4 1
     8    3   12 2
     9    4    5 am
    10    4   55 1
    11    5   29 2
    12    5    6 1
    13    6    7 ar
    14    6   11 ar
    15    7    8 ar
    16    7   33 1
    17    8   34 1
    18    8    9 ar
    19    9   10 ar
    20    9   35 1
    21   10   11 ar
    22   10   36 1
    23   11   12 1
    24   12   13 1
    25   13   37 1
    26   13   38 1
    27   13   14 1
    28   14   15 ar
    29   14   28 ar
    30   15   39 1
    31   15   16 ar
    32   16   26 ar
    33   16   17 1
    34   17   31 2
    35   18   19 1
    36   18   40 1
    37   18   41 1
    38   19   42 1
    39   19   43 1
    40   20   21 1
    41   20   45 1
    42   20   44 1
    43   21   46 1
    44   21   47 1
    45   22   30 2
    46   22   23 1
    47   23   25 1
    48   23   24 1
    49   23   48 1
    50   24   25 1
    51   24   49 1
    52   24   50 1
    53   25   51 1
    54   25   52 1
    55   26   27 ar
    56   26   32 1
    57   27   28 ar
    58   27   53 1
    59   28   54 1
@<TRIPOS>SUBSTRUCTURE
1 UNL1 1
@<TRIPOS>COMMENT
olaparib
PLANTSproteinTorsions
102
4661 94.9395
5386 121.6345
6210 231.9810
5890 279.7676
4461 28.7022
1390 264.0753
2824 120.3579
4339 320.7622
2732 158.2387
4792 0.1143
3407 27.4263
5134 18.1105
6916 90.3360
7370 56.4439
6038 235.4979
7225 110.2476
3592 54.4806
2064 124.5212
2488 260.3382
1253 255.1186
2069 336.9817
2569 56.3832
3058 70.7992
1748 151.5017
1162 72.0390
1509 182.5136
560 126.3745
1627 181.7315
1941 60.6086
3631 130.4821
2381 24.7047
4221 27.6454
4687 158.4116
6983 168.9782
6668 80.6555
7305 268.0598
8693 339.5364
8404 44.5322
9055 42.1689
7052 210.5757
4708 349.1741
2652 221.2733
4332 6.4650
3011 238.8341
2257 273.5604
2778 27.8777
2057 124.2586
192 267.6093
315 102.5375
1085 348.8885
1007 136.4173
1407 63.9371
4816 334.5665
3131 60.8934
4654 330.5624
5144 25.8482
117 239.6571
6 80.7267
259 46.5186
1979 159.5751
2609 322.7346
2623 42.8882
5910 74.6471
5937 49.8206
2062 38.7334
890 326.2985
5008 277.5426
8602 156.3556
8478 164.7646
8300 61.6100
7721 347.9591
8466 286.9031
7852 130.5636
5849 70.5046
6302 10.7754
7439 28.1989
6284 74.3932
6003 293.3815
7165 251.4894
7623 119.5127
8158 113.8017
8667 169.9515
9078 202.2989
8684 260.8875
7666 209.3648
4231 300.3785
1659 62.3207
489 267.7442
238 255.0793
46 51.8180
83 244.3402
254 288.2955
1066 245.6829
2112 128.0413
4047 254.1601
5402 36.4847
2544 182.2157
4670 67.7585
4426 267.5929
5656 201.8938
7040 318.4003
6282 71.3881
PLANTSmolcadARTstart hb
PLANTSmolcadARTstart HB
LINES
PLANTSmolcadARTstart HBCH
LINES
PLANTSmolcadARTstart HB-CHO
LINES
PLANTSmolcadARTend
PLANTSmolcadARTstart HB_WATER
LINES
PLANTSmolcadARTend

PLANTSmolcadARTend

