@<TRIPOS>MOLECULE
olaparib_entry_00001_conf_69
55 59 1
SMALL
NO_CHARGES


@<TRIPOS>ATOM
      1 N         -41.8043  -58.4170    6.4618 N.am      1 UNL1        0.0000
      2 N         -40.6030  -56.3091    7.3902 N.am      1 UNL1        0.0000
      3 N         -45.8048  -63.1604   11.3521 N.2       1 UNL1        0.0000
      4 N         -46.5431  -64.2427   11.3989 N.am      1 UNL1        0.0000
      5 C         -47.6576  -64.4042   10.6718 C.2       1 UNL1        0.0000
      6 C         -48.0544  -63.3853    9.8304 C.ar      1 UNL1        0.0000
      7 C         -49.2171  -63.4931    9.0664 C.ar      1 UNL1        0.0000
      8 C         -49.6055  -62.4538    8.2487 C.ar      1 UNL1        0.0000
      9 C         -48.7998  -61.3350    8.2342 C.ar      1 UNL1        0.0000
     10 C         -47.6439  -61.2142    8.9872 C.ar      1 UNL1        0.0000
     11 C         -47.2670  -62.2494    9.7910 C.ar      1 UNL1        0.0000
     12 C         -46.1312  -62.1067   10.5420 C.2       1 UNL1        0.0000
     13 C         -45.1922  -60.9925   10.5340 C.3       1 UNL1        0.0000
     14 C         -44.1632  -61.1825    9.4747 C.ar      1 UNL1        0.0000
     15 C         -44.0614  -60.1408    8.5354 C.ar      1 UNL1        0.0000
     16 C         -43.1472  -60.2292    7.5131 C.ar      1 UNL1        0.0000
     17 C         -43.0186  -59.1509    6.5070 C.2       1 UNL1        0.0000
     18 C         -41.6411  -57.3731    5.5023 C.3       1 UNL1        0.0000
     19 C         -40.6549  -56.3164    5.9513 C.3       1 UNL1        0.0000
     20 C         -40.1322  -57.5345    8.0450 C.3       1 UNL1        0.0000
     21 C         -40.7487  -58.7493    7.4004 C.3       1 UNL1        0.0000
     22 C         -40.9800  -55.1976    8.1494 C.2       1 UNL1        0.0000
     23 C         -41.4809  -53.9156    7.6465 C.3       1 UNL1        0.0000
     24 C         -40.4481  -52.8309    7.4400 C.3       1 UNL1        0.0000
     25 C         -41.4539  -52.6961    8.4960 C.3       1 UNL1        0.0000
     26 C         -42.3025  -61.3011    7.3472 C.ar      1 UNL1        0.0000
     27 C         -42.4031  -62.3202    8.2672 C.ar      1 UNL1        0.0000
     28 C         -43.3355  -62.2337    9.3109 C.ar      1 UNL1        0.0000
     29 O         -48.3779  -65.4348   10.7021 O.2       1 UNL1        0.0000
     30 O         -40.8856  -55.2895    9.4253 O.2       1 UNL1        0.0000
     31 O         -43.9394  -58.8723    5.7051 O.2       1 UNL1        0.0000
     32 F         -41.4115  -61.3423    6.3142 F         1 UNL1        0.0000
     33 H         -49.7867  -64.3524    9.1129 H         1 UNL1        0.0000
     34 H         -50.4602  -62.5104    7.6746 H         1 UNL1        0.0000
     35 H         -49.0733  -60.5449    7.6298 H         1 UNL1        0.0000
     36 H         -47.0753  -60.3540    8.9410 H         1 UNL1        0.0000
     37 H         -44.7095  -60.9318   11.4870 H         1 UNL1        0.0000
     38 H         -45.7299  -60.0893   10.3329 H         1 UNL1        0.0000
     39 H         -44.6717  -59.3125    8.6134 H         1 UNL1        0.0000
     40 H         -42.5908  -56.9079    5.3375 H         1 UNL1        0.0000
     41 H         -41.2563  -57.8150    4.6063 H         1 UNL1        0.0000
     42 H         -40.9702  -55.3573    5.5978 H         1 UNL1        0.0000
     43 H         -39.6851  -56.5334    5.5540 H         1 UNL1        0.0000
     44 H         -40.4052  -57.5090    9.0791 H         1 UNL1        0.0000
     45 H         -39.0685  -57.5939    7.9452 H         1 UNL1        0.0000
     46 H         -41.1592  -59.3720    8.1677 H         1 UNL1        0.0000
     47 H         -39.9778  -59.2477    6.8522 H         1 UNL1        0.0000
     48 H         -42.2451  -54.4002    7.0760 H         1 UNL1        0.0000
     49 H         -40.4950  -52.2053    6.5730 H         1 UNL1        0.0000
     50 H         -39.3791  -52.8004    7.4031 H         1 UNL1        0.0000
     51 H         -42.2291  -51.9647    8.4001 H         1 UNL1        0.0000
     52 H         -41.4106  -52.5207    9.5499 H         1 UNL1        0.0000
     53 H         -41.7913  -63.1483    8.1883 H         1 UNL1        0.0000
     54 H         -43.3906  -63.0119    9.9869 H         1 UNL1        0.0000
     55 H         -46.2647  -64.9734   11.9975 H         1 UNL1        0.0000
@<TRIPOS>BOND
     1    1   18 1
     2    1   21 1
     3    1   17 am
     4    2   19 1
     5    2   20 1
     6    2   22 am
     7    3    4 1
     8    3   12 2
     9    4    5 am
    10    4   55 1
    11    5   29 2
    12    5    6 1
    13    6    7 ar
    14    6   11 ar
    15    7    8 ar
    16    7   33 1
    17    8   34 1
    18    8    9 ar
    19    9   10 ar
    20    9   35 1
    21   10   11 ar
    22   10   36 1
    23   11   12 1
    24   12   13 1
    25   13   37 1
    26   13   38 1
    27   13   14 1
    28   14   15 ar
    29   14   28 ar
    30   15   39 1
    31   15   16 ar
    32   16   26 ar
    33   16   17 1
    34   17   31 2
    35   18   19 1
    36   18   40 1
    37   18   41 1
    38   19   42 1
    39   19   43 1
    40   20   21 1
    41   20   45 1
    42   20   44 1
    43   21   46 1
    44   21   47 1
    45   22   30 2
    46   22   23 1
    47   23   25 1
    48   23   24 1
    49   23   48 1
    50   24   25 1
    51   24   49 1
    52   24   50 1
    53   25   51 1
    54   25   52 1
    55   26   27 ar
    56   26   32 1
    57   27   28 ar
    58   27   53 1
    59   28   54 1
@<TRIPOS>SUBSTRUCTURE
1 UNL1 1
@<TRIPOS>COMMENT
olaparib
PLANTSproteinTorsions
102
4661 1.2749
5386 69.4302
6210 209.6020
5890 241.4960
4461 14.4164
1390 10.4110
2824 124.5437
4339 138.4384
2732 328.2252
4792 214.8702
3407 18.8512
5134 127.5646
6916 110.8045
7370 113.3221
6038 215.7199
7225 120.6758
3592 180.6826
2064 60.6639
2488 207.5355
1253 213.8741
2069 100.8680
2569 256.9112
3058 289.2992
1748 156.3660
1162 223.7647
1509 126.1170
560 156.1570
1627 154.4995
1941 212.3579
3631 25.9778
2381 248.5056
4221 44.5994
4687 166.2386
6983 123.3516
6668 225.8666
7305 177.7466
8693 321.9547
8404 73.2468
9055 317.4593
7052 142.5647
4708 12.0557
2652 145.6379
4332 137.8803
3011 170.1535
2257 212.7593
2778 338.1246
2057 203.5728
192 254.7396
315 156.5712
1085 316.3769
1007 22.4764
1407 142.6562
4816 245.0955
3131 258.8197
4654 72.8100
5144 84.5919
117 203.5737
6 73.2898
259 89.8151
1979 327.0591
2609 256.3087
2623 233.9491
5910 235.1983
5937 203.5964
2062 281.0651
890 330.3777
5008 106.7511
8602 319.3808
8478 245.3569
8300 77.0075
7721 132.9601
8466 199.6168
7852 270.8422
5849 58.7775
6302 190.4765
7439 155.7010
6284 140.7372
6003 67.0996
7165 226.0098
7623 106.1063
8158 160.2066
8667 199.7110
9078 148.6056
8684 122.4043
7666 211.8029
4231 49.8657
1659 235.1890
489 66.1787
238 242.5662
46 10.1670
83 241.6721
254 58.2442
1066 220.1280
2112 8.0464
4047 302.6491
5402 185.2469
2544 255.3016
4670 251.7314
4426 303.2674
5656 229.5378
7040 190.6144
6282 232.1695
PLANTSmolcadARTstart hb
PLANTSmolcadARTstart HB
LINES
-43.9394 -58.8723 5.70506 -45.682 -58.836 6.933 0 255 0 5
PLANTSmolcadARTstart HBCH
LINES
PLANTSmolcadARTstart HB-CHO
LINES
-43.9394 -58.8723 5.70506 -43.2 -58.952 4.492 0 255 255 5
PLANTSmolcadARTend
PLANTSmolcadARTstart HB_WATER
LINES
PLANTSmolcadARTend

PLANTSmolcadARTend

