@<TRIPOS>MOLECULE
olaparib_entry_00001_conf_25
55 59 1
SMALL
NO_CHARGES


@<TRIPOS>ATOM
      1 N         -20.3541  -31.8579    4.8755 N.am      1 UNL1        0.0000
      2 N         -18.1382  -30.8323    5.7624 N.am      1 UNL1        0.0000
      3 N         -18.5584  -35.9410   -0.3394 N.2       1 UNL1        0.0000
      4 N         -18.2304  -35.8147   -1.6023 N.am      1 UNL1        0.0000
      5 C         -17.0325  -35.3724   -2.0100 C.2       1 UNL1        0.0000
      6 C         -16.0926  -35.0308   -1.0595 C.ar      1 UNL1        0.0000
      7 C         -14.8373  -34.5461   -1.4289 C.ar      1 UNL1        0.0000
      8 C         -13.9218  -34.1909   -0.4619 C.ar      1 UNL1        0.0000
      9 C         -14.3117  -34.3379    0.8525 C.ar      1 UNL1        0.0000
     10 C         -15.5539  -34.8171    1.2334 C.ar      1 UNL1        0.0000
     11 C         -16.4516  -35.1683    0.2687 C.ar      1 UNL1        0.0000
     12 C         -17.6814  -35.6236    0.6623 C.2       1 UNL1        0.0000
     13 C         -18.1462  -35.8720    2.0207 C.3       1 UNL1        0.0000
     14 C         -19.5126  -35.3136    2.2170 C.ar      1 UNL1        0.0000
     15 C         -19.6730  -34.4872    3.3435 C.ar      1 UNL1        0.0000
     16 C         -20.9008  -33.9327    3.6151 C.ar      1 UNL1        0.0000
     17 C         -21.1022  -33.0616    4.7949 C.2       1 UNL1        0.0000
     18 C         -20.5246  -30.9897    5.9955 C.3       1 UNL1        0.0000
     19 C         -19.2974  -30.1489    6.2746 C.3       1 UNL1        0.0000
     20 C         -18.0879  -31.0635    4.3147 C.3       1 UNL1        0.0000
     21 C         -19.4260  -31.5361    3.8074 C.3       1 UNL1        0.0000
     22 C         -17.0967  -31.2661    6.5878 C.2       1 UNL1        0.0000
     23 C         -17.0081  -31.1234    8.0435 C.3       1 UNL1        0.0000
     24 C         -15.7511  -30.4723    8.5745 C.3       1 UNL1        0.0000
     25 C         -16.0070  -31.8917    8.8291 C.3       1 UNL1        0.0000
     26 C         -22.0119  -34.1405    2.8327 C.ar      1 UNL1        0.0000
     27 C         -21.8538  -34.9497    1.7304 C.ar      1 UNL1        0.0000
     28 C         -20.6026  -35.5178    1.4508 C.ar      1 UNL1        0.0000
     29 O         -16.6991  -35.2458   -3.2161 O.2       1 UNL1        0.0000
     30 O         -16.1028  -31.8553    6.0309 O.2       1 UNL1        0.0000
     31 O         -21.9042  -33.3534    5.7116 O.2       1 UNL1        0.0000
     32 F         -23.2105  -33.5674    3.1454 F         1 UNL1        0.0000
     33 H         -14.5936  -34.4541   -2.4275 H         1 UNL1        0.0000
     34 H         -12.9880  -33.8308   -0.7102 H         1 UNL1        0.0000
     35 H         -13.6418  -34.0765    1.5921 H         1 UNL1        0.0000
     36 H         -15.7974  -34.9078    2.2323 H         1 UNL1        0.0000
     37 H         -17.4740  -35.4097    2.7131 H         1 UNL1        0.0000
     38 H         -18.1797  -36.9288    2.1864 H         1 UNL1        0.0000
     39 H         -18.8711  -34.2979    3.9646 H         1 UNL1        0.0000
     40 H         -20.7370  -31.5838    6.8600 H         1 UNL1        0.0000
     41 H         -21.3294  -30.3218    5.7671 H         1 UNL1        0.0000
     42 H         -19.1931  -30.0044    7.3293 H         1 UNL1        0.0000
     43 H         -19.3959  -29.1949    5.7995 H         1 UNL1        0.0000
     44 H         -17.3489  -31.8071    4.1017 H         1 UNL1        0.0000
     45 H         -17.8389  -30.1448    3.8257 H         1 UNL1        0.0000
     46 H         -19.2757  -32.4124    3.2119 H         1 UNL1        0.0000
     47 H         -19.8546  -30.7373    3.2404 H         1 UNL1        0.0000
     48 H         -18.0660  -30.9886    8.1280 H         1 UNL1        0.0000
     49 H         -15.8119  -29.7652    9.3755 H         1 UNL1        0.0000
     50 H         -14.9480  -29.9125    8.1425 H         1 UNL1        0.0000
     51 H         -16.2463  -32.2183    9.8196 H         1 UNL1        0.0000
     52 H         -15.4552  -32.7917    8.6592 H         1 UNL1        0.0000
     53 H         -22.6569  -35.1378    1.1093 H         1 UNL1        0.0000
     54 H         -20.5114  -36.1211    0.6181 H         1 UNL1        0.0000
     55 H         -18.8972  -36.0573   -2.2853 H         1 UNL1        0.0000
@<TRIPOS>BOND
     1    1   18 1
     2    1   21 1
     3    1   17 am
     4    2   19 1
     5    2   20 1
     6    2   22 am
     7    3    4 1
     8    3   12 2
     9    4    5 am
    10    4   55 1
    11    5   29 2
    12    5    6 1
    13    6    7 ar
    14    6   11 ar
    15    7    8 ar
    16    7   33 1
    17    8   34 1
    18    8    9 ar
    19    9   10 ar
    20    9   35 1
    21   10   11 ar
    22   10   36 1
    23   11   12 1
    24   12   13 1
    25   13   37 1
    26   13   38 1
    27   13   14 1
    28   14   15 ar
    29   14   28 ar
    30   15   39 1
    31   15   16 ar
    32   16   26 ar
    33   16   17 1
    34   17   31 2
    35   18   19 1
    36   18   40 1
    37   18   41 1
    38   19   42 1
    39   19   43 1
    40   20   21 1
    41   20   45 1
    42   20   44 1
    43   21   46 1
    44   21   47 1
    45   22   30 2
    46   22   23 1
    47   23   25 1
    48   23   24 1
    49   23   48 1
    50   24   25 1
    51   24   49 1
    52   24   50 1
    53   25   51 1
    54   25   52 1
    55   26   27 ar
    56   26   32 1
    57   27   28 ar
    58   27   53 1
    59   28   54 1
@<TRIPOS>SUBSTRUCTURE
1 UNL1 1
@<TRIPOS>COMMENT
olaparib
PLANTSproteinTorsions
102
4661 151.4744
5386 144.9836
6210 47.7488
5890 120.8948
4461 93.8127
1390 22.4320
2824 64.7959
4339 198.0158
2732 157.0161
4792 108.3208
3407 255.0787
5134 144.7830
6916 159.7772
7370 179.1547
6038 82.6926
7225 66.5089
3592 256.9663
2064 302.9969
2488 27.5780
1253 175.6514
2069 221.7565
2569 134.3916
3058 167.3112
1748 348.9200
1162 88.4631
1509 167.8582
560 278.3396
1627 138.1369
1941 187.7352
3631 166.2150
2381 42.8692
4221 143.1945
4687 89.6573
6983 58.1823
6668 83.5132
7305 261.7097
8693 248.2963
8404 221.8652
9055 328.2469
7052 195.9843
4708 117.2451
2652 68.7564
4332 77.9513
3011 204.2714
2257 176.3784
2778 16.1411
2057 270.8912
192 153.5516
315 150.2068
1085 36.5609
1007 218.6734
1407 4.9958
4816 295.3228
3131 16.5873
4654 225.3927
5144 357.3140
117 54.1589
6 42.9685
259 70.5773
1979 205.6204
2609 126.0744
2623 252.9871
5910 147.4529
5937 126.9153
2062 99.6924
890 179.8486
5008 189.7788
8602 57.2335
8478 156.5795
8300 223.1407
7721 132.4894
8466 38.7505
7852 193.6889
5849 28.3474
6302 172.4220
7439 282.8974
6284 143.5459
6003 212.9512
7165 199.6703
7623 81.9695
8158 143.1497
8667 71.0245
9078 50.7588
8684 185.7669
7666 187.6733
4231 194.9180
1659 281.7191
489 271.1903
238 119.7140
46 233.0799
83 249.9108
254 214.4670
1066 291.3454
2112 208.3997
4047 128.9813
5402 77.8550
2544 207.9616
4670 41.4267
4426 276.0986
5656 298.5641
7040 198.4759
6282 36.3937
PLANTSmolcadARTstart hb
PLANTSmolcadARTstart HB
LINES
PLANTSmolcadARTstart HBCH
LINES
PLANTSmolcadARTstart HB-CHO
LINES
PLANTSmolcadARTend
PLANTSmolcadARTstart HB_WATER
LINES
PLANTSmolcadARTend

PLANTSmolcadARTend

