@<TRIPOS>MOLECULE
olaparib_entry_00001_conf_49
55 59 1
SMALL
NO_CHARGES


@<TRIPOS>ATOM
      1 N          -7.9015  -52.1095   12.6264 N.am      1 UNL1        0.0000
      2 N          -8.3852  -54.3296   11.3671 N.am      1 UNL1        0.0000
      3 N          -7.9936  -48.0845    9.6944 N.2       1 UNL1        0.0000
      4 N          -7.6156  -48.5763    8.5395 N.am      1 UNL1        0.0000
      5 C          -8.4638  -48.8165    7.5297 C.2       1 UNL1        0.0000
      6 C          -9.8029  -48.5353    7.7068 C.ar      1 UNL1        0.0000
      7 C         -10.7315  -48.7848    6.6956 C.ar      1 UNL1        0.0000
      8 C         -12.0674  -48.5160    6.9025 C.ar      1 UNL1        0.0000
      9 C         -12.4186  -48.0026    8.1331 C.ar      1 UNL1        0.0000
     10 C         -11.5079  -47.7504    9.1455 C.ar      1 UNL1        0.0000
     11 C         -10.1881  -48.0175    8.9296 C.ar      1 UNL1        0.0000
     12 C          -9.3036  -47.7789    9.9471 C.2       1 UNL1        0.0000
     13 C          -9.5802  -47.1777   11.2452 C.3       1 UNL1        0.0000
     14 C          -9.9960  -48.2179   12.2261 C.ar      1 UNL1        0.0000
     15 C          -9.0378  -49.2104   12.4992 C.ar      1 UNL1        0.0000
     16 C          -9.3324  -50.2198   13.3840 C.ar      1 UNL1        0.0000
     17 C          -8.3462  -51.2807   13.6896 C.2       1 UNL1        0.0000
     18 C          -6.9475  -53.1401   12.8811 C.3       1 UNL1        0.0000
     19 C          -7.0463  -54.2839   11.8947 C.3       1 UNL1        0.0000
     20 C          -8.8394  -53.1625   10.6033 C.3       1 UNL1        0.0000
     21 C          -8.4320  -51.8866   11.2943 C.3       1 UNL1        0.0000
     22 C          -9.2320  -55.4246   11.5621 C.2       1 UNL1        0.0000
     23 C          -8.9313  -56.6493   12.3084 C.3       1 UNL1        0.0000
     24 C          -7.9908  -57.6249   11.6378 C.3       1 UNL1        0.0000
     25 C          -9.4005  -57.9749   11.8264 C.3       1 UNL1        0.0000
     26 C         -10.5378  -50.3225   14.0371 C.ar      1 UNL1        0.0000
     27 C         -11.4750  -49.3505   13.7690 C.ar      1 UNL1        0.0000
     28 C         -11.1781  -48.3197   12.8660 C.ar      1 UNL1        0.0000
     29 O          -8.1201  -49.2864    6.4148 O.2       1 UNL1        0.0000
     30 O         -10.4027  -55.3711   11.0406 O.2       1 UNL1        0.0000
     31 O          -7.8992  -51.4645   14.8451 O.2       1 UNL1        0.0000
     32 F         -10.7825  -51.3453   14.9069 F         1 UNL1        0.0000
     33 H         -10.4179  -49.1706    5.7913 H         1 UNL1        0.0000
     34 H         -12.7721  -48.6915    6.1705 H         1 UNL1        0.0000
     35 H         -13.4137  -47.7955    8.3091 H         1 UNL1        0.0000
     36 H         -11.8226  -47.3656   10.0502 H         1 UNL1        0.0000
     37 H         -10.3657  -46.4587   11.1402 H         1 UNL1        0.0000
     38 H          -8.6898  -46.7040   11.6031 H         1 UNL1        0.0000
     39 H          -8.1162  -49.1809   12.0363 H         1 UNL1        0.0000
     40 H          -7.1116  -53.5226   13.8671 H         1 UNL1        0.0000
     41 H          -5.9724  -52.7098   12.7809 H         1 UNL1        0.0000
     42 H          -6.8229  -55.2055   12.3896 H         1 UNL1        0.0000
     43 H          -6.3469  -54.1370   11.0980 H         1 UNL1        0.0000
     44 H          -9.9054  -53.1903   10.5172 H         1 UNL1        0.0000
     45 H          -8.3898  -53.1873    9.6326 H         1 UNL1        0.0000
     46 H          -9.2894  -51.2510   11.3716 H         1 UNL1        0.0000
     47 H          -7.6555  -51.4396   10.7109 H         1 UNL1        0.0000
     48 H          -9.0050  -56.1366   13.2444 H         1 UNL1        0.0000
     49 H          -7.2350  -58.1199   12.2113 H         1 UNL1        0.0000
     50 H          -7.3260  -57.5817   10.8004 H         1 UNL1        0.0000
     51 H          -9.6691  -58.7323   12.5329 H         1 UNL1        0.0000
     52 H         -10.1829  -58.2981   11.1732 H         1 UNL1        0.0000
     53 H         -12.3967  -49.3809   14.2334 H         1 UNL1        0.0000
     54 H         -11.8988  -47.6037   12.6825 H         1 UNL1        0.0000
     55 H          -6.6609  -48.7787    8.4072 H         1 UNL1        0.0000
@<TRIPOS>BOND
     1    1   18 1
     2    1   21 1
     3    1   17 am
     4    2   19 1
     5    2   20 1
     6    2   22 am
     7    3    4 1
     8    3   12 2
     9    4    5 am
    10    4   55 1
    11    5   29 2
    12    5    6 1
    13    6    7 ar
    14    6   11 ar
    15    7    8 ar
    16    7   33 1
    17    8   34 1
    18    8    9 ar
    19    9   10 ar
    20    9   35 1
    21   10   11 ar
    22   10   36 1
    23   11   12 1
    24   12   13 1
    25   13   37 1
    26   13   38 1
    27   13   14 1
    28   14   15 ar
    29   14   28 ar
    30   15   39 1
    31   15   16 ar
    32   16   26 ar
    33   16   17 1
    34   17   31 2
    35   18   19 1
    36   18   40 1
    37   18   41 1
    38   19   42 1
    39   19   43 1
    40   20   21 1
    41   20   45 1
    42   20   44 1
    43   21   46 1
    44   21   47 1
    45   22   30 2
    46   22   23 1
    47   23   25 1
    48   23   24 1
    49   23   48 1
    50   24   25 1
    51   24   49 1
    52   24   50 1
    53   25   51 1
    54   25   52 1
    55   26   27 ar
    56   26   32 1
    57   27   28 ar
    58   27   53 1
    59   28   54 1
@<TRIPOS>SUBSTRUCTURE
1 UNL1 1
@<TRIPOS>COMMENT
olaparib
PLANTSproteinTorsions
102
4661 60.3547
5386 82.6602
6210 65.3187
5890 5.8199
4461 357.4861
1390 25.3111
2824 74.4813
4339 165.4532
2732 243.7790
4792 326.8837
3407 255.6789
5134 327.5125
6916 12.7276
7370 180.0210
6038 95.7981
7225 203.4529
3592 0.9070
2064 152.6574
2488 315.3994
1253 237.9785
2069 141.1134
2569 333.3729
3058 156.8695
1748 260.1204
1162 228.8248
1509 286.2599
560 16.0494
1627 162.0716
1941 348.3421
3631 148.3947
2381 19.0043
4221 265.5657
4687 8.8591
6983 113.3022
6668 18.7875
7305 79.3612
8693 74.6580
8404 106.2960
9055 89.4207
7052 26.2569
4708 139.7842
2652 17.3990
4332 311.6720
3011 191.7745
2257 298.5892
2778 316.5119
2057 240.1022
192 53.7246
315 263.0880
1085 104.1242
1007 123.3848
1407 33.3715
4816 86.3043
3131 147.6966
4654 225.1653
5144 119.2626
117 331.8759
6 332.2915
259 184.6068
1979 194.4560
2609 143.0695
2623 81.4849
5910 193.7157
5937 25.1656
2062 112.3927
890 186.6781
5008 215.1203
8602 268.0125
8478 154.1460
8300 65.4028
7721 186.5392
8466 69.9673
7852 100.3273
5849 127.3371
6302 76.0273
7439 196.8415
6284 60.2599
6003 242.6631
7165 252.7574
7623 284.3076
8158 15.2494
8667 56.9199
9078 304.9752
8684 258.1753
7666 214.2808
4231 235.5448
1659 170.8981
489 245.4363
238 187.1616
46 243.5533
83 231.6955
254 227.4066
1066 281.7698
2112 208.7308
4047 98.8626
5402 231.1368
2544 116.4595
4670 135.6680
4426 324.9034
5656 136.2040
7040 200.3563
6282 170.6559
PLANTSmolcadARTstart hb
PLANTSmolcadARTstart HB
LINES
PLANTSmolcadARTstart HBCH
LINES
PLANTSmolcadARTstart HB-CHO
LINES
PLANTSmolcadARTend
PLANTSmolcadARTstart HB_WATER
LINES
PLANTSmolcadARTend

PLANTSmolcadARTend

