@<TRIPOS>MOLECULE
olaparib_entry_00001_conf_53
55 59 1
SMALL
NO_CHARGES


@<TRIPOS>ATOM
      1 N         -21.0893  -73.2385   21.8689 N.am      1 UNL1        0.0000
      2 N         -23.0699  -71.5587   21.8074 N.am      1 UNL1        0.0000
      3 N         -15.5243  -72.8790   25.3460 N.2       1 UNL1        0.0000
      4 N         -15.3983  -73.7301   26.3351 N.am      1 UNL1        0.0000
      5 C         -15.8801  -73.5040   27.5654 C.2       1 UNL1        0.0000
      6 C         -16.5423  -72.3187   27.8112 C.ar      1 UNL1        0.0000
      7 C         -17.0459  -72.0241   29.0787 C.ar      1 UNL1        0.0000
      8 C         -17.6852  -70.8245   29.3065 C.ar      1 UNL1        0.0000
      9 C         -17.7916  -69.9598   28.2378 C.ar      1 UNL1        0.0000
     10 C         -17.2963  -70.2390   26.9750 C.ar      1 UNL1        0.0000
     11 C         -16.6677  -71.4299   26.7595 C.ar      1 UNL1        0.0000
     12 C         -16.1685  -71.6826   25.5099 C.2       1 UNL1        0.0000
     13 C         -16.2974  -70.8577   24.3158 C.3       1 UNL1        0.0000
     14 C         -16.8443  -71.6563   23.1842 C.ar      1 UNL1        0.0000
     15 C         -18.0934  -72.2591   23.4164 C.ar      1 UNL1        0.0000
     16 C         -18.6756  -73.0251   22.4350 C.ar      1 UNL1        0.0000
     17 C         -19.9878  -73.6755   22.6504 C.2       1 UNL1        0.0000
     18 C         -22.3694  -73.8449   22.0446 C.3       1 UNL1        0.0000
     19 C         -23.5090  -72.9228   21.6676 C.3       1 UNL1        0.0000
     20 C         -21.9634  -71.1246   20.9477 C.3       1 UNL1        0.0000
     21 C         -20.8853  -72.1766   20.9012 C.3       1 UNL1        0.0000
     22 C         -23.6553  -70.6708   22.7147 C.2       1 UNL1        0.0000
     23 C         -24.7510  -70.9562   23.6448 C.3       1 UNL1        0.0000
     24 C         -25.9047  -69.9789   23.6362 C.3       1 UNL1        0.0000
     25 C         -25.0241  -70.0657   24.8033 C.3       1 UNL1        0.0000
     26 C         -18.0977  -73.2442   21.2070 C.ar      1 UNL1        0.0000
     27 C         -16.8750  -72.6537   20.9808 C.ar      1 UNL1        0.0000
     28 C         -16.2777  -71.8723   21.9803 C.ar      1 UNL1        0.0000
     29 O         -15.7704  -74.3082   28.5261 O.2       1 UNL1        0.0000
     30 O         -23.1981  -69.4730   22.7535 O.2       1 UNL1        0.0000
     31 O         -20.1507  -74.5888   23.4919 O.2       1 UNL1        0.0000
     32 F         -18.7163  -74.0142   20.2650 F         1 UNL1        0.0000
     33 H         -16.9402  -72.7053   29.8466 H         1 UNL1        0.0000
     34 H         -18.0660  -70.5845   30.2343 H         1 UNL1        0.0000
     35 H         -18.2655  -69.0558   28.3872 H         1 UNL1        0.0000
     36 H         -17.4014  -69.5566   26.2077 H         1 UNL1        0.0000
     37 H         -15.3347  -70.4769   24.0451 H         1 UNL1        0.0000
     38 H         -16.9695  -70.0514   24.5239 H         1 UNL1        0.0000
     39 H         -18.5714  -72.1270   24.3212 H         1 UNL1        0.0000
     40 H         -22.4786  -74.1225   23.0724 H         1 UNL1        0.0000
     41 H         -22.4150  -74.6967   21.3978 H         1 UNL1        0.0000
     42 H         -24.3433  -73.1002   22.3131 H         1 UNL1        0.0000
     43 H         -23.8050  -73.1072   20.6558 H         1 UNL1        0.0000
     44 H         -21.5514  -70.2163   21.3347 H         1 UNL1        0.0000
     45 H         -22.3354  -70.9684   19.9566 H         1 UNL1        0.0000
     46 H         -19.9435  -71.7099   21.1018 H         1 UNL1        0.0000
     47 H         -20.9115  -72.6201   19.9286 H         1 UNL1        0.0000
     48 H         -24.6063  -72.0113   23.5437 H         1 UNL1        0.0000
     49 H         -26.9109  -70.3382   23.6968 H         1 UNL1        0.0000
     50 H         -26.2256  -69.1923   22.9857 H         1 UNL1        0.0000
     51 H         -25.3941  -70.4815   25.7172 H         1 UNL1        0.0000
     52 H         -24.4430  -69.3570   25.3540 H         1 UNL1        0.0000
     53 H         -16.3980  -72.7863   20.0747 H         1 UNL1        0.0000
     54 H         -15.3604  -71.4411   21.7850 H         1 UNL1        0.0000
     55 H         -14.9269  -74.5780   26.1655 H         1 UNL1        0.0000
@<TRIPOS>BOND
     1    1   18 1
     2    1   21 1
     3    1   17 am
     4    2   19 1
     5    2   20 1
     6    2   22 am
     7    3    4 1
     8    3   12 2
     9    4    5 am
    10    4   55 1
    11    5   29 2
    12    5    6 1
    13    6    7 ar
    14    6   11 ar
    15    7    8 ar
    16    7   33 1
    17    8   34 1
    18    8    9 ar
    19    9   10 ar
    20    9   35 1
    21   10   11 ar
    22   10   36 1
    23   11   12 1
    24   12   13 1
    25   13   37 1
    26   13   38 1
    27   13   14 1
    28   14   15 ar
    29   14   28 ar
    30   15   39 1
    31   15   16 ar
    32   16   26 ar
    33   16   17 1
    34   17   31 2
    35   18   19 1
    36   18   40 1
    37   18   41 1
    38   19   42 1
    39   19   43 1
    40   20   21 1
    41   20   45 1
    42   20   44 1
    43   21   46 1
    44   21   47 1
    45   22   30 2
    46   22   23 1
    47   23   25 1
    48   23   24 1
    49   23   48 1
    50   24   25 1
    51   24   49 1
    52   24   50 1
    53   25   51 1
    54   25   52 1
    55   26   27 ar
    56   26   32 1
    57   27   28 ar
    58   27   53 1
    59   28   54 1
@<TRIPOS>SUBSTRUCTURE
1 UNL1 1
@<TRIPOS>COMMENT
olaparib
PLANTSproteinTorsions
102
4661 32.4050
5386 175.2955
6210 179.7492
5890 347.2334
4461 2.4357
1390 241.2846
2824 97.3652
4339 42.1161
2732 16.6096
4792 200.7532
3407 21.7909
5134 14.7103
6916 89.0042
7370 249.9961
6038 152.2636
7225 130.4403
3592 43.3739
2064 102.5523
2488 112.9313
1253 297.3287
2069 156.1172
2569 239.6439
3058 195.0130
1748 174.9167
1162 69.5584
1509 7.7264
560 248.1365
1627 250.4458
1941 302.2216
3631 203.2350
2381 163.7276
4221 234.9448
4687 214.4199
6983 85.4126
6668 141.0566
7305 15.8572
8693 80.7289
8404 220.7070
9055 62.5000
7052 234.4980
4708 257.3960
2652 205.2870
4332 219.6041
3011 248.8944
2257 164.7669
2778 23.3929
2057 181.3711
192 126.6415
315 147.2627
1085 3.0915
1007 231.2818
1407 312.5128
4816 357.5701
3131 281.2316
4654 98.1698
5144 226.5961
117 201.4140
6 44.6912
259 12.9749
1979 138.1482
2609 23.4257
2623 38.8540
5910 41.1447
5937 42.8393
2062 291.3146
890 80.2141
5008 138.3083
8602 144.6970
8478 185.3366
8300 280.1964
7721 152.2148
8466 78.4058
7852 240.7875
5849 52.9105
6302 153.5134
7439 261.1694
6284 267.3940
6003 30.9279
7165 214.4921
7623 116.0635
8158 153.9870
8667 194.8334
9078 227.1288
8684 266.4316
7666 232.6185
4231 37.4394
1659 206.2403
489 174.3279
238 264.5717
46 136.7468
83 132.1027
254 107.5078
1066 209.4064
2112 248.8203
4047 314.8409
5402 268.7287
2544 123.6193
4670 151.1081
4426 267.6626
5656 177.0939
7040 212.2850
6282 282.3223
PLANTSmolcadARTstart hb
PLANTSmolcadARTstart HB
LINES
PLANTSmolcadARTstart HBCH
LINES
PLANTSmolcadARTstart HB-CHO
LINES
PLANTSmolcadARTend
PLANTSmolcadARTstart HB_WATER
LINES
PLANTSmolcadARTend

PLANTSmolcadARTend

