@<TRIPOS>MOLECULE
olaparib_entry_00001_conf_27
55 59 1
SMALL
NO_CHARGES


@<TRIPOS>ATOM
      1 N           0.7530  -69.8294    5.9344 N.am      1 UNL1        0.0000
      2 N          -0.0343  -67.4604    6.6528 N.am      1 UNL1        0.0000
      3 N          -2.9364  -74.2648   10.0380 N.2       1 UNL1        0.0000
      4 N          -3.2515  -75.3464   10.7084 N.am      1 UNL1        0.0000
      5 C          -4.3434  -76.0797   10.4496 C.2       1 UNL1        0.0000
      6 C          -5.1825  -75.6829    9.4288 C.ar      1 UNL1        0.0000
      7 C          -6.3428  -76.3983    9.1304 C.ar      1 UNL1        0.0000
      8 C          -7.1774  -75.9712    8.1202 C.ar      1 UNL1        0.0000
      9 C          -6.8071  -74.8276    7.4447 C.ar      1 UNL1        0.0000
     10 C          -5.6591  -74.1076    7.7304 C.ar      1 UNL1        0.0000
     11 C          -4.8387  -74.5403    8.7302 C.ar      1 UNL1        0.0000
     12 C          -3.7171  -73.8072    9.0112 C.2       1 UNL1        0.0000
     13 C          -3.2204  -72.6331    8.3055 C.3       1 UNL1        0.0000
     14 C          -1.9474  -72.9463    7.5992 C.ar      1 UNL1        0.0000
     15 C          -1.4149  -71.9038    6.8200 C.ar      1 UNL1        0.0000
     16 C          -0.2476  -72.1001    6.1217 C.ar      1 UNL1        0.0000
     17 C           0.3361  -71.0235    5.2900 C.2       1 UNL1        0.0000
     18 C           1.3250  -68.7709    5.1667 C.3       1 UNL1        0.0000
     19 C           1.1304  -67.4136    5.8076 C.3       1 UNL1        0.0000
     20 C           0.0054  -68.3868    7.7895 C.3       1 UNL1        0.0000
     21 C           0.5865  -69.7129    7.3712 C.3       1 UNL1        0.0000
     22 C          -1.1633  -66.6695    6.4198 C.2       1 UNL1        0.0000
     23 C          -1.3593  -65.7136    5.3267 C.3       1 UNL1        0.0000
     24 C          -2.5257  -64.7628    5.4734 C.3       1 UNL1        0.0000
     25 C          -2.5481  -65.7988    4.4384 C.3       1 UNL1        0.0000
     26 C           0.4513  -73.2838    6.1384 C.ar      1 UNL1        0.0000
     27 C          -0.0709  -74.3036    6.9014 C.ar      1 UNL1        0.0000
     28 C          -1.2623  -74.1070    7.6144 C.ar      1 UNL1        0.0000
     29 O          -4.6616  -77.1202   11.0803 O.2       1 UNL1        0.0000
     30 O          -2.1443  -66.7779    7.2390 O.2       1 UNL1        0.0000
     31 O           0.4708  -71.1360    4.0499 O.2       1 UNL1        0.0000
     32 F           1.6066  -73.4295    5.4265 F         1 UNL1        0.0000
     33 H          -6.5761  -77.2489    9.6662 H         1 UNL1        0.0000
     34 H          -8.0398  -76.4833    7.8810 H         1 UNL1        0.0000
     35 H          -7.4187  -74.4899    6.6857 H         1 UNL1        0.0000
     36 H          -5.4270  -73.2564    7.1948 H         1 UNL1        0.0000
     37 H          -3.0480  -71.8458    9.0094 H         1 UNL1        0.0000
     38 H          -3.9492  -72.3308    7.5826 H         1 UNL1        0.0000
     39 H          -1.8994  -70.9941    6.7723 H         1 UNL1        0.0000
     40 H           0.8660  -68.7625    4.1998 H         1 UNL1        0.0000
     41 H           2.3784  -68.9505    5.1029 H         1 UNL1        0.0000
     42 H           0.9939  -66.6735    5.0474 H         1 UNL1        0.0000
     43 H           1.9919  -67.1609    6.3902 H         1 UNL1        0.0000
     44 H          -0.9883  -68.5385    8.1557 H         1 UNL1        0.0000
     45 H           0.6217  -67.9672    8.5570 H         1 UNL1        0.0000
     46 H          -0.0678  -70.4924    7.7022 H         1 UNL1        0.0000
     47 H           1.5567  -69.7920    7.8136 H         1 UNL1        0.0000
     48 H          -0.3066  -65.6534    5.1462 H         1 UNL1        0.0000
     49 H          -2.4155  -63.7342    5.1991 H         1 UNL1        0.0000
     50 H          -3.1744  -64.4785    6.2754 H         1 UNL1        0.0000
     51 H          -2.4624  -65.5216    3.4084 H         1 UNL1        0.0000
     52 H          -3.2315  -66.5787    4.1779 H         1 UNL1        0.0000
     53 H           0.4153  -75.2133    6.9487 H         1 UNL1        0.0000
     54 H          -1.6324  -74.8882    8.1786 H         1 UNL1        0.0000
     55 H          -2.6561  -75.6347   11.4380 H         1 UNL1        0.0000
@<TRIPOS>BOND
     1    1   18 1
     2    1   21 1
     3    1   17 am
     4    2   19 1
     5    2   20 1
     6    2   22 am
     7    3    4 1
     8    3   12 2
     9    4    5 am
    10    4   55 1
    11    5   29 2
    12    5    6 1
    13    6    7 ar
    14    6   11 ar
    15    7    8 ar
    16    7   33 1
    17    8   34 1
    18    8    9 ar
    19    9   10 ar
    20    9   35 1
    21   10   11 ar
    22   10   36 1
    23   11   12 1
    24   12   13 1
    25   13   37 1
    26   13   38 1
    27   13   14 1
    28   14   15 ar
    29   14   28 ar
    30   15   39 1
    31   15   16 ar
    32   16   26 ar
    33   16   17 1
    34   17   31 2
    35   18   19 1
    36   18   40 1
    37   18   41 1
    38   19   42 1
    39   19   43 1
    40   20   21 1
    41   20   45 1
    42   20   44 1
    43   21   46 1
    44   21   47 1
    45   22   30 2
    46   22   23 1
    47   23   25 1
    48   23   24 1
    49   23   48 1
    50   24   25 1
    51   24   49 1
    52   24   50 1
    53   25   51 1
    54   25   52 1
    55   26   27 ar
    56   26   32 1
    57   27   28 ar
    58   27   53 1
    59   28   54 1
@<TRIPOS>SUBSTRUCTURE
1 UNL1 1
@<TRIPOS>COMMENT
olaparib
PLANTSproteinTorsions
102
4661 203.7973
5386 85.2353
6210 118.3488
5890 6.7262
4461 46.9271
1390 13.2781
2824 63.6225
4339 256.7670
2732 343.4781
4792 238.2359
3407 31.2557
5134 2.1869
6916 81.6151
7370 228.8289
6038 157.9400
7225 115.1313
3592 303.1103
2064 52.8171
2488 224.2040
1253 54.9050
2069 28.8445
2569 51.5003
3058 259.9995
1748 175.7344
1162 43.9623
1509 103.4912
560 184.9220
1627 63.2613
1941 46.6728
3631 166.1035
2381 226.7349
4221 347.9344
4687 331.2809
6983 83.6099
6668 112.7471
7305 292.9727
8693 166.2503
8404 15.4488
9055 239.3021
7052 300.0338
4708 49.3135
2652 254.5022
4332 322.3053
3011 189.4466
2257 307.2155
2778 143.6045
2057 205.0802
192 260.3682
315 144.1314
1085 332.4928
1007 310.8211
1407 123.8723
4816 45.6647
3131 216.1736
4654 114.9877
5144 91.0598
117 228.9426
6 59.4198
259 132.7690
1979 152.1867
2609 41.0696
2623 172.0603
5910 74.6824
5937 280.8009
2062 277.6281
890 4.0173
5008 191.3590
8602 120.4703
8478 116.3778
8300 221.8668
7721 136.7526
8466 242.5740
7852 236.0016
5849 241.9630
6302 195.2564
7439 183.7912
6284 78.8547
6003 72.7170
7165 243.9917
7623 103.4136
8158 200.9236
8667 72.1052
9078 90.8708
8684 113.2735
7666 242.9015
4231 62.9768
1659 222.2854
489 84.8029
238 265.6893
46 306.1892
83 254.9232
254 55.0098
1066 266.9828
2112 90.5128
4047 265.1500
5402 207.8630
2544 146.6520
4670 207.6135
4426 260.6539
5656 304.3144
7040 201.9997
6282 153.6743
PLANTSmolcadARTstart hb
PLANTSmolcadARTstart HB
LINES
-2.14434 -66.7779 7.23899 -3.64856 -66.8489 8.96096 0 255 0 5
PLANTSmolcadARTstart HBCH
LINES
PLANTSmolcadARTstart HB-CHO
LINES
PLANTSmolcadARTend
PLANTSmolcadARTstart HB_WATER
LINES
PLANTSmolcadARTend

PLANTSmolcadARTend

