@<TRIPOS>MOLECULE
olaparib_entry_00001_conf_66
55 59 1
SMALL
NO_CHARGES


@<TRIPOS>ATOM
      1 N         -25.0636  -32.4438    2.6058 N.am      1 UNL1        0.0000
      2 N         -23.6217  -30.3346    3.0755 N.am      1 UNL1        0.0000
      3 N         -20.9015  -36.2622    2.9519 N.2       1 UNL1        0.0000
      4 N         -20.3394  -36.9050    3.9466 N.am      1 UNL1        0.0000
      5 C         -19.2726  -37.7028    3.7970 C.2       1 UNL1        0.0000
      6 C         -18.7337  -37.8608    2.5367 C.ar      1 UNL1        0.0000
      7 C         -17.6360  -38.6949    2.3218 C.ar      1 UNL1        0.0000
      8 C         -17.1276  -38.8543    1.0507 C.ar      1 UNL1        0.0000
      9 C         -17.7527  -38.1610    0.0358 C.ar      1 UNL1        0.0000
     10 C         -18.8428  -37.3303    0.2346 C.ar      1 UNL1        0.0000
     11 C         -19.3364  -37.1776    1.4966 C.ar      1 UNL1        0.0000
     12 C         -20.4253  -36.3665    1.6730 C.2       1 UNL1        0.0000
     13 C         -21.0990  -35.5497    0.6720 C.3       1 UNL1        0.0000
     14 C         -22.5771  -35.6565    0.8174 C.ar      1 UNL1        0.0000
     15 C         -23.1644  -34.7481    1.7160 C.ar      1 UNL1        0.0000
     16 C         -24.5223  -34.7756    1.9259 C.ar      1 UNL1        0.0000
     17 C         -25.1696  -33.8348    2.8680 C.2       1 UNL1        0.0000
     18 C         -25.6786  -31.5061    3.4887 C.3       1 UNL1        0.0000
     19 C         -24.9929  -30.1567    3.4771 C.3       1 UNL1        0.0000
     20 C         -23.3865  -30.8634    1.7276 C.3       1 UNL1        0.0000
     21 C         -24.3262  -32.0049    1.4355 C.3       1 UNL1        0.0000
     22 C         -22.5474  -30.0256    3.9150 C.2       1 UNL1        0.0000
     23 C         -22.6193  -29.5067    5.2835 C.3       1 UNL1        0.0000
     24 C         -22.7399  -28.0060    5.4221 C.3       1 UNL1        0.0000
     25 C         -21.5165  -28.6874    5.8511 C.3       1 UNL1        0.0000
     26 C         -25.3653  -35.6592    1.2946 C.ar      1 UNL1        0.0000
     27 C         -24.7893  -36.5479    0.4152 C.ar      1 UNL1        0.0000
     28 C         -23.4040  -36.5232    0.1995 C.ar      1 UNL1        0.0000
     29 O         -18.7190  -38.3263    4.7386 O.2       1 UNL1        0.0000
     30 O         -21.3634  -30.2097    3.4574 O.2       1 UNL1        0.0000
     31 O         -25.8001  -34.2274    3.8765 O.2       1 UNL1        0.0000
     32 F         -26.7083  -35.6471    1.5377 F         1 UNL1        0.0000
     33 H         -17.2035  -39.1928    3.1155 H         1 UNL1        0.0000
     34 H         -16.3171  -39.4647    0.8670 H         1 UNL1        0.0000
     35 H         -17.3887  -38.2673   -0.9236 H         1 UNL1        0.0000
     36 H         -19.2755  -36.8336   -0.5600 H         1 UNL1        0.0000
     37 H         -20.8161  -35.8844   -0.3042 H         1 UNL1        0.0000
     38 H         -20.8129  -34.5278    0.8106 H         1 UNL1        0.0000
     39 H         -22.5774  -34.0630    2.2167 H         1 UNL1        0.0000
     40 H         -25.6446  -31.8994    4.4835 H         1 UNL1        0.0000
     41 H         -26.6853  -31.3603    3.1551 H         1 UNL1        0.0000
     42 H         -25.0283  -29.7273    4.4561 H         1 UNL1        0.0000
     43 H         -25.4904  -29.5032    2.7909 H         1 UNL1        0.0000
     44 H         -22.3776  -31.2121    1.6565 H         1 UNL1        0.0000
     45 H         -23.5589  -30.0842    1.0148 H         1 UNL1        0.0000
     46 H         -23.7560  -32.8304    1.0634 H         1 UNL1        0.0000
     47 H         -25.0398  -31.6578    0.7189 H         1 UNL1        0.0000
     48 H         -23.1404  -30.3776    5.6217 H         1 UNL1        0.0000
     49 H         -23.4030  -27.5873    6.1504 H         1 UNL1        0.0000
     50 H         -22.9645  -27.1997    4.7555 H         1 UNL1        0.0000
     51 H         -21.2856  -28.7568    6.8936 H         1 UNL1        0.0000
     52 H         -20.4784  -28.5713    5.6227 H         1 UNL1        0.0000
     53 H         -25.3780  -37.2326   -0.0856 H         1 UNL1        0.0000
     54 H         -22.9976  -37.2008   -0.4649 H         1 UNL1        0.0000
     55 H         -20.7196  -36.7958    4.8485 H         1 UNL1        0.0000
@<TRIPOS>BOND
     1    1   18 1
     2    1   21 1
     3    1   17 am
     4    2   19 1
     5    2   20 1
     6    2   22 am
     7    3    4 1
     8    3   12 2
     9    4    5 am
    10    4   55 1
    11    5   29 2
    12    5    6 1
    13    6    7 ar
    14    6   11 ar
    15    7    8 ar
    16    7   33 1
    17    8   34 1
    18    8    9 ar
    19    9   10 ar
    20    9   35 1
    21   10   11 ar
    22   10   36 1
    23   11   12 1
    24   12   13 1
    25   13   37 1
    26   13   38 1
    27   13   14 1
    28   14   15 ar
    29   14   28 ar
    30   15   39 1
    31   15   16 ar
    32   16   26 ar
    33   16   17 1
    34   17   31 2
    35   18   19 1
    36   18   40 1
    37   18   41 1
    38   19   42 1
    39   19   43 1
    40   20   21 1
    41   20   45 1
    42   20   44 1
    43   21   46 1
    44   21   47 1
    45   22   30 2
    46   22   23 1
    47   23   25 1
    48   23   24 1
    49   23   48 1
    50   24   25 1
    51   24   49 1
    52   24   50 1
    53   25   51 1
    54   25   52 1
    55   26   27 ar
    56   26   32 1
    57   27   28 ar
    58   27   53 1
    59   28   54 1
@<TRIPOS>SUBSTRUCTURE
1 UNL1 1
@<TRIPOS>COMMENT
olaparib
PLANTSproteinTorsions
102
4661 117.1611
5386 146.5981
6210 164.3473
5890 6.2067
4461 111.5434
1390 342.8543
2824 18.6339
4339 121.4726
2732 163.4778
4792 36.7293
3407 53.9812
5134 21.4924
6916 37.1831
7370 172.4699
6038 75.0062
7225 32.1236
3592 97.6696
2064 193.8275
2488 22.2703
1253 193.4713
2069 167.3347
2569 141.7364
3058 160.2389
1748 96.5376
1162 77.2233
1509 125.9151
560 208.2273
1627 120.5513
1941 63.9359
3631 51.5349
2381 109.5566
4221 49.0174
4687 40.3934
6983 61.3724
6668 106.8376
7305 4.3081
8693 20.1371
8404 129.2647
9055 305.8162
7052 209.6315
4708 61.2336
2652 76.3319
4332 138.4122
3011 186.6787
2257 126.1476
2778 17.0944
2057 29.2997
192 104.5397
315 118.9769
1085 258.8695
1007 267.5823
1407 214.9628
4816 194.7188
3131 18.9134
4654 223.8336
5144 348.1941
117 47.6642
6 95.5431
259 302.0723
1979 215.8524
2609 82.6219
2623 91.2419
5910 15.5831
5937 121.3144
2062 101.5885
890 240.2237
5008 233.1608
8602 24.7663
8478 150.0086
8300 84.3041
7721 188.1996
8466 96.7006
7852 203.0353
5849 27.2002
6302 192.5278
7439 306.4285
6284 114.9023
6003 15.2686
7165 277.3961
7623 60.6559
8158 107.0400
8667 242.6081
9078 53.7806
8684 144.1286
7666 92.7128
4231 223.7869
1659 191.7392
489 267.6815
238 127.4272
46 94.0482
83 320.5431
254 121.7851
1066 200.4091
2112 207.8887
4047 301.1139
5402 72.8274
2544 229.1861
4670 302.5396
4426 49.9338
5656 95.0861
7040 189.8274
6282 232.4253
PLANTSmolcadARTstart hb
PLANTSmolcadARTstart HB
LINES
PLANTSmolcadARTstart HBCH
LINES
PLANTSmolcadARTstart HB-CHO
LINES
PLANTSmolcadARTend
PLANTSmolcadARTstart HB_WATER
LINES
PLANTSmolcadARTend

PLANTSmolcadARTend

