@<TRIPOS>MOLECULE
olaparib_entry_00001_conf_34
55 59 1
SMALL
NO_CHARGES


@<TRIPOS>ATOM
      1 N         -15.5536  -31.7826    8.2128 N.am      1 UNL1        0.0000
      2 N         -14.6633  -33.0008   10.3274 N.am      1 UNL1        0.0000
      3 N         -21.0977  -26.9410    9.5651 N.2       1 UNL1        0.0000
      4 N         -22.3658  -26.7543    9.8399 N.am      1 UNL1        0.0000
      5 C         -22.8880  -26.9371   11.0609 C.2       1 UNL1        0.0000
      6 C         -22.0562  -27.3420   12.0845 C.ar      1 UNL1        0.0000
      7 C         -22.5514  -27.5662   13.3697 C.ar      1 UNL1        0.0000
      8 C         -21.7059  -27.9911   14.3717 C.ar      1 UNL1        0.0000
      9 C         -20.3816  -28.1767   14.0355 C.ar      1 UNL1        0.0000
     10 C         -19.8765  -27.9585   12.7646 C.ar      1 UNL1        0.0000
     11 C         -20.7212  -27.5356   11.7809 C.ar      1 UNL1        0.0000
     12 C         -20.2092  -27.3416   10.5260 C.2       1 UNL1        0.0000
     13 C         -18.8183  -27.4482   10.1052 C.3       1 UNL1        0.0000
     14 C         -18.6776  -28.4478    9.0105 C.ar      1 UNL1        0.0000
     15 C         -17.3907  -28.9910    8.8482 C.ar      1 UNL1        0.0000
     16 C         -17.1586  -29.9144    7.8571 C.ar      1 UNL1        0.0000
     17 C         -15.8143  -30.5018    7.6589 C.2       1 UNL1        0.0000
     18 C         -14.2709  -32.3836    8.0386 C.3       1 UNL1        0.0000
     19 C         -13.9295  -33.3615    9.1423 C.3       1 UNL1        0.0000
     20 C         -16.1269  -33.0551   10.2459 C.3       1 UNL1        0.0000
     21 C         -16.6072  -32.4560    8.9491 C.3       1 UNL1        0.0000
     22 C         -14.0316  -32.6124   11.5125 C.2       1 UNL1        0.0000
     23 C         -12.5896  -32.4957   11.7451 C.3       1 UNL1        0.0000
     24 C         -11.8674  -33.7730   12.1100 C.3       1 UNL1        0.0000
     25 C         -12.0127  -32.7029   13.0994 C.3       1 UNL1        0.0000
     26 C         -18.1325  -30.3526    6.9914 C.ar      1 UNL1        0.0000
     27 C         -19.3918  -29.8201    7.1511 C.ar      1 UNL1        0.0000
     28 C         -19.6318  -28.8770    8.1607 C.ar      1 UNL1        0.0000
     29 O         -24.1008  -26.7620   11.3442 O.2       1 UNL1        0.0000
     30 O         -14.7764  -32.3220   12.5155 O.2       1 UNL1        0.0000
     31 O         -14.9127  -29.9078    7.0241 O.2       1 UNL1        0.0000
     32 F         -17.8516  -31.2715    6.0222 F         1 UNL1        0.0000
     33 H         -23.5520  -27.4131   13.5705 H         1 UNL1        0.0000
     34 H         -22.0483  -28.1630   15.3290 H         1 UNL1        0.0000
     35 H         -19.7319  -28.4958   14.7705 H         1 UNL1        0.0000
     36 H         -18.8759  -28.1129   12.5641 H         1 UNL1        0.0000
     37 H         -18.2204  -27.7525   10.9388 H         1 UNL1        0.0000
     38 H         -18.4927  -26.4948    9.7442 H         1 UNL1        0.0000
     39 H         -16.6227  -28.6970    9.4713 H         1 UNL1        0.0000
     40 H         -13.5300  -31.6114    8.0234 H         1 UNL1        0.0000
     41 H         -14.2921  -32.9295    7.1179 H         1 UNL1        0.0000
     42 H         -12.8796  -33.3238    9.3437 H         1 UNL1        0.0000
     43 H         -14.1918  -34.3544    8.8408 H         1 UNL1        0.0000
     44 H         -16.5463  -32.5064   11.0630 H         1 UNL1        0.0000
     45 H         -16.4386  -34.0778   10.2892 H         1 UNL1        0.0000
     46 H         -17.3782  -31.7461    9.1655 H         1 UNL1        0.0000
     47 H         -16.9634  -33.2575    8.3377 H         1 UNL1        0.0000
     48 H         -12.5015  -31.7167   11.0173 H         1 UNL1        0.0000
     49 H         -10.9073  -33.9846   11.6873 H         1 UNL1        0.0000
     50 H         -12.1095  -34.8149   12.0793 H         1 UNL1        0.0000
     51 H         -11.1543  -32.1407   13.4027 H         1 UNL1        0.0000
     52 H         -12.4038  -32.6535   14.0933 H         1 UNL1        0.0000
     53 H         -20.1597  -30.1157    6.5272 H         1 UNL1        0.0000
     54 H         -20.5851  -28.4931    8.2586 H         1 UNL1        0.0000
     55 H         -22.9643  -26.4650    9.1133 H         1 UNL1        0.0000
@<TRIPOS>BOND
     1    1   18 1
     2    1   21 1
     3    1   17 am
     4    2   19 1
     5    2   20 1
     6    2   22 am
     7    3    4 1
     8    3   12 2
     9    4    5 am
    10    4   55 1
    11    5   29 2
    12    5    6 1
    13    6    7 ar
    14    6   11 ar
    15    7    8 ar
    16    7   33 1
    17    8   34 1
    18    8    9 ar
    19    9   10 ar
    20    9   35 1
    21   10   11 ar
    22   10   36 1
    23   11   12 1
    24   12   13 1
    25   13   37 1
    26   13   38 1
    27   13   14 1
    28   14   15 ar
    29   14   28 ar
    30   15   39 1
    31   15   16 ar
    32   16   26 ar
    33   16   17 1
    34   17   31 2
    35   18   19 1
    36   18   40 1
    37   18   41 1
    38   19   42 1
    39   19   43 1
    40   20   21 1
    41   20   45 1
    42   20   44 1
    43   21   46 1
    44   21   47 1
    45   22   30 2
    46   22   23 1
    47   23   25 1
    48   23   24 1
    49   23   48 1
    50   24   25 1
    51   24   49 1
    52   24   50 1
    53   25   51 1
    54   25   52 1
    55   26   27 ar
    56   26   32 1
    57   27   28 ar
    58   27   53 1
    59   28   54 1
@<TRIPOS>SUBSTRUCTURE
1 UNL1 1
@<TRIPOS>COMMENT
olaparib
PLANTSproteinTorsions
102
4661 31.2129
5386 321.3120
6210 159.6974
5890 197.0340
4461 102.6632
1390 272.4850
2824 20.0365
4339 303.1266
2732 60.6148
4792 164.8137
3407 7.4419
5134 19.3069
6916 338.0793
7370 59.0707
6038 318.1541
7225 73.4101
3592 352.1780
2064 61.1870
2488 143.1431
1253 191.1442
2069 57.9564
2569 125.9969
3058 83.6162
1748 126.2957
1162 77.2081
1509 346.1692
560 134.4254
1627 99.5421
1941 288.8123
3631 357.8297
2381 46.1006
4221 293.3111
4687 37.8302
6983 102.2627
6668 206.5704
7305 250.0900
8693 193.5931
8404 199.6206
9055 197.0073
7052 204.1024
4708 143.4676
2652 93.4683
4332 81.0895
3011 35.0467
2257 120.8343
2778 196.4947
2057 36.9492
192 186.8094
315 112.9742
1085 100.3125
1007 220.3504
1407 187.2216
4816 80.7161
3131 340.1283
4654 0.3356
5144 137.0167
117 112.7911
6 159.7881
259 294.2483
1979 54.2878
2609 39.6763
2623 307.4508
5910 252.6622
5937 136.0647
2062 113.6625
890 202.8688
5008 237.8248
8602 63.0639
8478 128.7000
8300 134.8146
7721 158.9595
8466 336.6634
7852 203.5502
5849 156.8026
6302 59.7182
7439 320.5632
6284 305.5193
6003 275.2711
7165 212.5831
7623 224.3941
8158 272.6364
8667 144.4743
9078 300.8856
8684 143.3372
7666 346.7077
4231 219.4773
1659 147.8898
489 167.9041
238 235.4568
46 150.6701
83 338.7228
254 155.4911
1066 303.0672
2112 168.3774
4047 1.9689
5402 297.7462
2544 103.7463
4670 300.2932
4426 264.9009
5656 107.4990
7040 230.1624
6282 266.4049
PLANTSmolcadARTstart hb
PLANTSmolcadARTstart HB
LINES
PLANTSmolcadARTstart HBCH
LINES
PLANTSmolcadARTstart HB-CHO
LINES
PLANTSmolcadARTend
PLANTSmolcadARTstart HB_WATER
LINES
PLANTSmolcadARTend

PLANTSmolcadARTend

