@<TRIPOS>MOLECULE
olaparib_entry_00001_conf_47
55 59 1
SMALL
NO_CHARGES


@<TRIPOS>ATOM
      1 N         -14.3085  -45.4712    0.0738 N.am      1 UNL1        0.0000
      2 N         -14.8813  -46.5186    2.3810 N.am      1 UNL1        0.0000
      3 N         -18.5349  -42.5701   -1.1481 N.2       1 UNL1        0.0000
      4 N         -19.5182  -42.9857   -0.3871 N.am      1 UNL1        0.0000
      5 C         -19.8234  -42.4245    0.7914 C.2       1 UNL1        0.0000
      6 C         -19.0699  -41.3562    1.2326 C.ar      1 UNL1        0.0000
      7 C         -19.3320  -40.7478    2.4607 C.ar      1 UNL1        0.0000
      8 C         -18.5526  -39.6957    2.8909 C.ar      1 UNL1        0.0000
      9 C         -17.5287  -39.2950    2.0590 C.ar      1 UNL1        0.0000
     10 C         -17.2570  -39.8896    0.8381 C.ar      1 UNL1        0.0000
     11 C         -18.0358  -40.9283    0.4206 C.ar      1 UNL1        0.0000
     12 C         -17.7428  -41.5162   -0.7807 C.2       1 UNL1        0.0000
     13 C         -16.7284  -41.1129   -1.7457 C.3       1 UNL1        0.0000
     14 C         -15.3647  -41.4130   -1.2285 C.ar      1 UNL1        0.0000
     15 C         -15.0317  -42.7773   -1.1546 C.ar      1 UNL1        0.0000
     16 C         -13.7985  -43.1552   -0.6800 C.ar      1 UNL1        0.0000
     17 C         -13.4198  -44.5832   -0.5870 C.2       1 UNL1        0.0000
     18 C         -13.9801  -46.8562    0.1793 C.3       1 UNL1        0.0000
     19 C         -14.6235  -47.5191    1.3783 C.3       1 UNL1        0.0000
     20 C         -15.8161  -45.4455    2.0251 C.3       1 UNL1        0.0000
     21 C         -15.5408  -44.9447    0.6306 C.3       1 UNL1        0.0000
     22 C         -14.2792  -46.5471    3.6423 C.2       1 UNL1        0.0000
     23 C         -13.3203  -47.5376    4.1388 C.3       1 UNL1        0.0000
     24 C         -13.5733  -48.0714    5.5306 C.3       1 UNL1        0.0000
     25 C         -12.4091  -47.2217    5.2701 C.3       1 UNL1        0.0000
     26 C         -12.8440  -42.2583   -0.2623 C.ar      1 UNL1        0.0000
     27 C         -13.1710  -40.9232   -0.3350 C.ar      1 UNL1        0.0000
     28 C         -14.4288  -40.5342   -0.8178 C.ar      1 UNL1        0.0000
     29 O         -20.7629  -42.8080    1.5344 O.2       1 UNL1        0.0000
     30 O         -14.5850  -45.6146    4.4682 O.2       1 UNL1        0.0000
     31 O         -12.3510  -45.0236   -1.0691 O.2       1 UNL1        0.0000
     32 F         -11.6332  -42.6839    0.2021 F         1 UNL1        0.0000
     33 H         -20.1108  -41.0856    3.0476 H         1 UNL1        0.0000
     34 H         -18.7271  -39.2299    3.7942 H         1 UNL1        0.0000
     35 H         -16.9324  -38.5099    2.3628 H         1 UNL1        0.0000
     36 H         -16.4772  -39.5520    0.2523 H         1 UNL1        0.0000
     37 H         -16.8127  -40.0616   -1.9270 H         1 UNL1        0.0000
     38 H         -16.8793  -41.6586   -2.6539 H         1 UNL1        0.0000
     39 H         -15.7115  -43.4928   -1.4556 H         1 UNL1        0.0000
     40 H         -12.9174  -46.9506    0.2645 H         1 UNL1        0.0000
     41 H         -14.3514  -47.3441   -0.6982 H         1 UNL1        0.0000
     42 H         -13.9649  -48.2635    1.7737 H         1 UNL1        0.0000
     43 H         -15.5415  -47.9850    1.0856 H         1 UNL1        0.0000
     44 H         -15.7051  -44.6371    2.7170 H         1 UNL1        0.0000
     45 H         -16.8143  -45.8291    2.0626 H         1 UNL1        0.0000
     46 H         -15.4728  -43.8771    0.6581 H         1 UNL1        0.0000
     47 H         -16.3423  -45.2774    0.0061 H         1 UNL1        0.0000
     48 H         -13.1666  -47.9306    3.1558 H         1 UNL1        0.0000
     49 H         -13.4404  -49.1131    5.7366 H         1 UNL1        0.0000
     50 H         -14.3953  -48.0418    6.2150 H         1 UNL1        0.0000
     51 H         -11.4268  -47.6455    5.2952 H         1 UNL1        0.0000
     52 H         -12.0358  -46.3158    5.6980 H         1 UNL1        0.0000
     53 H         -12.4895  -40.2082   -0.0340 H         1 UNL1        0.0000
     54 H         -14.6487  -39.5266   -0.8616 H         1 UNL1        0.0000
     55 H         -20.0596  -43.7477   -0.6970 H         1 UNL1        0.0000
@<TRIPOS>BOND
     1    1   18 1
     2    1   21 1
     3    1   17 am
     4    2   19 1
     5    2   20 1
     6    2   22 am
     7    3    4 1
     8    3   12 2
     9    4    5 am
    10    4   55 1
    11    5   29 2
    12    5    6 1
    13    6    7 ar
    14    6   11 ar
    15    7    8 ar
    16    7   33 1
    17    8   34 1
    18    8    9 ar
    19    9   10 ar
    20    9   35 1
    21   10   11 ar
    22   10   36 1
    23   11   12 1
    24   12   13 1
    25   13   37 1
    26   13   38 1
    27   13   14 1
    28   14   15 ar
    29   14   28 ar
    30   15   39 1
    31   15   16 ar
    32   16   26 ar
    33   16   17 1
    34   17   31 2
    35   18   19 1
    36   18   40 1
    37   18   41 1
    38   19   42 1
    39   19   43 1
    40   20   21 1
    41   20   45 1
    42   20   44 1
    43   21   46 1
    44   21   47 1
    45   22   30 2
    46   22   23 1
    47   23   25 1
    48   23   24 1
    49   23   48 1
    50   24   25 1
    51   24   49 1
    52   24   50 1
    53   25   51 1
    54   25   52 1
    55   26   27 ar
    56   26   32 1
    57   27   28 ar
    58   27   53 1
    59   28   54 1
@<TRIPOS>SUBSTRUCTURE
1 UNL1 1
@<TRIPOS>COMMENT
olaparib
PLANTSproteinTorsions
102
4661 194.7016
5386 161.6973
6210 61.5981
5890 153.8287
4461 17.5647
1390 26.0315
2824 225.6128
4339 165.0579
2732 149.0051
4792 183.2933
3407 56.0225
5134 34.5395
6916 221.9908
7370 250.0002
6038 258.9858
7225 268.3279
3592 193.3515
2064 194.3462
2488 215.3826
1253 336.4232
2069 109.7002
2569 270.1163
3058 80.2031
1748 358.5233
1162 356.8604
1509 190.0168
560 244.7766
1627 93.6286
1941 337.7157
3631 206.7745
2381 75.7933
4221 234.0186
4687 186.7053
6983 58.8442
6668 231.7497
7305 72.8176
8693 176.0120
8404 341.8681
9055 316.1116
7052 71.2554
4708 312.2093
2652 84.1829
4332 172.4382
3011 237.5912
2257 2.3836
2778 149.2288
2057 197.4117
192 172.3604
315 209.6241
1085 181.7759
1007 153.0204
1407 283.8156
4816 261.0211
3131 220.8861
4654 263.5240
5144 92.7642
117 109.7443
6 285.5934
259 183.8710
1979 256.3632
2609 108.9321
2623 149.4057
5910 126.1093
5937 247.5611
2062 53.8446
890 220.6179
5008 148.4082
8602 157.7504
8478 99.6814
8300 73.0241
7721 138.5182
8466 275.3550
7852 13.2111
5849 17.5507
6302 54.0188
7439 322.5388
6284 226.7095
6003 59.2413
7165 293.3173
7623 168.8926
8158 265.5393
8667 213.0913
9078 153.0297
8684 124.6321
7666 61.0540
4231 252.2215
1659 97.3952
489 146.8791
238 90.2539
46 288.6864
83 131.1119
254 226.1580
1066 214.1158
2112 220.7755
4047 239.6650
5402 249.5957
2544 47.5612
4670 111.7358
4426 196.4707
5656 6.9726
7040 157.9354
6282 262.4901
PLANTSmolcadARTstart hb
PLANTSmolcadARTstart HB
LINES
-14.585 -45.6146 4.46825 -14.807 -43.973 3.961 0 255 0 5
PLANTSmolcadARTstart HBCH
LINES
PLANTSmolcadARTstart HB-CHO
LINES
PLANTSmolcadARTend
PLANTSmolcadARTstart HB_WATER
LINES
PLANTSmolcadARTend

PLANTSmolcadARTend

