@<TRIPOS>MOLECULE
olaparib_entry_00001_conf_83
55 59 1
SMALL
NO_CHARGES


@<TRIPOS>ATOM
      1 N           0.8191  -40.0058    2.2177 N.am      1 UNL1        0.0000
      2 N           0.5148  -37.4762    2.7248 N.am      1 UNL1        0.0000
      3 N           2.7892  -37.2055   -2.1227 N.2       1 UNL1        0.0000
      4 N           2.3446  -36.0613   -1.6624 N.am      1 UNL1        0.0000
      5 C           1.0450  -35.8084   -1.4527 C.2       1 UNL1        0.0000
      6 C           0.1231  -36.7959   -1.7332 C.ar      1 UNL1        0.0000
      7 C          -1.2433  -36.5785   -1.5523 C.ar      1 UNL1        0.0000
      8 C          -2.1477  -37.5722   -1.8594 C.ar      1 UNL1        0.0000
      9 C          -1.6345  -38.7571   -2.3430 C.ar      1 UNL1        0.0000
     10 C          -0.2813  -38.9863   -2.5279 C.ar      1 UNL1        0.0000
     11 C           0.6054  -37.9974   -2.2185 C.ar      1 UNL1        0.0000
     12 C           1.9382  -38.2342   -2.4237 C.2       1 UNL1        0.0000
     13 C           2.5651  -39.4737   -2.8638 C.3       1 UNL1        0.0000
     14 C           2.1866  -40.5996   -1.9659 C.ar      1 UNL1        0.0000
     15 C           2.1384  -40.2909   -0.5947 C.ar      1 UNL1        0.0000
     16 C           1.8086  -41.2672    0.3145 C.ar      1 UNL1        0.0000
     17 C           1.7528  -40.9742    1.7645 C.2       1 UNL1        0.0000
     18 C           0.7325  -39.6999    3.6091 C.3       1 UNL1        0.0000
     19 C           0.2190  -38.2998    3.8682 C.3       1 UNL1        0.0000
     20 C          -0.1115  -37.8538    1.4532 C.3       1 UNL1        0.0000
     21 C          -0.0328  -39.3446    1.2466 C.3       1 UNL1        0.0000
     22 C           1.3580  -36.3637    2.7988 C.2       1 UNL1        0.0000
     23 C           2.0643  -35.8706    3.9842 C.3       1 UNL1        0.0000
     24 C           1.2082  -35.2241    5.0497 C.3       1 UNL1        0.0000
     25 C           2.1512  -34.4152    4.2741 C.3       1 UNL1        0.0000
     26 C           1.5143  -42.5618   -0.0423 C.ar      1 UNL1        0.0000
     27 C           1.5618  -42.8629   -1.3847 C.ar      1 UNL1        0.0000
     28 C           1.8989  -41.8694   -2.3151 C.ar      1 UNL1        0.0000
     29 O           0.5996  -34.7183   -1.0108 O.2       1 UNL1        0.0000
     30 O           1.5477  -35.6890    1.7246 O.2       1 UNL1        0.0000
     31 O           2.4966  -41.5500    2.5915 O.2       1 UNL1        0.0000
     32 F           1.1929  -43.4960    0.8993 F         1 UNL1        0.0000
     33 H          -1.5774  -35.6729   -1.1874 H         1 UNL1        0.0000
     34 H          -3.1619  -37.4353   -1.7337 H         1 UNL1        0.0000
     35 H          -2.2944  -39.5136   -2.5803 H         1 UNL1        0.0000
     36 H           0.0521  -39.8920   -2.8940 H         1 UNL1        0.0000
     37 H           3.6285  -39.3548   -2.8503 H         1 UNL1        0.0000
     38 H           2.2299  -39.6972   -3.8553 H         1 UNL1        0.0000
     39 H           2.3503  -39.3340   -0.2722 H         1 UNL1        0.0000
     40 H           1.7070  -39.7931    4.0415 H         1 UNL1        0.0000
     41 H           0.0376  -40.3857    4.0482 H         1 UNL1        0.0000
     42 H           0.6975  -37.8964    4.7357 H         1 UNL1        0.0000
     43 H          -0.8382  -38.3261    4.0331 H         1 UNL1        0.0000
     44 H           0.3952  -37.3607    0.6503 H         1 UNL1        0.0000
     45 H          -1.1410  -37.5628    1.4742 H         1 UNL1        0.0000
     46 H           0.3565  -39.5339    0.2680 H         1 UNL1        0.0000
     47 H          -1.0199  -39.7377    1.3662 H         1 UNL1        0.0000
     48 H           2.7897  -36.6541    3.9189 H         1 UNL1        0.0000
     49 H           1.3986  -35.4241    6.0836 H         1 UNL1        0.0000
     50 H           0.1586  -35.1782    5.2528 H         1 UNL1        0.0000
     51 H           3.0251  -34.0192    4.7479 H         1 UNL1        0.0000
     52 H           2.0632  -33.5292    3.6821 H         1 UNL1        0.0000
     53 H           1.3489  -43.8208   -1.7062 H         1 UNL1        0.0000
     54 H           1.9276  -42.1219   -3.3156 H         1 UNL1        0.0000
     55 H           2.9980  -35.3528   -1.4600 H         1 UNL1        0.0000
@<TRIPOS>BOND
     1    1   18 1
     2    1   21 1
     3    1   17 am
     4    2   19 1
     5    2   20 1
     6    2   22 am
     7    3    4 1
     8    3   12 2
     9    4    5 am
    10    4   55 1
    11    5   29 2
    12    5    6 1
    13    6    7 ar
    14    6   11 ar
    15    7    8 ar
    16    7   33 1
    17    8   34 1
    18    8    9 ar
    19    9   10 ar
    20    9   35 1
    21   10   11 ar
    22   10   36 1
    23   11   12 1
    24   12   13 1
    25   13   37 1
    26   13   38 1
    27   13   14 1
    28   14   15 ar
    29   14   28 ar
    30   15   39 1
    31   15   16 ar
    32   16   26 ar
    33   16   17 1
    34   17   31 2
    35   18   19 1
    36   18   40 1
    37   18   41 1
    38   19   42 1
    39   19   43 1
    40   20   21 1
    41   20   45 1
    42   20   44 1
    43   21   46 1
    44   21   47 1
    45   22   30 2
    46   22   23 1
    47   23   25 1
    48   23   24 1
    49   23   48 1
    50   24   25 1
    51   24   49 1
    52   24   50 1
    53   25   51 1
    54   25   52 1
    55   26   27 ar
    56   26   32 1
    57   27   28 ar
    58   27   53 1
    59   28   54 1
@<TRIPOS>SUBSTRUCTURE
1 UNL1 1
@<TRIPOS>COMMENT
olaparib
PLANTSproteinTorsions
102
4661 101.0857
5386 2.7746
6210 37.1499
5890 133.0802
4461 19.1879
1390 35.7253
2824 44.3827
4339 4.6913
2732 74.7076
4792 72.3134
3407 335.5049
5134 205.5187
6916 355.6767
7370 50.3527
6038 174.0407
7225 2.1577
3592 23.1438
2064 207.3065
2488 24.4595
1253 32.1267
2069 135.1667
2569 112.7079
3058 47.4167
1748 47.9579
1162 163.3972
1509 145.0136
560 135.6264
1627 242.5897
1941 233.8006
3631 213.5111
2381 337.7626
4221 242.0902
4687 298.4577
6983 231.6380
6668 128.4467
7305 65.3142
8693 316.4615
8404 139.5114
9055 122.7744
7052 330.2693
4708 220.9342
2652 77.1229
4332 128.2225
3011 164.6835
2257 219.4646
2778 155.5212
2057 311.3676
192 87.6782
315 350.0240
1085 242.5126
1007 96.2529
1407 65.5743
4816 176.5738
3131 152.6237
4654 140.6338
5144 296.5818
117 160.9945
6 135.6641
259 215.2672
1979 176.1307
2609 271.5172
2623 23.7227
5910 67.5956
5937 106.5983
2062 139.4070
890 252.9321
5008 302.4831
8602 286.7401
8478 181.0174
8300 149.5777
7721 89.3671
8466 133.7843
7852 266.0907
5849 162.5710
6302 146.6568
7439 189.6342
6284 266.3967
6003 26.8163
7165 279.3036
7623 259.0272
8158 304.3029
8667 72.2776
9078 110.3333
8684 139.1709
7666 265.8642
4231 131.1971
1659 258.4446
489 164.7830
238 110.8647
46 279.3519
83 156.9782
254 66.8657
1066 100.0325
2112 228.8057
4047 224.4993
5402 253.8648
2544 259.1709
4670 163.2771
4426 201.5943
5656 174.8659
7040 161.6867
6282 134.4101
PLANTSmolcadARTstart hb
PLANTSmolcadARTstart HB
LINES
PLANTSmolcadARTstart HBCH
LINES
PLANTSmolcadARTstart HB-CHO
LINES
PLANTSmolcadARTend
PLANTSmolcadARTstart HB_WATER
LINES
PLANTSmolcadARTend

PLANTSmolcadARTend

