@<TRIPOS>MOLECULE
olaparib_entry_00001_conf_08
55 59 1
SMALL
NO_CHARGES


@<TRIPOS>ATOM
      1 N         -16.0153  -41.9589   -2.0084 N.am      1 UNL1        0.0000
      2 N         -15.7386  -44.2878   -0.8911 N.am      1 UNL1        0.0000
      3 N         -16.4629  -35.3131   -3.2259 N.2       1 UNL1        0.0000
      4 N         -15.7275  -34.6091   -4.0518 N.am      1 UNL1        0.0000
      5 C         -14.6540  -33.9064   -3.6638 C.2       1 UNL1        0.0000
      6 C         -14.2989  -33.9193   -2.3306 C.ar      1 UNL1        0.0000
      7 C         -13.2024  -33.1896   -1.8697 C.ar      1 UNL1        0.0000
      8 C         -12.8791  -33.2002   -0.5300 C.ar      1 UNL1        0.0000
      9 C         -13.6823  -33.9521    0.3012 C.ar      1 UNL1        0.0000
     10 C         -14.7733  -34.6806   -0.1423 C.ar      1 UNL1        0.0000
     11 C         -15.0832  -34.6654   -1.4703 C.ar      1 UNL1        0.0000
     12 C         -16.1753  -35.3769   -1.8893 C.2       1 UNL1        0.0000
     13 C         -17.0310  -36.2465   -1.0927 C.3       1 UNL1        0.0000
     14 C         -16.2816  -37.4540   -0.6480 C.ar      1 UNL1        0.0000
     15 C         -16.1589  -38.4771   -1.6049 C.ar      1 UNL1        0.0000
     16 C         -15.4929  -39.6359   -1.2849 C.ar      1 UNL1        0.0000
     17 C         -15.3499  -40.7324   -2.2692 C.2       1 UNL1        0.0000
     18 C         -15.9051  -43.0376   -2.9364 C.3       1 UNL1        0.0000
     19 C         -16.0900  -44.3906   -2.2836 C.3       1 UNL1        0.0000
     20 C         -16.5465  -43.3828   -0.0663 C.3       1 UNL1        0.0000
     21 C         -16.7988  -42.0872   -0.7937 C.3       1 UNL1        0.0000
     22 C         -14.6796  -45.0066   -0.3290 C.2       1 UNL1        0.0000
     23 C         -13.7780  -45.9323   -1.0197 C.3       1 UNL1        0.0000
     24 C         -14.4267  -46.9021   -1.9814 C.3       1 UNL1        0.0000
     25 C         -13.8190  -47.3921   -0.7421 C.3       1 UNL1        0.0000
     26 C         -14.9230  -39.8632   -0.0546 C.ar      1 UNL1        0.0000
     27 C         -15.0438  -38.8610    0.8813 C.ar      1 UNL1        0.0000
     28 C         -15.7236  -37.6778    0.5585 C.ar      1 UNL1        0.0000
     29 O         -13.9358  -33.2266   -4.4408 O.2       1 UNL1        0.0000
     30 O         -14.4560  -44.8527    0.9247 O.2       1 UNL1        0.0000
     31 O         -14.6673  -40.6091   -3.3121 O.2       1 UNL1        0.0000
     32 F         -14.2721  -41.0321    0.2148 F         1 UNL1        0.0000
     33 H         -12.6323  -32.6416   -2.5328 H         1 UNL1        0.0000
     34 H         -12.0735  -32.6694   -0.1659 H         1 UNL1        0.0000
     35 H         -13.4584  -33.9726    1.3079 H         1 UNL1        0.0000
     36 H         -15.3438  -35.2275    0.5217 H         1 UNL1        0.0000
     37 H         -17.8707  -36.5506   -1.6822 H         1 UNL1        0.0000
     38 H         -17.3606  -35.7088   -0.2281 H         1 UNL1        0.0000
     39 H         -16.5680  -38.3583   -2.5446 H         1 UNL1        0.0000
     40 H         -14.9349  -43.0040   -3.3870 H         1 UNL1        0.0000
     41 H         -16.6828  -42.9198   -3.6627 H         1 UNL1        0.0000
     42 H         -15.4587  -45.1096   -2.7619 H         1 UNL1        0.0000
     43 H         -17.1093  -44.7028   -2.3789 H         1 UNL1        0.0000
     44 H         -16.0263  -43.1780    0.8458 H         1 UNL1        0.0000
     45 H         -17.4865  -43.8499    0.1416 H         1 UNL1        0.0000
     46 H         -16.5513  -41.2755   -0.1418 H         1 UNL1        0.0000
     47 H         -17.8303  -42.0727   -1.0748 H         1 UNL1        0.0000
     48 H         -12.9922  -45.2067   -1.0367 H         1 UNL1        0.0000
     49 H         -13.9645  -47.1115   -2.9236 H         1 UNL1        0.0000
     50 H         -15.3913  -46.9853   -2.4371 H         1 UNL1        0.0000
     51 H         -12.9171  -47.9663   -0.7845 H         1 UNL1        0.0000
     52 H         -14.1669  -47.9875    0.0750 H         1 UNL1        0.0000
     53 H         -14.6333  -38.9809    1.8212 H         1 UNL1        0.0000
     54 H         -15.8000  -36.9423    1.2788 H         1 UNL1        0.0000
     55 H         -15.9760  -34.5964   -5.0047 H         1 UNL1        0.0000
@<TRIPOS>BOND
     1    1   18 1
     2    1   21 1
     3    1   17 am
     4    2   19 1
     5    2   20 1
     6    2   22 am
     7    3    4 1
     8    3   12 2
     9    4    5 am
    10    4   55 1
    11    5   29 2
    12    5    6 1
    13    6    7 ar
    14    6   11 ar
    15    7    8 ar
    16    7   33 1
    17    8   34 1
    18    8    9 ar
    19    9   10 ar
    20    9   35 1
    21   10   11 ar
    22   10   36 1
    23   11   12 1
    24   12   13 1
    25   13   37 1
    26   13   38 1
    27   13   14 1
    28   14   15 ar
    29   14   28 ar
    30   15   39 1
    31   15   16 ar
    32   16   26 ar
    33   16   17 1
    34   17   31 2
    35   18   19 1
    36   18   40 1
    37   18   41 1
    38   19   42 1
    39   19   43 1
    40   20   21 1
    41   20   45 1
    42   20   44 1
    43   21   46 1
    44   21   47 1
    45   22   30 2
    46   22   23 1
    47   23   25 1
    48   23   24 1
    49   23   48 1
    50   24   25 1
    51   24   49 1
    52   24   50 1
    53   25   51 1
    54   25   52 1
    55   26   27 ar
    56   26   32 1
    57   27   28 ar
    58   27   53 1
    59   28   54 1
@<TRIPOS>SUBSTRUCTURE
1 UNL1 1
@<TRIPOS>COMMENT
olaparib
PLANTSproteinTorsions
102
4661 144.3882
5386 66.5738
6210 20.7555
5890 239.5100
4461 349.1877
1390 75.2674
2824 118.5318
4339 6.0316
2732 217.1539
4792 202.4588
3407 36.0659
5134 259.2360
6916 36.7190
7370 120.2508
6038 171.8994
7225 356.9681
3592 312.7045
2064 288.9156
2488 44.0421
1253 65.5769
2069 246.1262
2569 148.4993
3058 72.1117
1748 88.7972
1162 16.9128
1509 54.0895
560 82.1328
1627 119.5858
1941 63.8571
3631 40.9536
2381 144.6360
4221 331.5167
4687 284.6196
6983 141.3953
6668 202.2528
7305 69.2741
8693 146.0917
8404 43.2523
9055 302.3922
7052 125.6866
4708 111.6508
2652 319.7159
4332 219.2240
3011 208.5811
2257 200.3112
2778 162.8660
2057 265.5879
192 16.3346
315 239.4007
1085 310.8770
1007 75.6411
1407 217.2782
4816 91.1186
3131 354.3077
4654 52.1967
5144 31.7445
117 15.1681
6 102.2858
259 76.2140
1979 221.3123
2609 323.1866
2623 23.3786
5910 166.1203
5937 73.9857
2062 16.5334
890 257.3489
5008 307.5055
8602 88.4002
8478 246.6295
8300 252.9811
7721 26.9691
8466 22.5241
7852 155.2229
5849 155.6954
6302 112.7768
7439 108.1487
6284 150.0633
6003 218.6618
7165 22.9068
7623 151.2596
8158 197.5628
8667 134.1985
9078 129.4467
8684 251.2524
7666 274.2970
4231 160.8471
1659 34.4891
489 288.1599
238 133.1701
46 212.2713
83 122.0133
254 287.1385
1066 133.2862
2112 261.7703
4047 283.7060
5402 272.7744
2544 47.7762
4670 58.5293
4426 103.0289
5656 189.3375
7040 246.6591
6282 315.7978
PLANTSmolcadARTstart hb
PLANTSmolcadARTstart HB
LINES
-14.6673 -40.6091 -3.31205 -13.084 -39.387 -3.151 0 255 0 5
PLANTSmolcadARTstart HBCH
LINES
PLANTSmolcadARTstart HB-CHO
LINES
PLANTSmolcadARTend
PLANTSmolcadARTstart HB_WATER
LINES
PLANTSmolcadARTend

PLANTSmolcadARTend

