@<TRIPOS>MOLECULE
olaparib_entry_00001_conf_37
55 59 1
SMALL
NO_CHARGES


@<TRIPOS>ATOM
      1 N         -19.0153  -39.3229    1.5470 N.am      1 UNL1        0.0000
      2 N         -21.1461  -38.5720    2.8292 N.am      1 UNL1        0.0000
      3 N         -18.7307  -34.9402    2.4522 N.2       1 UNL1        0.0000
      4 N         -20.0215  -34.7317    2.3575 N.am      1 UNL1        0.0000
      5 C         -20.5631  -33.8502    1.5051 C.2       1 UNL1        0.0000
      6 C         -19.7273  -33.1219    0.6837 C.ar      1 UNL1        0.0000
      7 C         -20.2370  -32.1769   -0.2076 C.ar      1 UNL1        0.0000
      8 C         -19.3816  -31.4457   -1.0033 C.ar      1 UNL1        0.0000
      9 C         -18.0327  -31.6970   -0.8672 C.ar      1 UNL1        0.0000
     10 C         -17.5131  -32.6313    0.0131 C.ar      1 UNL1        0.0000
     11 C         -18.3683  -33.3513    0.7942 C.ar      1 UNL1        0.0000
     12 C         -17.8371  -34.2583    1.6715 C.2       1 UNL1        0.0000
     13 C         -16.4373  -34.6312    1.8284 C.3       1 UNL1        0.0000
     14 C         -16.1744  -35.9552    1.1998 C.ar      1 UNL1        0.0000
     15 C         -16.9646  -37.0179    1.6731 C.ar      1 UNL1        0.0000
     16 C         -16.7886  -38.2811    1.1612 C.ar      1 UNL1        0.0000
     17 C         -17.6023  -39.4208    1.6412 C.2       1 UNL1        0.0000
     18 C         -19.8332  -40.4034    1.9951 C.3       1 UNL1        0.0000
     19 C         -21.2126  -39.9523    2.4250 C.3       1 UNL1        0.0000
     20 C         -20.7575  -37.5967    1.8046 C.3       1 UNL1        0.0000
     21 C         -19.5993  -38.1160    0.9921 C.3       1 UNL1        0.0000
     22 C         -21.4333  -38.1567    4.1328 C.2       1 UNL1        0.0000
     23 C         -21.8189  -39.0056    5.2633 C.3       1 UNL1        0.0000
     24 C         -20.7208  -39.3493    6.2441 C.3       1 UNL1        0.0000
     25 C         -21.2984  -40.3919    5.3929 C.3       1 UNL1        0.0000
     26 C         -15.8639  -38.5787    0.1884 C.ar      1 UNL1        0.0000
     27 C         -15.0910  -37.5377   -0.2741 C.ar      1 UNL1        0.0000
     28 C         -15.2672  -36.2478    0.2468 C.ar      1 UNL1        0.0000
     29 O         -21.7981  -33.6372    1.3988 O.2       1 UNL1        0.0000
     30 O         -21.3559  -36.9020    4.3877 O.2       1 UNL1        0.0000
     31 O         -17.0851  -40.4555    2.1215 O.2       1 UNL1        0.0000
     32 F         -15.7268  -39.8505   -0.2873 F         1 UNL1        0.0000
     33 H         -21.2558  -32.0256   -0.2716 H         1 UNL1        0.0000
     34 H         -19.7345  -30.7423   -1.6697 H         1 UNL1        0.0000
     35 H         -17.3750  -31.1596   -1.4527 H         1 UNL1        0.0000
     36 H         -16.4939  -32.7813    0.0775 H         1 UNL1        0.0000
     37 H         -16.2013  -34.6833    2.8708 H         1 UNL1        0.0000
     38 H         -15.8277  -33.8950    1.3470 H         1 UNL1        0.0000
     39 H         -17.6742  -36.8498    2.4029 H         1 UNL1        0.0000
     40 H         -19.3520  -40.8751    2.8267 H         1 UNL1        0.0000
     41 H         -19.9551  -41.0788    1.1735 H         1 UNL1        0.0000
     42 H         -21.5472  -40.5518    3.2453 H         1 UNL1        0.0000
     43 H         -21.8992  -40.0597    1.6110 H         1 UNL1        0.0000
     44 H         -20.4713  -36.6816    2.2792 H         1 UNL1        0.0000
     45 H         -21.5889  -37.4300    1.1520 H         1 UNL1        0.0000
     46 H         -18.8434  -37.3596    0.9523 H         1 UNL1        0.0000
     47 H         -19.9725  -38.3584    0.0199 H         1 UNL1        0.0000
     48 H         -22.8003  -38.5808    5.2904 H         1 UNL1        0.0000
     49 H         -20.9212  -39.3444    7.2953 H         1 UNL1        0.0000
     50 H         -19.7321  -38.9855    6.4318 H         1 UNL1        0.0000
     51 H         -21.9135  -41.1517    5.8282 H         1 UNL1        0.0000
     52 H         -20.8929  -41.1047    4.7069 H         1 UNL1        0.0000
     53 H         -14.3815  -37.7072   -1.0049 H         1 UNL1        0.0000
     54 H         -14.6743  -35.4851   -0.1172 H         1 UNL1        0.0000
     55 H         -20.6230  -35.2488    2.9411 H         1 UNL1        0.0000
@<TRIPOS>BOND
     1    1   18 1
     2    1   21 1
     3    1   17 am
     4    2   19 1
     5    2   20 1
     6    2   22 am
     7    3    4 1
     8    3   12 2
     9    4    5 am
    10    4   55 1
    11    5   29 2
    12    5    6 1
    13    6    7 ar
    14    6   11 ar
    15    7    8 ar
    16    7   33 1
    17    8   34 1
    18    8    9 ar
    19    9   10 ar
    20    9   35 1
    21   10   11 ar
    22   10   36 1
    23   11   12 1
    24   12   13 1
    25   13   37 1
    26   13   38 1
    27   13   14 1
    28   14   15 ar
    29   14   28 ar
    30   15   39 1
    31   15   16 ar
    32   16   26 ar
    33   16   17 1
    34   17   31 2
    35   18   19 1
    36   18   40 1
    37   18   41 1
    38   19   42 1
    39   19   43 1
    40   20   21 1
    41   20   45 1
    42   20   44 1
    43   21   46 1
    44   21   47 1
    45   22   30 2
    46   22   23 1
    47   23   25 1
    48   23   24 1
    49   23   48 1
    50   24   25 1
    51   24   49 1
    52   24   50 1
    53   25   51 1
    54   25   52 1
    55   26   27 ar
    56   26   32 1
    57   27   28 ar
    58   27   53 1
    59   28   54 1
@<TRIPOS>SUBSTRUCTURE
1 UNL1 1
@<TRIPOS>COMMENT
olaparib
PLANTSproteinTorsions
102
4661 146.0158
5386 231.9310
6210 300.2415
5890 208.2986
4461 285.3273
1390 13.2739
2824 59.1477
4339 150.9181
2732 57.2937
4792 228.0749
3407 259.4855
5134 261.5598
6916 65.1737
7370 175.0924
6038 142.3616
7225 208.9309
3592 348.8618
2064 250.0105
2488 297.1689
1253 176.3722
2069 283.1823
2569 249.7023
3058 47.0095
1748 227.4303
1162 104.9443
1509 338.4461
560 251.2770
1627 316.3797
1941 104.8967
3631 55.1189
2381 142.7706
4221 207.8353
4687 195.7162
6983 146.5952
6668 219.4832
7305 62.6681
8693 66.4343
8404 125.9864
9055 226.8196
7052 113.8916
4708 39.6729
2652 230.0916
4332 207.5233
3011 206.7156
2257 244.5750
2778 171.1231
2057 137.9825
192 66.8810
315 99.7353
1085 214.4109
1007 312.6588
1407 53.1473
4816 145.2579
3131 218.5170
4654 217.4739
5144 73.3600
117 167.0890
6 341.8250
259 171.7141
1979 131.5217
2609 286.7805
2623 21.8365
5910 54.6814
5937 53.8661
2062 7.4675
890 2.8001
5008 202.3117
8602 1.8080
8478 181.3795
8300 82.0224
7721 34.8176
8466 209.5403
7852 286.7802
5849 55.7229
6302 223.6521
7439 202.8834
6284 4.6359
6003 218.9655
7165 52.0378
7623 8.1018
8158 11.6878
8667 47.0349
9078 104.8743
8684 51.5121
7666 255.0637
4231 302.4617
1659 66.3851
489 58.0296
238 79.5046
46 195.7963
83 76.9743
254 97.3228
1066 4.8918
2112 221.6444
4047 178.8340
5402 34.1082
2544 234.4114
4670 354.7094
4426 103.1323
5656 19.8752
7040 295.5833
6282 86.8055
PLANTSmolcadARTstart hb
PLANTSmolcadARTstart HB
LINES
-21.3559 -36.902 4.38769 -21.8217 -36.635 6.39931 0 255 0 5
PLANTSmolcadARTstart HBCH
LINES
PLANTSmolcadARTstart HB-CHO
LINES
PLANTSmolcadARTend
PLANTSmolcadARTstart HB_WATER
LINES
PLANTSmolcadARTend

PLANTSmolcadARTend

