@<TRIPOS>MOLECULE
olaparib_entry_00001_conf_65
55 59 1
SMALL
NO_CHARGES


@<TRIPOS>ATOM
      1 N          -0.0269  -42.3389    1.4052 N.am      1 UNL1        0.0000
      2 N           0.9406  -43.7861    3.3333 N.am      1 UNL1        0.0000
      3 N           0.9726  -37.4682    5.1309 N.2       1 UNL1        0.0000
      4 N           0.2815  -36.8576    6.0625 N.am      1 UNL1        0.0000
      5 C          -0.1030  -35.5766    5.9721 C.2       1 UNL1        0.0000
      6 C           0.2422  -34.8581    4.8459 C.ar      1 UNL1        0.0000
      7 C          -0.1152  -33.5162    4.7095 C.ar      1 UNL1        0.0000
      8 C           0.2590  -32.8123    3.5852 C.ar      1 UNL1        0.0000
      9 C           0.9871  -33.4947    2.6337 C.ar      1 UNL1        0.0000
     10 C           1.3489  -34.8259    2.7561 C.ar      1 UNL1        0.0000
     11 C           0.9715  -35.5140    3.8713 C.ar      1 UNL1        0.0000
     12 C           1.3524  -36.8242    3.9845 C.2       1 UNL1        0.0000
     13 C           2.0590  -37.6345    3.0009 C.3       1 UNL1        0.0000
     14 C           1.1283  -38.0897    1.9314 C.ar      1 UNL1        0.0000
     15 C           1.1453  -39.4695    1.6607 C.ar      1 UNL1        0.0000
     16 C           0.3284  -39.9843    0.6827 C.ar      1 UNL1        0.0000
     17 C           0.3260  -41.4316    0.3720 C.2       1 UNL1        0.0000
     18 C          -0.0453  -43.7416    1.1425 C.3       1 UNL1        0.0000
     19 C           0.1939  -44.5716    2.3854 C.3       1 UNL1        0.0000
     20 C           0.2995  -42.5674    3.8388 C.3       1 UNL1        0.0000
     21 C          -0.3639  -41.8134    2.7152 C.3       1 UNL1        0.0000
     22 C           2.2198  -44.1479    3.7658 C.2       1 UNL1        0.0000
     23 C           2.9937  -45.3191    3.3456 C.3       1 UNL1        0.0000
     24 C           2.7145  -46.6050    4.0903 C.3       1 UNL1        0.0000
     25 C           4.0059  -45.9317    4.2456 C.3       1 UNL1        0.0000
     26 C          -0.5281  -39.2136   -0.0673 C.ar      1 UNL1        0.0000
     27 C          -0.5439  -37.8631    0.1985 C.ar      1 UNL1        0.0000
     28 C           0.2891  -37.3344    1.1950 C.ar      1 UNL1        0.0000
     29 O          -0.7671  -34.9742    6.8541 O.2       1 UNL1        0.0000
     30 O           2.7956  -43.3856    4.6217 O.2       1 UNL1        0.0000
     31 O           0.6225  -41.8718   -0.7624 O.2       1 UNL1        0.0000
     32 F          -1.3195  -39.7726   -1.0286 F         1 UNL1        0.0000
     33 H          -0.6609  -33.0501    5.4511 H         1 UNL1        0.0000
     34 H           0.0063  -31.8202    3.4617 H         1 UNL1        0.0000
     35 H           1.2784  -32.9859    1.7850 H         1 UNL1        0.0000
     36 H           1.8958  -35.2911    2.0145 H         1 UNL1        0.0000
     37 H           2.4819  -38.4889    3.4868 H         1 UNL1        0.0000
     38 H           2.8309  -37.0418    2.5556 H         1 UNL1        0.0000
     39 H           1.7696  -40.0938    2.1946 H         1 UNL1        0.0000
     40 H           0.7191  -43.9662    0.4278 H         1 UNL1        0.0000
     41 H          -1.0187  -43.9881    0.7712 H         1 UNL1        0.0000
     42 H           0.7484  -45.4499    2.1297 H         1 UNL1        0.0000
     43 H          -0.7432  -44.8625    2.8130 H         1 UNL1        0.0000
     44 H           1.0394  -41.9419    4.2928 H         1 UNL1        0.0000
     45 H          -0.4449  -42.8400    4.5575 H         1 UNL1        0.0000
     46 H          -0.0546  -40.7899    2.7610 H         1 UNL1        0.0000
     47 H          -1.4208  -41.9165    2.8395 H         1 UNL1        0.0000
     48 H           3.0174  -44.9808    2.3311 H         1 UNL1        0.0000
     49 H           2.6541  -47.5305    3.5562 H         1 UNL1        0.0000
     50 H           1.9501  -46.9420    4.7590 H         1 UNL1        0.0000
     51 H           4.8877  -46.3733    3.8304 H         1 UNL1        0.0000
     52 H           4.5688  -45.5816    5.0845 H         1 UNL1        0.0000
     53 H          -1.1696  -37.2395   -0.3362 H         1 UNL1        0.0000
     54 H           0.2580  -36.3183    1.3740 H         1 UNL1        0.0000
     55 H           0.0319  -37.3654    6.8685 H         1 UNL1        0.0000
@<TRIPOS>BOND
     1    1   18 1
     2    1   21 1
     3    1   17 am
     4    2   19 1
     5    2   20 1
     6    2   22 am
     7    3    4 1
     8    3   12 2
     9    4    5 am
    10    4   55 1
    11    5   29 2
    12    5    6 1
    13    6    7 ar
    14    6   11 ar
    15    7    8 ar
    16    7   33 1
    17    8   34 1
    18    8    9 ar
    19    9   10 ar
    20    9   35 1
    21   10   11 ar
    22   10   36 1
    23   11   12 1
    24   12   13 1
    25   13   37 1
    26   13   38 1
    27   13   14 1
    28   14   15 ar
    29   14   28 ar
    30   15   39 1
    31   15   16 ar
    32   16   26 ar
    33   16   17 1
    34   17   31 2
    35   18   19 1
    36   18   40 1
    37   18   41 1
    38   19   42 1
    39   19   43 1
    40   20   21 1
    41   20   45 1
    42   20   44 1
    43   21   46 1
    44   21   47 1
    45   22   30 2
    46   22   23 1
    47   23   25 1
    48   23   24 1
    49   23   48 1
    50   24   25 1
    51   24   49 1
    52   24   50 1
    53   25   51 1
    54   25   52 1
    55   26   27 ar
    56   26   32 1
    57   27   28 ar
    58   27   53 1
    59   28   54 1
@<TRIPOS>SUBSTRUCTURE
1 UNL1 1
@<TRIPOS>COMMENT
olaparib
PLANTSproteinTorsions
102
4661 91.6747
5386 170.5328
6210 73.0181
5890 274.0778
4461 334.5434
1390 1.2947
2824 153.9207
4339 353.6589
2732 148.4259
4792 83.0837
3407 129.8645
5134 136.1706
6916 181.9817
7370 115.3703
6038 288.2184
7225 121.6571
3592 220.8110
2064 208.7141
2488 10.8016
1253 57.0086
2069 287.1141
2569 239.9181
3058 40.6173
1748 94.8673
1162 83.3166
1509 163.4785
560 145.2697
1627 228.7878
1941 291.7704
3631 122.7305
2381 108.6555
4221 249.0966
4687 281.6007
6983 277.0439
6668 121.2958
7305 120.6334
8693 214.4456
8404 91.9694
9055 277.3165
7052 22.9082
4708 341.8652
2652 66.1405
4332 104.4182
3011 243.6555
2257 253.2336
2778 164.3632
2057 158.4188
192 100.5249
315 204.0227
1085 248.1890
1007 102.2699
1407 142.0767
4816 111.4044
3131 135.9237
4654 333.9327
5144 336.8048
117 289.4583
6 28.9919
259 111.5193
1979 161.9736
2609 48.6955
2623 71.8398
5910 186.7997
5937 103.0976
2062 160.5025
890 216.9875
5008 6.3553
8602 36.4361
8478 230.4302
8300 13.9299
7721 101.2879
8466 69.2039
7852 91.8371
5849 170.6539
6302 141.6029
7439 318.8112
6284 211.4175
6003 31.2920
7165 219.8235
7623 233.0353
8158 243.0506
8667 202.0030
9078 69.8424
8684 226.5603
7666 97.2056
4231 136.3768
1659 90.6278
489 177.8271
238 152.8275
46 111.4518
83 48.3723
254 174.5469
1066 218.7054
2112 89.9644
4047 264.8313
5402 239.1716
2544 161.1280
4670 42.2863
4426 121.6087
5656 57.9179
7040 333.3492
6282 197.0128
PLANTSmolcadARTstart hb
PLANTSmolcadARTstart HB
LINES
PLANTSmolcadARTstart HBCH
LINES
PLANTSmolcadARTstart HB-CHO
LINES
PLANTSmolcadARTend
PLANTSmolcadARTstart HB_WATER
LINES
PLANTSmolcadARTend

PLANTSmolcadARTend

