@<TRIPOS>MOLECULE
olaparib_entry_00001_conf_38
55 59 1
SMALL
NO_CHARGES


@<TRIPOS>ATOM
      1 N         -17.7081  -40.2973   -3.0285 N.am      1 UNL1        0.0000
      2 N         -17.6895  -37.8631   -2.1215 N.am      1 UNL1        0.0000
      3 N         -13.2773  -43.6075    0.5567 N.2       1 UNL1        0.0000
      4 N         -12.6314  -43.7155    1.6924 N.am      1 UNL1        0.0000
      5 C         -12.7498  -44.7729    2.5077 C.2       1 UNL1        0.0000
      6 C         -13.5915  -45.8027    2.1408 C.ar      1 UNL1        0.0000
      7 C         -13.7669  -46.9173    2.9618 C.ar      1 UNL1        0.0000
      8 C         -14.6293  -47.9242    2.5850 C.ar      1 UNL1        0.0000
      9 C         -15.2887  -47.7661    1.3844 C.ar      1 UNL1        0.0000
     10 C         -15.1245  -46.6654    0.5601 C.ar      1 UNL1        0.0000
     11 C         -14.2669  -45.6759    0.9410 C.ar      1 UNL1        0.0000
     12 C         -14.1296  -44.5867    0.1229 C.2       1 UNL1        0.0000
     13 C         -14.7332  -44.3741   -1.1861 C.3       1 UNL1        0.0000
     14 C         -16.1494  -43.9362   -1.0448 C.ar      1 UNL1        0.0000
     15 C         -16.5928  -43.0029   -1.9988 C.ar      1 UNL1        0.0000
     16 C         -17.8823  -42.5307   -1.9450 C.ar      1 UNL1        0.0000
     17 C         -18.3775  -41.5454   -2.9326 C.2       1 UNL1        0.0000
     18 C         -18.1535  -39.3236   -3.9723 C.3       1 UNL1        0.0000
     19 C         -17.8149  -37.9085   -3.5551 C.3       1 UNL1        0.0000
     20 C         -16.6249  -38.6741   -1.5208 C.3       1 UNL1        0.0000
     21 C         -16.5768  -40.0394   -2.1571 C.3       1 UNL1        0.0000
     22 C         -18.5327  -37.0898   -1.3182 C.2       1 UNL1        0.0000
     23 C         -19.6430  -36.2440   -1.7643 C.3       1 UNL1        0.0000
     24 C         -19.2974  -34.8097   -2.0955 C.3       1 UNL1        0.0000
     25 C         -20.1292  -35.1145   -0.9292 C.3       1 UNL1        0.0000
     26 C         -18.7907  -42.9249   -0.9914 C.ar      1 UNL1        0.0000
     27 C         -18.3556  -43.8384   -0.0581 C.ar      1 UNL1        0.0000
     28 C         -17.0402  -44.3216   -0.1094 C.ar      1 UNL1        0.0000
     29 O         -12.1379  -44.8951    3.5997 O.2       1 UNL1        0.0000
     30 O         -18.3300  -37.1096   -0.0518 O.2       1 UNL1        0.0000
     31 O         -19.3577  -41.7798   -3.6762 O.2       1 UNL1        0.0000
     32 F         -20.0609  -42.4257   -0.9799 F         1 UNL1        0.0000
     33 H         -13.2499  -46.9883    3.8521 H         1 UNL1        0.0000
     34 H         -14.7751  -48.7576    3.1746 H         1 UNL1        0.0000
     35 H         -15.9399  -48.5077    1.0843 H         1 UNL1        0.0000
     36 H         -15.6429  -46.5946   -0.3297 H         1 UNL1        0.0000
     37 H         -14.7010  -45.2881   -1.7415 H         1 UNL1        0.0000
     38 H         -14.1866  -43.6099   -1.6984 H         1 UNL1        0.0000
     39 H         -15.9516  -42.6734   -2.7369 H         1 UNL1        0.0000
     40 H         -19.2157  -39.4062   -4.0741 H         1 UNL1        0.0000
     41 H         -17.6512  -39.5170   -4.8976 H         1 UNL1        0.0000
     42 H         -18.5931  -37.2454   -3.8695 H         1 UNL1        0.0000
     43 H         -16.8942  -37.6070   -4.0100 H         1 UNL1        0.0000
     44 H         -16.8118  -38.7813   -0.4729 H         1 UNL1        0.0000
     45 H         -15.6859  -38.1863   -1.6804 H         1 UNL1        0.0000
     46 H         -16.5690  -40.7774   -1.3823 H         1 UNL1        0.0000
     47 H         -15.6934  -40.0825   -2.7579 H         1 UNL1        0.0000
     48 H         -20.1266  -37.0717   -2.2390 H         1 UNL1        0.0000
     49 H         -19.7304  -34.3393   -2.9537 H         1 UNL1        0.0000
     50 H         -18.3890  -34.2680   -2.2579 H         1 UNL1        0.0000
     51 H         -21.1678  -34.8571   -0.9365 H         1 UNL1        0.0000
     52 H         -20.0713  -34.8760    0.1115 H         1 UNL1        0.0000
     53 H         -18.9985  -44.1679    0.6797 H         1 UNL1        0.0000
     54 H         -16.7394  -45.0057    0.6026 H         1 UNL1        0.0000
     55 H         -12.0290  -42.9836    1.9593 H         1 UNL1        0.0000
@<TRIPOS>BOND
     1    1   18 1
     2    1   21 1
     3    1   17 am
     4    2   19 1
     5    2   20 1
     6    2   22 am
     7    3    4 1
     8    3   12 2
     9    4    5 am
    10    4   55 1
    11    5   29 2
    12    5    6 1
    13    6    7 ar
    14    6   11 ar
    15    7    8 ar
    16    7   33 1
    17    8   34 1
    18    8    9 ar
    19    9   10 ar
    20    9   35 1
    21   10   11 ar
    22   10   36 1
    23   11   12 1
    24   12   13 1
    25   13   37 1
    26   13   38 1
    27   13   14 1
    28   14   15 ar
    29   14   28 ar
    30   15   39 1
    31   15   16 ar
    32   16   26 ar
    33   16   17 1
    34   17   31 2
    35   18   19 1
    36   18   40 1
    37   18   41 1
    38   19   42 1
    39   19   43 1
    40   20   21 1
    41   20   45 1
    42   20   44 1
    43   21   46 1
    44   21   47 1
    45   22   30 2
    46   22   23 1
    47   23   25 1
    48   23   24 1
    49   23   48 1
    50   24   25 1
    51   24   49 1
    52   24   50 1
    53   25   51 1
    54   25   52 1
    55   26   27 ar
    56   26   32 1
    57   27   28 ar
    58   27   53 1
    59   28   54 1
@<TRIPOS>SUBSTRUCTURE
1 UNL1 1
@<TRIPOS>COMMENT
olaparib
PLANTSproteinTorsions
102
4661 176.1302
5386 253.4074
6210 212.4950
5890 312.4241
4461 16.3959
1390 22.8654
2824 240.7455
4339 264.0780
2732 78.4938
4792 357.2880
3407 46.7513
5134 38.3373
6916 106.2732
7370 104.1817
6038 108.4951
7225 229.4346
3592 176.7626
2064 279.8936
2488 245.4556
1253 183.6490
2069 283.0904
2569 266.1961
3058 233.8769
1748 122.6745
1162 216.1606
1509 193.0223
560 264.2493
1627 25.7391
1941 228.0949
3631 131.5151
2381 20.1238
4221 78.7896
4687 306.5984
6983 168.2590
6668 37.2860
7305 204.5842
8693 69.5694
8404 351.8799
9055 48.2600
7052 66.9951
4708 26.8858
2652 10.8360
4332 116.0093
3011 13.7443
2257 173.5313
2778 20.6465
2057 259.7031
192 1.0493
315 185.5566
1085 6.0134
1007 53.6486
1407 314.3635
4816 220.0925
3131 177.8759
4654 341.7828
5144 46.9253
117 170.1567
6 156.7379
259 37.9273
1979 232.8282
2609 171.5320
2623 49.3176
5910 127.8026
5937 47.1314
2062 267.0555
890 149.8451
5008 179.1319
8602 92.7448
8478 244.8586
8300 259.4872
7721 64.4670
8466 98.7292
7852 54.2625
5849 296.2406
6302 55.0028
7439 69.8441
6284 202.3128
6003 237.2293
7165 309.4177
7623 56.0238
8158 194.3875
8667 116.3951
9078 163.2024
8684 173.3970
7666 331.6806
4231 259.0905
1659 135.1193
489 204.5022
238 130.8941
46 165.7401
83 223.0894
254 252.1786
1066 265.6104
2112 204.3477
4047 95.7824
5402 115.4847
2544 82.8085
4670 100.1127
4426 101.7798
5656 175.2771
7040 188.3111
6282 170.1596
PLANTSmolcadARTstart hb
PLANTSmolcadARTstart HB
LINES
-12.029 -42.9836 1.95929 -11.156 -41.774 3.449 0 255 0 5
-19.3577 -41.7798 -3.6762 -18.868 -42.907 -5.352 0 255 0 5
PLANTSmolcadARTstart HBCH
LINES
PLANTSmolcadARTstart HB-CHO
LINES
PLANTSmolcadARTend
PLANTSmolcadARTstart HB_WATER
LINES
PLANTSmolcadARTend

PLANTSmolcadARTend

