@<TRIPOS>MOLECULE
olaparib_entry_00001_conf_72
55 59 1
SMALL
NO_CHARGES


@<TRIPOS>ATOM
      1 N         -23.9398  -35.3095    1.9173 N.am      1 UNL1        0.0000
      2 N         -21.5786  -36.2768    1.4303 N.am      1 UNL1        0.0000
      3 N         -24.9695  -28.2182    3.8018 N.2       1 UNL1        0.0000
      4 N         -25.8307  -27.2631    3.5474 N.am      1 UNL1        0.0000
      5 C         -25.9010  -26.6319    2.3670 C.2       1 UNL1        0.0000
      6 C         -25.0268  -26.9996    1.3648 C.ar      1 UNL1        0.0000
      7 C         -25.0436  -26.3616    0.1239 C.ar      1 UNL1        0.0000
      8 C         -24.1467  -26.7310   -0.8552 C.ar      1 UNL1        0.0000
      9 C         -23.2582  -27.7377   -0.5416 C.ar      1 UNL1        0.0000
     10 C         -23.2300  -28.3791    0.6855 C.ar      1 UNL1        0.0000
     11 C         -24.1235  -28.0078    1.6465 C.ar      1 UNL1        0.0000
     12 C         -24.0705  -28.6399    2.8599 C.2       1 UNL1        0.0000
     13 C         -23.2139  -29.7528    3.2477 C.3       1 UNL1        0.0000
     14 C         -24.0299  -30.9610    3.5505 C.ar      1 UNL1        0.0000
     15 C         -24.0236  -31.9598    2.5605 C.ar      1 UNL1        0.0000
     16 C         -24.7553  -33.1086    2.7440 C.ar      1 UNL1        0.0000
     17 C         -24.7717  -34.1765    1.7190 C.2       1 UNL1        0.0000
     18 C         -23.9321  -36.3620    0.9533 C.3       1 UNL1        0.0000
     19 C         -22.6284  -37.1309    0.9387 C.3       1 UNL1        0.0000
     20 C         -21.6972  -35.8063    2.8147 C.3       1 UNL1        0.0000
     21 C         -23.1103  -35.3710    3.1063 C.3       1 UNL1        0.0000
     22 C         -20.4873  -35.8991    0.6425 C.2       1 UNL1        0.0000
     23 C         -20.2359  -36.2723   -0.7520 C.3       1 UNL1        0.0000
     24 C         -19.2372  -37.3853   -0.9748 C.3       1 UNL1        0.0000
     25 C         -18.9166  -36.0171   -1.3875 C.3       1 UNL1        0.0000
     26 C         -25.5129  -33.3492    3.8656 C.ar      1 UNL1        0.0000
     27 C         -25.5184  -32.3708    4.8340 C.ar      1 UNL1        0.0000
     28 C         -24.7738  -31.1970    4.6496 C.ar      1 UNL1        0.0000
     29 O         -26.7205  -25.7148    2.1037 O.2       1 UNL1        0.0000
     30 O         -19.5998  -35.1443    1.1790 O.2       1 UNL1        0.0000
     31 O         -25.4902  -34.1089    0.6953 O.2       1 UNL1        0.0000
     32 F         -26.2232  -34.5068    4.0006 F         1 UNL1        0.0000
     33 H         -25.7289  -25.6126   -0.0615 H         1 UNL1        0.0000
     34 H         -24.1401  -26.2747   -1.7798 H         1 UNL1        0.0000
     35 H         -22.5774  -28.0285   -1.2599 H         1 UNL1        0.0000
     36 H         -22.5435  -29.1273    0.8706 H         1 UNL1        0.0000
     37 H         -22.6533  -29.4796    4.1172 H         1 UNL1        0.0000
     38 H         -22.5530  -29.9788    2.4368 H         1 UNL1        0.0000
     39 H         -23.4714  -31.8303    1.6986 H         1 UNL1        0.0000
     40 H         -24.0916  -35.9390   -0.0168 H         1 UNL1        0.0000
     41 H         -24.7097  -37.0485    1.2181 H         1 UNL1        0.0000
     42 H         -22.4038  -37.4383   -0.0609 H         1 UNL1        0.0000
     43 H         -22.7121  -37.9981    1.5603 H         1 UNL1        0.0000
     44 H         -21.0367  -34.9780    2.9635 H         1 UNL1        0.0000
     45 H         -21.4400  -36.6072    3.4760 H         1 UNL1        0.0000
     46 H         -23.0831  -34.3988    3.5528 H         1 UNL1        0.0000
     47 H         -23.5416  -36.0984    3.7606 H         1 UNL1        0.0000
     48 H         -21.2441  -36.0459   -1.0291 H         1 UNL1        0.0000
     49 H         -19.4284  -38.1363   -1.7129 H         1 UNL1        0.0000
     50 H         -18.7690  -38.1184   -0.3516 H         1 UNL1        0.0000
     51 H         -18.8665  -35.7750   -2.4286 H         1 UNL1        0.0000
     52 H         -18.1078  -35.3472   -1.1866 H         1 UNL1        0.0000
     53 H         -26.0709  -32.5019    5.6964 H         1 UNL1        0.0000
     54 H         -24.7955  -30.4792    5.3911 H         1 UNL1        0.0000
     55 H         -26.4574  -26.9966    4.2588 H         1 UNL1        0.0000
@<TRIPOS>BOND
     1    1   18 1
     2    1   21 1
     3    1   17 am
     4    2   19 1
     5    2   20 1
     6    2   22 am
     7    3    4 1
     8    3   12 2
     9    4    5 am
    10    4   55 1
    11    5   29 2
    12    5    6 1
    13    6    7 ar
    14    6   11 ar
    15    7    8 ar
    16    7   33 1
    17    8   34 1
    18    8    9 ar
    19    9   10 ar
    20    9   35 1
    21   10   11 ar
    22   10   36 1
    23   11   12 1
    24   12   13 1
    25   13   37 1
    26   13   38 1
    27   13   14 1
    28   14   15 ar
    29   14   28 ar
    30   15   39 1
    31   15   16 ar
    32   16   26 ar
    33   16   17 1
    34   17   31 2
    35   18   19 1
    36   18   40 1
    37   18   41 1
    38   19   42 1
    39   19   43 1
    40   20   21 1
    41   20   45 1
    42   20   44 1
    43   21   46 1
    44   21   47 1
    45   22   30 2
    46   22   23 1
    47   23   25 1
    48   23   24 1
    49   23   48 1
    50   24   25 1
    51   24   49 1
    52   24   50 1
    53   25   51 1
    54   25   52 1
    55   26   27 ar
    56   26   32 1
    57   27   28 ar
    58   27   53 1
    59   28   54 1
@<TRIPOS>SUBSTRUCTURE
1 UNL1 1
@<TRIPOS>COMMENT
olaparib
PLANTSproteinTorsions
102
4661 217.5452
5386 280.7425
6210 87.2434
5890 242.9548
4461 15.9488
1390 42.2831
2824 333.8699
4339 305.6798
2732 259.3813
4792 130.3191
3407 104.9197
5134 42.6989
6916 5.6728
7370 263.1073
6038 338.0780
7225 56.8527
3592 336.0062
2064 72.1255
2488 105.8777
1253 333.3424
2069 64.8854
2569 209.3577
3058 81.3754
1748 247.7553
1162 68.7023
1509 111.5367
560 123.5661
1627 180.6781
1941 166.5169
3631 342.3477
2381 240.4705
4221 270.0621
4687 197.7251
6983 240.9972
6668 320.5708
7305 14.2990
8693 211.6760
8404 247.1973
9055 182.6812
7052 225.5511
4708 131.9584
2652 172.9219
4332 227.7642
3011 313.2897
2257 123.2372
2778 76.5207
2057 286.2007
192 67.7858
315 129.9961
1085 208.3101
1007 220.6298
1407 233.1375
4816 47.3248
3131 278.5776
4654 276.4144
5144 157.1271
117 142.3446
6 169.7599
259 70.0688
1979 210.1494
2609 194.9068
2623 274.4223
5910 218.2668
5937 157.6888
2062 64.1422
890 284.3243
5008 64.6609
8602 82.6005
8478 331.2153
8300 188.3301
7721 196.4548
8466 238.9183
7852 221.2649
5849 247.5501
6302 258.4414
7439 230.2904
6284 130.7801
6003 184.0204
7165 36.4522
7623 6.7781
8158 141.3869
8667 75.5005
9078 115.7120
8684 146.7920
7666 156.9411
4231 11.0125
1659 21.3423
489 230.7417
238 35.0936
46 207.9521
83 344.4128
254 298.3065
1066 291.0005
2112 242.9209
4047 103.8142
5402 74.4053
2544 220.3881
4670 55.0069
4426 11.8432
5656 10.0301
7040 182.2884
6282 13.4656
PLANTSmolcadARTstart hb
PLANTSmolcadARTstart HB
LINES
PLANTSmolcadARTstart HBCH
LINES
PLANTSmolcadARTstart HB-CHO
LINES
PLANTSmolcadARTend
PLANTSmolcadARTstart HB_WATER
LINES
PLANTSmolcadARTend

PLANTSmolcadARTend

