@<TRIPOS>MOLECULE
olaparib_entry_00001_conf_78
55 59 1
SMALL
NO_CHARGES


@<TRIPOS>ATOM
      1 N         -18.0027  -40.7350    1.6471 N.am      1 UNL1        0.0000
      2 N         -19.8070  -42.5376    2.1405 N.am      1 UNL1        0.0000
      3 N         -16.7260  -41.6478   -5.2331 N.2       1 UNL1        0.0000
      4 N         -16.4493  -41.3765   -6.4854 N.am      1 UNL1        0.0000
      5 C         -15.3480  -41.8200   -7.1077 C.2       1 UNL1        0.0000
      6 C         -14.4561  -42.6011   -6.4019 C.ar      1 UNL1        0.0000
      7 C         -13.2844  -43.0723   -6.9953 C.ar      1 UNL1        0.0000
      8 C         -12.3975  -43.8332   -6.2646 C.ar      1 UNL1        0.0000
      9 C         -12.7288  -44.0906   -4.9511 C.ar      1 UNL1        0.0000
     10 C         -13.8876  -43.6291   -4.3493 C.ar      1 UNL1        0.0000
     11 C         -14.7598  -42.8792   -5.0820 C.ar      1 UNL1        0.0000
     12 C         -15.8920  -42.4163   -4.4669 C.2       1 UNL1        0.0000
     13 C         -16.3479  -42.6975   -3.1118 C.3       1 UNL1        0.0000
     14 C         -15.9209  -41.6167   -2.1808 C.ar      1 UNL1        0.0000
     15 C         -16.8783  -41.2247   -1.2282 C.ar      1 UNL1        0.0000
     16 C         -16.5811  -40.2268   -0.3311 C.ar      1 UNL1        0.0000
     17 C         -17.5688  -39.7896    0.6811 C.2       1 UNL1        0.0000
     18 C         -18.9505  -40.3493    2.6420 C.3       1 UNL1        0.0000
     19 C         -19.7664  -41.5165    3.1548 C.3       1 UNL1        0.0000
     20 C         -18.5276  -43.1422    1.7536 C.3       1 UNL1        0.0000
     21 C         -17.4669  -42.0827    1.5993 C.3       1 UNL1        0.0000
     22 C         -20.9988  -42.9495    1.5370 C.2       1 UNL1        0.0000
     23 C         -22.3449  -42.4355    1.8033 C.3       1 UNL1        0.0000
     24 C         -23.4179  -43.4720    2.0491 C.3       1 UNL1        0.0000
     25 C         -23.4528  -42.6519    0.8361 C.3       1 UNL1        0.0000
     26 C         -15.3733  -39.5706   -0.3058 C.ar      1 UNL1        0.0000
     27 C         -14.4370  -39.9551   -1.2387 C.ar      1 UNL1        0.0000
     28 C         -14.7373  -40.9722   -2.1561 C.ar      1 UNL1        0.0000
     29 O         -15.0661  -41.5716   -8.3080 O.2       1 UNL1        0.0000
     30 O         -20.9279  -43.8752    0.6519 O.2       1 UNL1        0.0000
     31 O         -18.0258  -38.6238    0.7086 O.2       1 UNL1        0.0000
     32 F         -15.1266  -38.5848    0.6053 F         1 UNL1        0.0000
     33 H         -13.0817  -42.8515   -7.9828 H         1 UNL1        0.0000
     34 H         -11.5256  -44.1930   -6.6812 H         1 UNL1        0.0000
     35 H         -12.0779  -44.6572   -4.3860 H         1 UNL1        0.0000
     36 H         -14.0891  -43.8494   -3.3613 H         1 UNL1        0.0000
     37 H         -15.9315  -43.6278   -2.7860 H         1 UNL1        0.0000
     38 H         -17.4168  -42.7495   -3.1109 H         1 UNL1        0.0000
     39 H         -17.8014  -41.6848   -1.2029 H         1 UNL1        0.0000
     40 H         -19.6157  -39.6255    2.2189 H         1 UNL1        0.0000
     41 H         -18.4041  -39.9478    3.4705 H         1 UNL1        0.0000
     42 H         -20.7606  -41.1900    3.3766 H         1 UNL1        0.0000
     43 H         -19.3202  -41.9072    4.0457 H         1 UNL1        0.0000
     44 H         -18.6476  -43.6571    0.8236 H         1 UNL1        0.0000
     45 H         -18.2226  -43.8263    2.5178 H         1 UNL1        0.0000
     46 H         -16.9795  -42.2219    0.6569 H         1 UNL1        0.0000
     47 H         -16.7879  -42.1867    2.4187 H         1 UNL1        0.0000
     48 H         -21.9532  -41.5696    2.2942 H         1 UNL1        0.0000
     49 H         -24.1438  -43.3184    2.8202 H         1 UNL1        0.0000
     50 H         -23.4233  -44.5221    2.2544 H         1 UNL1        0.0000
     51 H         -24.2113  -41.9058    0.7218 H         1 UNL1        0.0000
     52 H         -23.4995  -42.8683   -0.2100 H         1 UNL1        0.0000
     53 H         -13.5133  -39.4942   -1.2625 H         1 UNL1        0.0000
     54 H         -14.0174  -41.2411   -2.8454 H         1 UNL1        0.0000
     55 H         -17.0824  -40.8197   -6.9943 H         1 UNL1        0.0000
@<TRIPOS>BOND
     1    1   18 1
     2    1   21 1
     3    1   17 am
     4    2   19 1
     5    2   20 1
     6    2   22 am
     7    3    4 1
     8    3   12 2
     9    4    5 am
    10    4   55 1
    11    5   29 2
    12    5    6 1
    13    6    7 ar
    14    6   11 ar
    15    7    8 ar
    16    7   33 1
    17    8   34 1
    18    8    9 ar
    19    9   10 ar
    20    9   35 1
    21   10   11 ar
    22   10   36 1
    23   11   12 1
    24   12   13 1
    25   13   37 1
    26   13   38 1
    27   13   14 1
    28   14   15 ar
    29   14   28 ar
    30   15   39 1
    31   15   16 ar
    32   16   26 ar
    33   16   17 1
    34   17   31 2
    35   18   19 1
    36   18   40 1
    37   18   41 1
    38   19   42 1
    39   19   43 1
    40   20   21 1
    41   20   45 1
    42   20   44 1
    43   21   46 1
    44   21   47 1
    45   22   30 2
    46   22   23 1
    47   23   25 1
    48   23   24 1
    49   23   48 1
    50   24   25 1
    51   24   49 1
    52   24   50 1
    53   25   51 1
    54   25   52 1
    55   26   27 ar
    56   26   32 1
    57   27   28 ar
    58   27   53 1
    59   28   54 1
@<TRIPOS>SUBSTRUCTURE
1 UNL1 1
@<TRIPOS>COMMENT
olaparib
PLANTSproteinTorsions
102
4661 199.4555
5386 306.7557
6210 317.1334
5890 145.2049
4461 101.1048
1390 49.3400
2824 122.5913
4339 230.2624
2732 101.8902
4792 267.0106
3407 21.7576
5134 105.0020
6916 249.1876
7370 32.1506
6038 215.2495
7225 138.4246
3592 64.0271
2064 96.7691
2488 68.6013
1253 44.8022
2069 5.2738
2569 110.9572
3058 28.3311
1748 40.3689
1162 259.2596
1509 109.3159
560 264.7717
1627 153.2252
1941 220.4568
3631 162.4170
2381 97.1262
4221 224.8950
4687 262.4854
6983 301.5337
6668 348.2436
7305 299.9817
8693 30.6954
8404 329.1464
9055 341.6112
7052 54.9189
4708 38.1770
2652 210.4569
4332 305.9309
3011 147.6986
2257 345.0234
2778 227.7065
2057 170.2840
192 173.7004
315 221.5499
1085 168.0135
1007 88.5733
1407 268.3315
4816 259.6308
3131 215.5534
4654 216.7162
5144 221.0499
117 155.2551
6 75.5169
259 69.8766
1979 209.4011
2609 72.3255
2623 197.4818
5910 238.0750
5937 341.6521
2062 62.5103
890 178.8403
5008 147.4340
8602 18.2733
8478 90.6906
8300 83.6783
7721 223.7943
8466 2.1626
7852 3.2245
5849 124.5049
6302 297.9091
7439 353.9267
6284 220.0345
6003 334.8288
7165 25.7545
7623 273.3199
8158 298.2974
8667 155.5912
9078 79.6178
8684 356.9305
7666 303.1713
4231 101.8239
1659 26.9342
489 136.7102
238 113.0838
46 51.2871
83 127.7172
254 227.5325
1066 238.0107
2112 190.1877
4047 146.5126
5402 200.8480
2544 69.1931
4670 44.0684
4426 182.4479
5656 150.8064
7040 112.3999
6282 288.0452
PLANTSmolcadARTstart hb
PLANTSmolcadARTstart HB
LINES
PLANTSmolcadARTstart HBCH
LINES
PLANTSmolcadARTstart HB-CHO
LINES
PLANTSmolcadARTend
PLANTSmolcadARTstart HB_WATER
LINES
PLANTSmolcadARTend

PLANTSmolcadARTend

