@<TRIPOS>MOLECULE
olaparib_entry_00001_conf_54
55 59 1
SMALL
NO_CHARGES


@<TRIPOS>ATOM
      1 N         -16.5611  -42.4354   -2.5239 N.am      1 UNL1        0.0000
      2 N         -16.1881  -39.8671   -2.6373 N.am      1 UNL1        0.0000
      3 N         -12.2862  -44.6839    1.7463 N.2       1 UNL1        0.0000
      4 N         -11.5076  -44.3264    2.7386 N.am      1 UNL1        0.0000
      5 C         -11.6513  -44.7879    3.9889 C.2       1 UNL1        0.0000
      6 C         -12.6669  -45.6837    4.2529 C.ar      1 UNL1        0.0000
      7 C         -12.8735  -46.1799    5.5406 C.ar      1 UNL1        0.0000
      8 C         -13.9077  -47.0575    5.7853 C.ar      1 UNL1        0.0000
      9 C         -14.7020  -47.4027    4.7123 C.ar      1 UNL1        0.0000
     10 C         -14.5088  -46.9178    3.4296 C.ar      1 UNL1        0.0000
     11 C         -13.4810  -46.0520    3.1976 C.ar      1 UNL1        0.0000
     12 C         -13.3147  -45.5685    1.9275 C.2       1 UNL1        0.0000
     13 C         -14.0622  -45.9326    0.7310 C.3       1 UNL1        0.0000
     14 C         -15.3808  -45.2412    0.7065 C.ar      1 UNL1        0.0000
     15 C         -15.7569  -44.6980   -0.5349 C.ar      1 UNL1        0.0000
     16 C         -16.9527  -44.0314   -0.6552 C.ar      1 UNL1        0.0000
     17 C         -17.3749  -43.4457   -1.9475 C.2       1 UNL1        0.0000
     18 C         -16.9329  -41.8502   -3.7714 C.3       1 UNL1        0.0000
     19 C         -16.3975  -40.4445   -3.9395 C.3       1 UNL1        0.0000
     20 C         -15.2015  -40.5210   -1.7706 C.3       1 UNL1        0.0000
     21 C         -15.3598  -42.0187   -1.8246 C.3       1 UNL1        0.0000
     22 C         -16.8821  -38.7364   -2.1968 C.2       1 UNL1        0.0000
     23 C         -17.9010  -37.9849   -2.9346 C.3       1 UNL1        0.0000
     24 C         -17.4430  -36.6958   -3.5785 C.3       1 UNL1        0.0000
     25 C         -18.3775  -36.6625   -2.4512 C.3       1 UNL1        0.0000
     26 C         -17.8282  -43.8584    0.3905 C.ar      1 UNL1        0.0000
     27 C         -17.4590  -44.3905    1.6052 C.ar      1 UNL1        0.0000
     28 C         -16.2392  -45.0703    1.7317 C.ar      1 UNL1        0.0000
     29 O         -10.9141  -44.4579    4.9530 O.2       1 UNL1        0.0000
     30 O         -16.6136  -38.2937   -1.0233 O.2       1 UNL1        0.0000
     31 O         -18.4165  -43.8124   -2.5386 O.2       1 UNL1        0.0000
     32 F         -19.0045  -43.1875    0.2203 F         1 UNL1        0.0000
     33 H         -12.2508  -45.8902    6.3108 H         1 UNL1        0.0000
     34 H         -14.0800  -47.4380    6.7281 H         1 UNL1        0.0000
     35 H         -15.4826  -48.0573    4.8741 H         1 UNL1        0.0000
     36 H         -15.1327  -47.2072    2.6599 H         1 UNL1        0.0000
     37 H         -14.2194  -46.9910    0.7222 H         1 UNL1        0.0000
     38 H         -13.5016  -45.6343   -0.1305 H         1 UNL1        0.0000
     39 H         -15.1366  -44.7994   -1.3532 H         1 UNL1        0.0000
     40 H         -18.0012  -41.8196   -3.8304 H         1 UNL1        0.0000
     41 H         -16.5109  -42.4524   -4.5494 H         1 UNL1        0.0000
     42 H         -17.1030  -39.8543   -4.4856 H         1 UNL1        0.0000
     43 H         -15.4731  -40.4707   -4.4782 H         1 UNL1        0.0000
     44 H         -15.3419  -40.1890   -0.7633 H         1 UNL1        0.0000
     45 H         -14.2193  -40.2659   -2.1099 H         1 UNL1        0.0000
     46 H         -15.4014  -42.3943   -0.8234 H         1 UNL1        0.0000
     47 H         -14.5234  -42.4106   -2.3632 H         1 UNL1        0.0000
     48 H         -18.3980  -38.8848   -3.2305 H         1 UNL1        0.0000
     49 H         -17.7802  -36.4391   -4.5612 H         1 UNL1        0.0000
     50 H         -16.4931  -36.2505   -3.7890 H         1 UNL1        0.0000
     51 H         -19.3946  -36.3725   -2.6138 H         1 UNL1        0.0000
     52 H         -18.3833  -36.1723   -1.5010 H         1 UNL1        0.0000
     53 H         -18.0810  -44.2889    2.4231 H         1 UNL1        0.0000
     54 H         -15.9862  -45.4594    2.6538 H         1 UNL1        0.0000
     55 H         -10.7807  -43.6875    2.5560 H         1 UNL1        0.0000
@<TRIPOS>BOND
     1    1   18 1
     2    1   21 1
     3    1   17 am
     4    2   19 1
     5    2   20 1
     6    2   22 am
     7    3    4 1
     8    3   12 2
     9    4    5 am
    10    4   55 1
    11    5   29 2
    12    5    6 1
    13    6    7 ar
    14    6   11 ar
    15    7    8 ar
    16    7   33 1
    17    8   34 1
    18    8    9 ar
    19    9   10 ar
    20    9   35 1
    21   10   11 ar
    22   10   36 1
    23   11   12 1
    24   12   13 1
    25   13   37 1
    26   13   38 1
    27   13   14 1
    28   14   15 ar
    29   14   28 ar
    30   15   39 1
    31   15   16 ar
    32   16   26 ar
    33   16   17 1
    34   17   31 2
    35   18   19 1
    36   18   40 1
    37   18   41 1
    38   19   42 1
    39   19   43 1
    40   20   21 1
    41   20   45 1
    42   20   44 1
    43   21   46 1
    44   21   47 1
    45   22   30 2
    46   22   23 1
    47   23   25 1
    48   23   24 1
    49   23   48 1
    50   24   25 1
    51   24   49 1
    52   24   50 1
    53   25   51 1
    54   25   52 1
    55   26   27 ar
    56   26   32 1
    57   27   28 ar
    58   27   53 1
    59   28   54 1
@<TRIPOS>SUBSTRUCTURE
1 UNL1 1
@<TRIPOS>COMMENT
olaparib
PLANTSproteinTorsions
102
4661 29.8667
5386 213.9929
6210 74.2605
5890 105.4533
4461 14.3434
1390 8.3385
2824 230.4996
4339 6.4161
2732 32.8474
4792 248.6496
3407 18.1294
5134 329.2443
6916 221.1687
7370 260.7101
6038 219.0032
7225 313.0934
3592 323.3821
2064 138.3217
2488 218.6097
1253 33.7445
2069 238.7441
2569 97.7683
3058 84.9279
1748 343.0340
1162 136.6175
1509 275.0012
560 266.7439
1627 288.1373
1941 230.4019
3631 215.2780
2381 296.3715
4221 164.0839
4687 183.8608
6983 41.6447
6668 27.0543
7305 75.1181
8693 124.3988
8404 39.8314
9055 57.1695
7052 50.9929
4708 7.7124
2652 72.7616
4332 250.8414
3011 104.9543
2257 193.1374
2778 220.0339
2057 227.8883
192 125.0316
315 190.7159
1085 217.7170
1007 46.2386
1407 25.1347
4816 4.8201
3131 208.3779
4654 187.7366
5144 245.6068
117 237.6486
6 178.0520
259 64.4466
1979 238.8192
2609 46.3480
2623 209.5327
5910 265.6837
5937 22.6991
2062 293.1591
890 216.5690
5008 167.3530
8602 152.6544
8478 107.3164
8300 30.0564
7721 35.8897
8466 15.9127
7852 164.2090
5849 131.8025
6302 341.1014
7439 75.1248
6284 306.3801
6003 56.4012
7165 235.9684
7623 265.7278
8158 268.7520
8667 146.6722
9078 137.5734
8684 196.6382
7666 196.7323
4231 241.6983
1659 156.1064
489 271.7294
238 15.1644
46 158.0831
83 83.8743
254 268.5999
1066 173.6888
2112 213.3553
4047 192.3867
5402 245.7178
2544 50.2607
4670 80.1164
4426 228.2925
5656 225.5048
7040 119.6705
6282 291.8535
PLANTSmolcadARTstart hb
PLANTSmolcadARTstart HB
LINES
-10.7807 -43.6875 2.55604 -9.504 -43.948 1.359 0 255 0 5
-10.9141 -44.4579 4.95298 -9.272 -43.194 4.275 0 255 0 5
PLANTSmolcadARTstart HBCH
LINES
PLANTSmolcadARTstart HB-CHO
LINES
PLANTSmolcadARTend
PLANTSmolcadARTstart HB_WATER
LINES
PLANTSmolcadARTend

PLANTSmolcadARTend

