@<TRIPOS>MOLECULE
olaparib_entry_00001_conf_71
55 59 1
SMALL
NO_CHARGES


@<TRIPOS>ATOM
      1 N         -23.2867  -35.5072    1.3611 N.am      1 UNL1        0.0000
      2 N         -20.8122  -35.3509    0.5859 N.am      1 UNL1        0.0000
      3 N         -22.0430  -31.2591    3.4919 N.2       1 UNL1        0.0000
      4 N         -21.0724  -31.3362    4.3697 N.am      1 UNL1        0.0000
      5 C         -20.8527  -30.4029    5.3065 C.2       1 UNL1        0.0000
      6 C         -21.6848  -29.3034    5.3558 C.ar      1 UNL1        0.0000
      7 C         -21.4886  -28.2929    6.2978 C.ar      1 UNL1        0.0000
      8 C         -22.3192  -27.1932    6.3147 C.ar      1 UNL1        0.0000
      9 C         -23.3240  -27.1540    5.3712 C.ar      1 UNL1        0.0000
     10 C         -23.5300  -28.1493    4.4305 C.ar      1 UNL1        0.0000
     11 C         -22.7040  -29.2344    4.4240 C.ar      1 UNL1        0.0000
     12 C         -22.9106  -30.2007    3.4763 C.2       1 UNL1        0.0000
     13 C         -23.9839  -30.2690    2.4932 C.3       1 UNL1        0.0000
     14 C         -24.7680  -31.5238    2.6603 C.ar      1 UNL1        0.0000
     15 C         -24.3411  -32.6131    1.8800 C.ar      1 UNL1        0.0000
     16 C         -25.0083  -33.8121    1.9570 C.ar      1 UNL1        0.0000
     17 C         -24.5854  -34.9760    1.1459 C.2       1 UNL1        0.0000
     18 C         -22.8450  -36.6320    0.6016 C.3       1 UNL1        0.0000
     19 C         -21.3392  -36.6847    0.4582 C.3       1 UNL1        0.0000
     20 C         -21.0226  -34.6726    1.8695 C.3       1 UNL1        0.0000
     21 C         -22.4321  -34.8885    2.3573 C.3       1 UNL1        0.0000
     22 C         -20.1292  -34.7109   -0.4523 C.2       1 UNL1        0.0000
     23 C         -19.8535  -35.2469   -1.7879 C.3       1 UNL1        0.0000
     24 C         -18.6671  -36.1773   -1.9012 C.3       1 UNL1        0.0000
     25 C         -18.6275  -34.8562   -2.5323 C.3       1 UNL1        0.0000
     26 C         -26.0961  -34.0189    2.7718 C.ar      1 UNL1        0.0000
     27 C         -26.5131  -32.9520    3.5351 C.ar      1 UNL1        0.0000
     28 C         -25.8352  -31.7269    3.4582 C.ar      1 UNL1        0.0000
     29 O         -19.9283  -30.4598    6.1574 O.2       1 UNL1        0.0000
     30 O         -19.6891  -33.5262   -0.2329 O.2       1 UNL1        0.0000
     31 O         -25.3321  -35.4981    0.2865 O.2       1 UNL1        0.0000
     32 F         -26.7256  -35.2292    2.8123 F         1 UNL1        0.0000
     33 H         -20.7209  -28.3691    6.9833 H         1 UNL1        0.0000
     34 H         -22.1944  -26.4341    7.0013 H         1 UNL1        0.0000
     35 H         -23.9562  -26.3389    5.3656 H         1 UNL1        0.0000
     36 H         -24.2972  -28.0718    3.7444 H         1 UNL1        0.0000
     37 H         -23.5628  -30.2452    1.5098 H         1 UNL1        0.0000
     38 H         -24.6373  -29.4337    2.6367 H         1 UNL1        0.0000
     39 H         -23.5293  -32.5124    1.2511 H         1 UNL1        0.0000
     40 H         -23.2808  -36.5786   -0.3745 H         1 UNL1        0.0000
     41 H         -23.1514  -37.5149    1.1237 H         1 UNL1        0.0000
     42 H         -21.0833  -37.0823   -0.5013 H         1 UNL1        0.0000
     43 H         -20.9244  -37.3134    1.2186 H         1 UNL1        0.0000
     44 H         -20.8501  -33.6240    1.7468 H         1 UNL1        0.0000
     45 H         -20.3429  -35.0768    2.5904 H         1 UNL1        0.0000
     46 H         -22.8508  -33.9402    2.6230 H         1 UNL1        0.0000
     47 H         -22.3839  -35.5518    3.1945 H         1 UNL1        0.0000
     48 H         -20.8943  -35.2573   -2.0349 H         1 UNL1        0.0000
     49 H         -18.7332  -37.0577   -2.5060 H         1 UNL1        0.0000
     50 H         -18.0483  -36.7034   -1.2046 H         1 UNL1        0.0000
     51 H         -18.6565  -34.7767   -3.5990 H         1 UNL1        0.0000
     52 H         -17.9565  -34.0253   -2.4825 H         1 UNL1        0.0000
     53 H         -27.3253  -33.0543    4.1645 H         1 UNL1        0.0000
     54 H         -26.1687  -30.9428    4.0409 H         1 UNL1        0.0000
     55 H         -20.4755  -32.1189    4.3395 H         1 UNL1        0.0000
@<TRIPOS>BOND
     1    1   18 1
     2    1   21 1
     3    1   17 am
     4    2   19 1
     5    2   20 1
     6    2   22 am
     7    3    4 1
     8    3   12 2
     9    4    5 am
    10    4   55 1
    11    5   29 2
    12    5    6 1
    13    6    7 ar
    14    6   11 ar
    15    7    8 ar
    16    7   33 1
    17    8   34 1
    18    8    9 ar
    19    9   10 ar
    20    9   35 1
    21   10   11 ar
    22   10   36 1
    23   11   12 1
    24   12   13 1
    25   13   37 1
    26   13   38 1
    27   13   14 1
    28   14   15 ar
    29   14   28 ar
    30   15   39 1
    31   15   16 ar
    32   16   26 ar
    33   16   17 1
    34   17   31 2
    35   18   19 1
    36   18   40 1
    37   18   41 1
    38   19   42 1
    39   19   43 1
    40   20   21 1
    41   20   45 1
    42   20   44 1
    43   21   46 1
    44   21   47 1
    45   22   30 2
    46   22   23 1
    47   23   25 1
    48   23   24 1
    49   23   48 1
    50   24   25 1
    51   24   49 1
    52   24   50 1
    53   25   51 1
    54   25   52 1
    55   26   27 ar
    56   26   32 1
    57   27   28 ar
    58   27   53 1
    59   28   54 1
@<TRIPOS>SUBSTRUCTURE
1 UNL1 1
@<TRIPOS>COMMENT
olaparib
PLANTSproteinTorsions
102
4661 137.9185
5386 140.3775
6210 2.4081
5890 114.1505
4461 358.4019
1390 89.9553
2824 355.2820
4339 120.5402
2732 111.0205
4792 88.8580
3407 214.1623
5134 163.8030
6916 24.4734
7370 197.2684
6038 76.5356
7225 16.0364
3592 254.0860
2064 208.1659
2488 140.3783
1253 15.4544
2069 126.3478
2569 24.9754
3058 177.9891
1748 293.9274
1162 298.3977
1509 169.7909
560 231.1475
1627 84.2954
1941 194.1389
3631 20.2122
2381 50.9084
4221 133.3268
4687 233.4361
6983 200.6014
6668 141.9704
7305 235.9374
8693 43.4024
8404 138.1702
9055 78.0842
7052 200.0869
4708 139.1599
2652 320.2136
4332 174.3125
3011 69.6191
2257 176.3233
2778 12.3190
2057 82.0400
192 153.1302
315 146.1567
1085 70.4096
1007 322.9362
1407 94.1937
4816 66.0148
3131 335.1178
4654 3.0168
5144 23.0729
117 141.4152
6 102.7057
259 176.5139
1979 349.6242
2609 349.1494
2623 2.2978
5910 222.9016
5937 211.2636
2062 74.5013
890 201.8767
5008 136.3233
8602 108.2820
8478 242.3571
8300 111.4073
7721 141.7813
8466 327.7733
7852 246.4722
5849 275.2569
6302 192.8743
7439 291.2938
6284 309.8338
6003 242.2837
7165 248.0724
7623 224.4365
8158 113.3481
8667 215.3472
9078 135.9825
8684 91.5959
7666 133.0893
4231 254.0831
1659 190.2417
489 266.2966
238 97.5307
46 224.5216
83 90.5760
254 133.4314
1066 201.7796
2112 138.6127
4047 81.7282
5402 189.9962
2544 53.6095
4670 47.6732
4426 37.1982
5656 280.2274
7040 65.6648
6282 232.8288
PLANTSmolcadARTstart hb
PLANTSmolcadARTstart HB
LINES
PLANTSmolcadARTstart HBCH
LINES
PLANTSmolcadARTstart HB-CHO
LINES
PLANTSmolcadARTend
PLANTSmolcadARTstart HB_WATER
LINES
PLANTSmolcadARTend

PLANTSmolcadARTend

