@<TRIPOS>MOLECULE
olaparib_entry_00001_conf_23
55 59 1
SMALL
NO_CHARGES


@<TRIPOS>ATOM
      1 N         -23.3638  -72.4306    8.4092 N.am      1 UNL1        0.0000
      2 N         -25.6336  -73.5131    7.7576 N.am      1 UNL1        0.0000
      3 N         -23.8467  -74.2539   13.6926 N.2       1 UNL1        0.0000
      4 N         -25.0414  -74.6362   14.0735 N.am      1 UNL1        0.0000
      5 C         -25.2597  -75.7208   14.8304 C.2       1 UNL1        0.0000
      6 C         -24.1786  -76.4780   15.2323 C.ar      1 UNL1        0.0000
      7 C         -24.3510  -77.6277   16.0041 C.ar      1 UNL1        0.0000
      8 C         -23.2582  -78.3805   16.3761 C.ar      1 UNL1        0.0000
      9 C         -22.0223  -77.9417   15.9502 C.ar      1 UNL1        0.0000
     10 C         -21.8366  -76.8033   15.1838 C.ar      1 UNL1        0.0000
     11 C         -22.9244  -76.0640   14.8233 C.ar      1 UNL1        0.0000
     12 C         -22.7248  -74.9513   14.0509 C.2       1 UNL1        0.0000
     13 C         -21.4546  -74.3836   13.6180 C.3       1 UNL1        0.0000
     14 C         -21.6809  -73.1968   12.7477 C.ar      1 UNL1        0.0000
     15 C         -21.7948  -73.4672   11.3723 C.ar      1 UNL1        0.0000
     16 C         -21.9945  -72.4351   10.4871 C.ar      1 UNL1        0.0000
     17 C         -22.1149  -72.6871    9.0334 C.2       1 UNL1        0.0000
     18 C         -23.5171  -72.6569    7.0084 C.3       1 UNL1        0.0000
     19 C         -24.9482  -72.9591    6.6190 C.3       1 UNL1        0.0000
     20 C         -25.7617  -72.6539    8.9396 C.3       1 UNL1        0.0000
     21 C         -24.4642  -71.9396    9.2178 C.3       1 UNL1        0.0000
     22 C         -26.1599  -74.8081    7.7601 C.2       1 UNL1        0.0000
     23 C         -26.1005  -75.7856    6.6701 C.3       1 UNL1        0.0000
     24 C         -26.5053  -75.2845    5.3022 C.3       1 UNL1        0.0000
     25 C         -27.3391  -76.2644    6.0020 C.3       1 UNL1        0.0000
     26 C         -22.0934  -71.1192   10.8727 C.ar      1 UNL1        0.0000
     27 C         -21.9817  -70.8557   12.2192 C.ar      1 UNL1        0.0000
     28 C         -21.7769  -71.9063   13.1250 C.ar      1 UNL1        0.0000
     29 O         -26.3975  -76.1025   15.2067 O.2       1 UNL1        0.0000
     30 O         -26.7628  -75.2027    8.8212 O.2       1 UNL1        0.0000
     31 O         -21.1577  -73.1145    8.3480 O.2       1 UNL1        0.0000
     32 F         -22.2914  -70.1293    9.9542 F         1 UNL1        0.0000
     33 H         -25.2980  -77.9145   16.2975 H         1 UNL1        0.0000
     34 H         -23.3603  -79.2335   16.9464 H         1 UNL1        0.0000
     35 H         -21.1912  -78.4916   16.2166 H         1 UNL1        0.0000
     36 H         -20.8893  -76.5177   14.8898 H         1 UNL1        0.0000
     37 H         -20.9069  -75.1223   13.0707 H         1 UNL1        0.0000
     38 H         -20.9015  -74.0765   14.4812 H         1 UNL1        0.0000
     39 H         -21.7282  -74.4378   11.0287 H         1 UNL1        0.0000
     40 H         -22.9025  -73.4864    6.7263 H         1 UNL1        0.0000
     41 H         -23.2268  -71.7593    6.5023 H         1 UNL1        0.0000
     42 H         -24.9603  -73.6635    5.8140 H         1 UNL1        0.0000
     43 H         -25.4357  -72.0600    6.3037 H         1 UNL1        0.0000
     44 H         -26.0204  -73.2548    9.7861 H         1 UNL1        0.0000
     45 H         -26.5239  -71.9253    8.7573 H         1 UNL1        0.0000
     46 H         -24.2145  -72.0739   10.2497 H         1 UNL1        0.0000
     47 H         -24.6065  -70.9086    8.9729 H         1 UNL1        0.0000
     48 H         -25.2643  -76.2818    7.1161 H         1 UNL1        0.0000
     49 H         -25.9462  -75.5773    4.4379 H         1 UNL1        0.0000
     50 H         -26.6711  -74.3210    4.8674 H         1 UNL1        0.0000
     51 H         -27.3927  -77.2700    5.6402 H         1 UNL1        0.0000
     52 H         -28.3708  -76.3031    6.2803 H         1 UNL1        0.0000
     53 H         -22.0492  -69.8839   12.5618 H         1 UNL1        0.0000
     54 H         -21.6962  -71.6812   14.1292 H         1 UNL1        0.0000
     55 H         -25.8169  -74.0994   13.7900 H         1 UNL1        0.0000
@<TRIPOS>BOND
     1    1   18 1
     2    1   21 1
     3    1   17 am
     4    2   19 1
     5    2   20 1
     6    2   22 am
     7    3    4 1
     8    3   12 2
     9    4    5 am
    10    4   55 1
    11    5   29 2
    12    5    6 1
    13    6    7 ar
    14    6   11 ar
    15    7    8 ar
    16    7   33 1
    17    8   34 1
    18    8    9 ar
    19    9   10 ar
    20    9   35 1
    21   10   11 ar
    22   10   36 1
    23   11   12 1
    24   12   13 1
    25   13   37 1
    26   13   38 1
    27   13   14 1
    28   14   15 ar
    29   14   28 ar
    30   15   39 1
    31   15   16 ar
    32   16   26 ar
    33   16   17 1
    34   17   31 2
    35   18   19 1
    36   18   40 1
    37   18   41 1
    38   19   42 1
    39   19   43 1
    40   20   21 1
    41   20   45 1
    42   20   44 1
    43   21   46 1
    44   21   47 1
    45   22   30 2
    46   22   23 1
    47   23   25 1
    48   23   24 1
    49   23   48 1
    50   24   25 1
    51   24   49 1
    52   24   50 1
    53   25   51 1
    54   25   52 1
    55   26   27 ar
    56   26   32 1
    57   27   28 ar
    58   27   53 1
    59   28   54 1
@<TRIPOS>SUBSTRUCTURE
1 UNL1 1
@<TRIPOS>COMMENT
olaparib
PLANTSproteinTorsions
102
4661 91.7573
5386 12.4572
6210 0.1130
5890 3.9572
4461 5.6607
1390 28.7891
2824 77.6502
4339 164.2786
2732 48.2600
4792 172.9328
3407 37.5242
5134 149.8293
6916 91.5598
7370 354.8444
6038 150.4980
7225 117.8737
3592 64.6978
2064 192.3298
2488 347.6609
1253 3.0102
2069 26.8438
2569 7.3470
3058 60.5265
1748 144.7606
1162 332.8627
1509 85.3430
560 194.7881
1627 133.7351
1941 297.7026
3631 241.0301
2381 263.1155
4221 38.7869
4687 80.5547
6983 306.2052
6668 143.3677
7305 97.2394
8693 157.9506
8404 25.0793
9055 248.1454
7052 59.7732
4708 65.9564
2652 197.7469
4332 212.6083
3011 185.9394
2257 223.4799
2778 105.0083
2057 351.7823
192 197.7274
315 86.1132
1085 269.7466
1007 55.6922
1407 242.8240
4816 201.2448
3131 268.6360
4654 189.6832
5144 293.0936
117 209.3701
6 247.0279
259 79.4989
1979 250.1389
2609 219.1758
2623 231.1942
5910 300.2009
5937 116.2847
2062 269.3565
890 167.7683
5008 195.2191
8602 96.6206
8478 268.5047
8300 234.8161
7721 282.9848
8466 311.7031
7852 226.7316
5849 150.0372
6302 155.0652
7439 163.9910
6284 256.4417
6003 112.0435
7165 267.2907
7623 272.8897
8158 231.2120
8667 17.8474
9078 207.7235
8684 194.9395
7666 192.2004
4231 275.1945
1659 168.4080
489 260.1332
238 262.9651
46 105.6189
83 162.6795
254 266.8644
1066 196.7942
2112 71.8265
4047 96.3003
5402 265.9777
2544 49.4773
4670 244.3629
4426 243.6200
5656 235.4474
7040 181.1589
6282 71.9470
PLANTSmolcadARTstart hb
PLANTSmolcadARTstart HB
LINES
PLANTSmolcadARTstart HBCH
LINES
PLANTSmolcadARTstart HB-CHO
LINES
PLANTSmolcadARTend
PLANTSmolcadARTstart HB_WATER
LINES
PLANTSmolcadARTend

PLANTSmolcadARTend

