@<TRIPOS>MOLECULE
olaparib_entry_00001_conf_33
55 59 1
SMALL
NO_CHARGES


@<TRIPOS>ATOM
      1 N           2.0775  -67.0763    5.0354 N.am      1 UNL1        0.0000
      2 N           3.9938  -65.7060    6.1302 N.am      1 UNL1        0.0000
      3 N          -3.9488  -63.3586    4.1243 N.2       1 UNL1        0.0000
      4 N          -4.1442  -62.1024    4.4444 N.am      1 UNL1        0.0000
      5 C          -3.7036  -61.5579    5.5873 C.2       1 UNL1        0.0000
      6 C          -3.0095  -62.3524    6.4764 C.ar      1 UNL1        0.0000
      7 C          -2.5460  -61.8415    7.6894 C.ar      1 UNL1        0.0000
      8 C          -1.8736  -62.6593    8.5718 C.ar      1 UNL1        0.0000
      9 C          -1.6941  -63.9732    8.1941 C.ar      1 UNL1        0.0000
     10 C          -2.1488  -64.4936    6.9940 C.ar      1 UNL1        0.0000
     11 C          -2.8108  -63.6753    6.1268 C.ar      1 UNL1        0.0000
     12 C          -3.2691  -64.2100    4.9526 C.2       1 UNL1        0.0000
     13 C          -3.0637  -65.5620    4.4496 C.3       1 UNL1        0.0000
     14 C          -1.8552  -65.6199    3.5816 C.ar      1 UNL1        0.0000
     15 C          -0.8110  -66.4366    4.0509 C.ar      1 UNL1        0.0000
     16 C           0.3503  -66.5464    3.3242 C.ar      1 UNL1        0.0000
     17 C           1.4686  -67.3953    3.7935 C.2       1 UNL1        0.0000
     18 C           3.1554  -67.8745    5.5233 C.3       1 UNL1        0.0000
     19 C           4.0783  -67.1081    6.4463 C.3       1 UNL1        0.0000
     20 C           2.6900  -65.0597    6.3158 C.3       1 UNL1        0.0000
     21 C           1.5846  -65.9363    5.7859 C.3       1 UNL1        0.0000
     22 C           5.0901  -64.9738    5.6652 C.2       1 UNL1        0.0000
     23 C           6.4439  -65.4762    5.4166 C.3       1 UNL1        0.0000
     24 C           7.3708  -65.5142    6.6105 C.3       1 UNL1        0.0000
     25 C           7.6243  -64.5778    5.5132 C.3       1 UNL1        0.0000
     26 C           0.5603  -65.8904    2.1345 C.ar      1 UNL1        0.0000
     27 C          -0.4624  -65.0912    1.6760 C.ar      1 UNL1        0.0000
     28 C          -1.6482  -64.9761    2.4155 C.ar      1 UNL1        0.0000
     29 O          -3.8799  -60.3555    5.9112 O.2       1 UNL1        0.0000
     30 O           4.9126  -63.7267    5.4234 O.2       1 UNL1        0.0000
     31 O           1.8864  -68.3744    3.1337 O.2       1 UNL1        0.0000
     32 F           1.7326  -66.0316    1.4499 F         1 UNL1        0.0000
     33 H          -2.7063  -60.8499    7.9261 H         1 UNL1        0.0000
     34 H          -1.5213  -62.3046    9.4737 H         1 UNL1        0.0000
     35 H          -1.1943  -64.6026    8.8407 H         1 UNL1        0.0000
     36 H          -1.9892  -65.4858    6.7585 H         1 UNL1        0.0000
     37 H          -3.9199  -65.8603    3.8814 H         1 UNL1        0.0000
     38 H          -2.9222  -66.2218    5.2803 H         1 UNL1        0.0000
     39 H          -0.9163  -66.9518    4.9387 H         1 UNL1        0.0000
     40 H           3.7231  -68.2303    4.6887 H         1 UNL1        0.0000
     41 H           2.7316  -68.6807    6.0859 H         1 UNL1        0.0000
     42 H           5.0838  -67.4474    6.3117 H         1 UNL1        0.0000
     43 H           3.7887  -67.2691    7.4640 H         1 UNL1        0.0000
     44 H           2.6808  -64.1272    5.7914 H         1 UNL1        0.0000
     45 H           2.5297  -64.8970    7.3612 H         1 UNL1        0.0000
     46 H           0.9615  -65.3498    5.1434 H         1 UNL1        0.0000
     47 H           1.0448  -66.3158    6.6272 H         1 UNL1        0.0000
     48 H           6.0911  -66.1522    4.6663 H         1 UNL1        0.0000
     49 H           8.0185  -66.3531    6.7588 H         1 UNL1        0.0000
     50 H           7.2455  -65.4249    7.6694 H         1 UNL1        0.0000
     51 H           8.4634  -64.7320    4.8673 H         1 UNL1        0.0000
     52 H           7.7644  -63.5195    5.4526 H         1 UNL1        0.0000
     53 H          -0.3560  -64.5766    0.7871 H         1 UNL1        0.0000
     54 H          -2.3993  -64.3699    2.0494 H         1 UNL1        0.0000
     55 H          -4.6387  -61.5304    3.8134 H         1 UNL1        0.0000
@<TRIPOS>BOND
     1    1   18 1
     2    1   21 1
     3    1   17 am
     4    2   19 1
     5    2   20 1
     6    2   22 am
     7    3    4 1
     8    3   12 2
     9    4    5 am
    10    4   55 1
    11    5   29 2
    12    5    6 1
    13    6    7 ar
    14    6   11 ar
    15    7    8 ar
    16    7   33 1
    17    8   34 1
    18    8    9 ar
    19    9   10 ar
    20    9   35 1
    21   10   11 ar
    22   10   36 1
    23   11   12 1
    24   12   13 1
    25   13   37 1
    26   13   38 1
    27   13   14 1
    28   14   15 ar
    29   14   28 ar
    30   15   39 1
    31   15   16 ar
    32   16   26 ar
    33   16   17 1
    34   17   31 2
    35   18   19 1
    36   18   40 1
    37   18   41 1
    38   19   42 1
    39   19   43 1
    40   20   21 1
    41   20   45 1
    42   20   44 1
    43   21   46 1
    44   21   47 1
    45   22   30 2
    46   22   23 1
    47   23   25 1
    48   23   24 1
    49   23   48 1
    50   24   25 1
    51   24   49 1
    52   24   50 1
    53   25   51 1
    54   25   52 1
    55   26   27 ar
    56   26   32 1
    57   27   28 ar
    58   27   53 1
    59   28   54 1
@<TRIPOS>SUBSTRUCTURE
1 UNL1 1
@<TRIPOS>COMMENT
olaparib
PLANTSproteinTorsions
102
4661 100.3344
5386 51.5573
6210 123.1134
5890 312.9460
4461 22.1828
1390 2.1482
2824 336.6616
4339 163.6007
2732 154.0421
4792 117.9779
3407 31.7807
5134 35.8236
6916 167.5013
7370 244.4868
6038 129.0355
7225 164.2570
3592 3.7767
2064 240.9527
2488 204.9346
1253 142.8038
2069 138.7494
2569 7.2271
3058 311.7863
1748 160.1319
1162 162.2550
1509 349.5186
560 129.9552
1627 332.1645
1941 87.1553
3631 196.8911
2381 85.2707
4221 41.9948
4687 105.6750
6983 222.0401
6668 278.0143
7305 91.3742
8693 1.4211
8404 86.4220
9055 170.1248
7052 234.2985
4708 133.1095
2652 352.6242
4332 267.8292
3011 196.2595
2257 79.6099
2778 239.4639
2057 192.8142
192 326.5629
315 92.2693
1085 258.9332
1007 178.7197
1407 178.4503
4816 50.0998
3131 196.3038
4654 272.2473
5144 59.2897
117 36.3141
6 242.7858
259 274.1710
1979 250.1846
2609 114.7385
2623 210.6671
5910 2.3745
5937 209.8052
2062 100.5655
890 228.7037
5008 146.2208
8602 34.0436
8478 39.4477
8300 44.9069
7721 320.1302
8466 71.1790
7852 84.0678
5849 296.6593
6302 171.6293
7439 68.2991
6284 343.4849
6003 236.9987
7165 156.1378
7623 339.0850
8158 162.4373
8667 58.2052
9078 229.4294
8684 165.7250
7666 122.3488
4231 259.1691
1659 164.2190
489 284.4680
238 288.9421
46 289.4074
83 262.8976
254 264.4952
1066 265.8896
2112 244.6553
4047 252.5909
5402 321.5833
2544 229.7565
4670 19.8139
4426 20.9265
5656 63.4904
7040 144.0354
6282 75.1696
PLANTSmolcadARTstart hb
PLANTSmolcadARTstart HB
LINES
PLANTSmolcadARTstart HBCH
LINES
PLANTSmolcadARTstart HB-CHO
LINES
PLANTSmolcadARTend
PLANTSmolcadARTstart HB_WATER
LINES
PLANTSmolcadARTend

PLANTSmolcadARTend

