@<TRIPOS>MOLECULE
olaparib_entry_00001_conf_70
55 59 1
SMALL
NO_CHARGES


@<TRIPOS>ATOM
      1 N         -24.7254  -38.4725   17.2353 N.am      1 UNL1        0.0000
      2 N         -25.3275  -36.0320   17.8910 N.am      1 UNL1        0.0000
      3 N         -20.7559  -36.1500   19.2206 N.2       1 UNL1        0.0000
      4 N         -21.0219  -35.0047   18.6408 N.am      1 UNL1        0.0000
      5 C         -20.6609  -34.7165   17.3825 C.2       1 UNL1        0.0000
      6 C         -19.9747  -35.6669   16.6548 C.ar      1 UNL1        0.0000
      7 C         -19.5578  -35.4114   15.3478 C.ar      1 UNL1        0.0000
      8 C         -18.8549  -36.3678   14.6473 C.ar      1 UNL1        0.0000
      9 C         -18.5958  -37.5553   15.2984 C.ar      1 UNL1        0.0000
     10 C         -19.0031  -37.8222   16.5948 C.ar      1 UNL1        0.0000
     11 C         -19.7003  -36.8701   17.2783 C.ar      1 UNL1        0.0000
     12 C         -20.0801  -37.1433   18.5650 C.2       1 UNL1        0.0000
     13 C         -19.9073  -38.3902   19.2990 C.3       1 UNL1        0.0000
     14 C         -20.7516  -39.4660   18.7099 C.ar      1 UNL1        0.0000
     15 C         -22.1038  -39.1343   18.5114 C.ar      1 UNL1        0.0000
     16 C         -22.9652  -40.0651   17.9822 C.ar      1 UNL1        0.0000
     17 C         -24.3946  -39.7474   17.7646 C.2       1 UNL1        0.0000
     18 C         -26.0924  -38.1315   17.0071 C.3       1 UNL1        0.0000
     19 C         -26.3396  -36.6394   17.0664 C.3       1 UNL1        0.0000
     20 C         -23.9392  -36.1433   17.4304 C.3       1 UNL1        0.0000
     21 C         -23.6559  -37.5385   16.9360 C.3       1 UNL1        0.0000
     22 C         -25.6300  -35.3629   19.0805 C.2       1 UNL1        0.0000
     23 C         -26.9562  -35.1808   19.6764 C.3       1 UNL1        0.0000
     24 C         -27.3288  -33.7650   20.0545 C.3       1 UNL1        0.0000
     25 C         -27.1080  -34.7699   21.0969 C.3       1 UNL1        0.0000
     26 C         -22.5770  -41.3345   17.6243 C.ar      1 UNL1        0.0000
     27 C         -21.2533  -41.6580   17.8190 C.ar      1 UNL1        0.0000
     28 C         -20.3718  -40.7110   18.3598 C.ar      1 UNL1        0.0000
     29 O         -20.9080  -33.6248   16.8089 O.2       1 UNL1        0.0000
     30 O         -24.6562  -34.8463   19.7362 O.2       1 UNL1        0.0000
     31 O         -25.3080  -40.5620   18.0308 O.2       1 UNL1        0.0000
     32 F         -23.4715  -42.2236   17.1028 F         1 UNL1        0.0000
     33 H         -19.7765  -34.5054   14.9047 H         1 UNL1        0.0000
     34 H         -18.5367  -36.2024   13.6805 H         1 UNL1        0.0000
     35 H         -18.0698  -38.2843   14.7923 H         1 UNL1        0.0000
     36 H         -18.7830  -38.7282   17.0378 H         1 UNL1        0.0000
     37 H         -20.1899  -38.2400   20.3200 H         1 UNL1        0.0000
     38 H         -18.8808  -38.6870   19.2386 H         1 UNL1        0.0000
     39 H         -22.4482  -38.1947   18.7628 H         1 UNL1        0.0000
     40 H         -26.6934  -38.6086   17.7532 H         1 UNL1        0.0000
     41 H         -26.3480  -38.4629   16.0218 H         1 UNL1        0.0000
     42 H         -27.3057  -36.4517   17.4857 H         1 UNL1        0.0000
     43 H         -26.3008  -36.2260   16.0800 H         1 UNL1        0.0000
     44 H         -23.2793  -35.9173   18.2415 H         1 UNL1        0.0000
     45 H         -23.7849  -35.4547   16.6259 H         1 UNL1        0.0000
     46 H         -22.7578  -37.8896   17.3999 H         1 UNL1        0.0000
     47 H         -23.5622  -37.4891   15.8720 H         1 UNL1        0.0000
     48 H         -27.3651  -35.9778   19.0915 H         1 UNL1        0.0000
     49 H         -28.3168  -33.4019   19.8616 H         1 UNL1        0.0000
     50 H         -26.9314  -32.7948   19.8407 H         1 UNL1        0.0000
     51 H         -27.9368  -35.1319   21.6689 H         1 UNL1        0.0000
     52 H         -26.4806  -34.8233   21.9610 H         1 UNL1        0.0000
     53 H         -20.9097  -42.5984   17.5665 H         1 UNL1        0.0000
     54 H         -19.3844  -40.9795   18.4958 H         1 UNL1        0.0000
     55 H         -21.5118  -34.3227   19.1552 H         1 UNL1        0.0000
@<TRIPOS>BOND
     1    1   18 1
     2    1   21 1
     3    1   17 am
     4    2   19 1
     5    2   20 1
     6    2   22 am
     7    3    4 1
     8    3   12 2
     9    4    5 am
    10    4   55 1
    11    5   29 2
    12    5    6 1
    13    6    7 ar
    14    6   11 ar
    15    7    8 ar
    16    7   33 1
    17    8   34 1
    18    8    9 ar
    19    9   10 ar
    20    9   35 1
    21   10   11 ar
    22   10   36 1
    23   11   12 1
    24   12   13 1
    25   13   37 1
    26   13   38 1
    27   13   14 1
    28   14   15 ar
    29   14   28 ar
    30   15   39 1
    31   15   16 ar
    32   16   26 ar
    33   16   17 1
    34   17   31 2
    35   18   19 1
    36   18   40 1
    37   18   41 1
    38   19   42 1
    39   19   43 1
    40   20   21 1
    41   20   45 1
    42   20   44 1
    43   21   46 1
    44   21   47 1
    45   22   30 2
    46   22   23 1
    47   23   25 1
    48   23   24 1
    49   23   48 1
    50   24   25 1
    51   24   49 1
    52   24   50 1
    53   25   51 1
    54   25   52 1
    55   26   27 ar
    56   26   32 1
    57   27   28 ar
    58   27   53 1
    59   28   54 1
@<TRIPOS>SUBSTRUCTURE
1 UNL1 1
@<TRIPOS>COMMENT
olaparib
PLANTSproteinTorsions
102
4661 197.1517
5386 36.4882
6210 111.0689
5890 12.0433
4461 113.8849
1390 7.1383
2824 342.0912
4339 3.6417
2732 290.8880
4792 121.7235
3407 68.8046
5134 301.9496
6916 247.2871
7370 74.5092
6038 125.9513
7225 160.9335
3592 234.6861
2064 234.9393
2488 174.7931
1253 17.7368
2069 81.8382
2569 79.6283
3058 80.2186
1748 292.2316
1162 115.7267
1509 106.3527
560 309.5831
1627 226.2219
1941 153.5929
3631 68.8995
2381 235.2213
4221 103.8703
4687 186.9009
6983 235.2440
6668 180.6681
7305 142.5656
8693 290.1058
8404 131.3283
9055 161.2721
7052 183.3727
4708 100.0009
2652 159.9297
4332 178.0391
3011 182.9277
2257 112.1907
2778 40.6042
2057 69.4056
192 37.6517
315 114.7197
1085 4.8294
1007 319.3256
1407 45.1533
4816 19.2230
3131 268.3382
4654 66.4506
5144 300.6557
117 66.9305
6 235.4524
259 118.3036
1979 218.3898
2609 151.7519
2623 224.8781
5910 25.8334
5937 58.8128
2062 66.9691
890 259.3314
5008 47.4142
8602 170.7980
8478 266.1938
8300 116.9892
7721 212.7304
8466 255.9921
7852 188.3458
5849 264.0625
6302 250.0872
7439 222.0104
6284 262.9004
6003 175.8320
7165 229.2096
7623 60.9946
8158 264.3458
8667 259.3633
9078 111.8632
8684 27.5209
7666 157.3846
4231 32.1735
1659 226.9856
489 221.7994
238 69.3612
46 209.3832
83 113.3863
254 243.1822
1066 189.9829
2112 78.2787
4047 94.2388
5402 187.4269
2544 218.1022
4670 318.5846
4426 254.8845
5656 37.1325
7040 278.0843
6282 303.2552
PLANTSmolcadARTstart hb
PLANTSmolcadARTstart HB
LINES
PLANTSmolcadARTstart HBCH
LINES
PLANTSmolcadARTstart HB-CHO
LINES
-25.308 -40.562 18.0308 -26.219 -41.386 16.64 0 255 255 5
PLANTSmolcadARTend
PLANTSmolcadARTstart HB_WATER
LINES
PLANTSmolcadARTend

PLANTSmolcadARTend

