@<TRIPOS>MOLECULE
olaparib_entry_00001_conf_05
55 59 1
SMALL
NO_CHARGES


@<TRIPOS>ATOM
      1 N         -23.7617  -31.8045    3.2037 N.am      1 UNL1        0.0000
      2 N         -21.4260  -30.9517    3.9556 N.am      1 UNL1        0.0000
      3 N         -23.1839  -37.5924    2.9597 N.2       1 UNL1        0.0000
      4 N         -23.1516  -38.1658    4.1381 N.am      1 UNL1        0.0000
      5 C         -22.0129  -38.4692    4.7770 C.2       1 UNL1        0.0000
      6 C         -20.8110  -38.1664    4.1708 C.ar      1 UNL1        0.0000
      7 C         -19.5964  -38.4786    4.7828 C.ar      1 UNL1        0.0000
      8 C         -18.4080  -38.1862    4.1489 C.ar      1 UNL1        0.0000
      9 C         -18.4911  -37.5861    2.9103 C.ar      1 UNL1        0.0000
     10 C         -19.6892  -37.2710    2.2912 C.ar      1 UNL1        0.0000
     11 C         -20.8594  -37.5623    2.9280 C.ar      1 UNL1        0.0000
     12 C         -22.0349  -37.2602    2.2944 C.2       1 UNL1        0.0000
     13 C         -22.2097  -36.5684    1.0240 C.3       1 UNL1        0.0000
     14 C         -23.4321  -35.7186    1.0543 C.ar      1 UNL1        0.0000
     15 C         -23.4761  -34.7574    2.0798 C.ar      1 UNL1        0.0000
     16 C         -24.5688  -33.9320    2.1965 C.ar      1 UNL1        0.0000
     17 C         -24.6463  -32.9128    3.2672 C.2       1 UNL1        0.0000
     18 C         -23.8099  -30.7988    4.2152 C.3       1 UNL1        0.0000
     19 C         -22.4883  -30.0818    4.3892 C.3       1 UNL1        0.0000
     20 C         -21.4287  -31.3528    2.5446 C.3       1 UNL1        0.0000
     21 C         -22.8216  -31.7198    2.1015 C.3       1 UNL1        0.0000
     22 C         -20.4276  -31.4068    4.8218 C.2       1 UNL1        0.0000
     23 C         -20.2971  -31.1084    6.2504 C.3       1 UNL1        0.0000
     24 C         -19.6658  -29.7795    6.5992 C.3       1 UNL1        0.0000
     25 C         -18.9612  -31.0284    6.8975 C.3       1 UNL1        0.0000
     26 C         -25.6505  -33.9885    1.3498 C.ar      1 UNL1        0.0000
     27 C         -25.6063  -34.9299    0.3464 C.ar      1 UNL1        0.0000
     28 C         -24.4934  -35.7743    0.2251 C.ar      1 UNL1        0.0000
     29 O         -21.9615  -39.0178    5.9076 O.2       1 UNL1        0.0000
     30 O         -19.5192  -32.1694    4.3334 O.2       1 UNL1        0.0000
     31 O         -25.4604  -33.0002    4.2150 O.2       1 UNL1        0.0000
     32 F         -26.7130  -33.1466    1.5078 F         1 UNL1        0.0000
     33 H         -19.5877  -38.9285    5.7115 H         1 UNL1        0.0000
     34 H         -17.4982  -38.4068    4.5812 H         1 UNL1        0.0000
     35 H         -17.6132  -37.3599    2.4181 H         1 UNL1        0.0000
     36 H         -19.6971  -36.8221    1.3618 H         1 UNL1        0.0000
     37 H         -22.3020  -37.2903    0.2395 H         1 UNL1        0.0000
     38 H         -21.3594  -35.9415    0.8523 H         1 UNL1        0.0000
     39 H         -22.6904  -34.6721    2.7430 H         1 UNL1        0.0000
     40 H         -24.0747  -31.2598    5.1441 H         1 UNL1        0.0000
     41 H         -24.5353  -30.0715    3.9137 H         1 UNL1        0.0000
     42 H         -22.3491  -29.8297    5.4194 H         1 UNL1        0.0000
     43 H         -22.4834  -29.1842    3.8063 H         1 UNL1        0.0000
     44 H         -20.7853  -32.1979    2.4169 H         1 UNL1        0.0000
     45 H         -21.0831  -30.5325    1.9506 H         1 UNL1        0.0000
     46 H         -22.7850  -32.6706    1.6118 H         1 UNL1        0.0000
     47 H         -23.1642  -30.9470    1.4469 H         1 UNL1        0.0000
     48 H         -21.1959  -31.6420    6.4780 H         1 UNL1        0.0000
     49 H         -20.0681  -29.1884    7.3954 H         1 UNL1        0.0000
     50 H         -19.4308  -28.8875    6.0569 H         1 UNL1        0.0000
     51 H         -18.8437  -31.3414    7.9140 H         1 UNL1        0.0000
     52 H         -17.9922  -31.4134    6.6606 H         1 UNL1        0.0000
     53 H         -26.3931  -35.0137   -0.3170 H         1 UNL1        0.0000
     54 H         -24.4858  -36.4717   -0.5359 H         1 UNL1        0.0000
     55 H         -24.0064  -38.3840    4.5758 H         1 UNL1        0.0000
@<TRIPOS>BOND
     1    1   18 1
     2    1   21 1
     3    1   17 am
     4    2   19 1
     5    2   20 1
     6    2   22 am
     7    3    4 1
     8    3   12 2
     9    4    5 am
    10    4   55 1
    11    5   29 2
    12    5    6 1
    13    6    7 ar
    14    6   11 ar
    15    7    8 ar
    16    7   33 1
    17    8   34 1
    18    8    9 ar
    19    9   10 ar
    20    9   35 1
    21   10   11 ar
    22   10   36 1
    23   11   12 1
    24   12   13 1
    25   13   37 1
    26   13   38 1
    27   13   14 1
    28   14   15 ar
    29   14   28 ar
    30   15   39 1
    31   15   16 ar
    32   16   26 ar
    33   16   17 1
    34   17   31 2
    35   18   19 1
    36   18   40 1
    37   18   41 1
    38   19   42 1
    39   19   43 1
    40   20   21 1
    41   20   45 1
    42   20   44 1
    43   21   46 1
    44   21   47 1
    45   22   30 2
    46   22   23 1
    47   23   25 1
    48   23   24 1
    49   23   48 1
    50   24   25 1
    51   24   49 1
    52   24   50 1
    53   25   51 1
    54   25   52 1
    55   26   27 ar
    56   26   32 1
    57   27   28 ar
    58   27   53 1
    59   28   54 1
@<TRIPOS>SUBSTRUCTURE
1 UNL1 1
@<TRIPOS>COMMENT
olaparib
PLANTSproteinTorsions
102
4661 143.9006
5386 146.1270
6210 156.5078
5890 288.0015
4461 18.0366
1390 202.7103
2824 8.0812
4339 112.6596
2732 289.7315
4792 64.2945
3407 117.0334
5134 31.2529
6916 23.3554
7370 216.6789
6038 77.7791
7225 125.0890
3592 194.7258
2064 208.9993
2488 164.9523
1253 17.1848
2069 123.7659
2569 175.4711
3058 183.3567
1748 154.3018
1162 227.4938
1509 230.8669
560 248.2043
1627 107.1008
1941 283.8526
3631 96.2765
2381 45.7500
4221 194.2453
4687 6.1728
6983 200.5188
6668 138.0551
7305 229.6788
8693 90.5438
8404 252.1301
9055 182.8821
7052 251.0867
4708 111.4521
2652 174.9933
4332 201.9974
3011 11.1494
2257 171.7063
2778 197.2883
2057 344.2666
192 111.6782
315 208.8580
1085 323.7415
1007 132.6732
1407 137.6801
4816 79.7902
3131 24.9655
4654 115.1271
5144 88.1402
117 164.5851
6 145.3399
259 292.4420
1979 346.3249
2609 237.3937
2623 98.5930
5910 208.3761
5937 184.6418
2062 114.5800
890 172.4453
5008 18.5478
8602 146.1603
8478 155.5871
8300 130.2609
7721 104.3091
8466 49.3205
7852 252.2410
5849 22.1774
6302 162.8750
7439 183.1495
6284 240.2858
6003 252.0714
7165 263.5266
7623 224.2005
8158 337.6725
8667 234.2161
9078 340.5794
8684 89.6053
7666 226.9792
4231 266.2184
1659 276.3292
489 266.1241
238 113.6738
46 215.4178
83 116.9025
254 128.7265
1066 196.6678
2112 240.0168
4047 127.0019
5402 220.7610
2544 70.6799
4670 236.7981
4426 34.9279
5656 290.1748
7040 171.5518
6282 132.1457
PLANTSmolcadARTstart hb
PLANTSmolcadARTstart HB
LINES
-21.9615 -39.0178 5.90757 -21.6942 -37.3261 7.1212 0 255 0 5
PLANTSmolcadARTstart HBCH
LINES
PLANTSmolcadARTstart HB-CHO
LINES
PLANTSmolcadARTend
PLANTSmolcadARTstart HB_WATER
LINES
PLANTSmolcadARTend

PLANTSmolcadARTend

