@<TRIPOS>MOLECULE
olaparib_entry_00001_conf_68
55 59 1
SMALL
NO_CHARGES


@<TRIPOS>ATOM
      1 N         -16.2001  -37.0662    0.3522 N.am      1 UNL1        0.0000
      2 N         -17.9930  -35.4845    1.3679 N.am      1 UNL1        0.0000
      3 N         -12.6107  -41.5999   -1.2716 N.2       1 UNL1        0.0000
      4 N         -12.2371  -41.7435   -2.5200 N.am      1 UNL1        0.0000
      5 C         -12.3967  -42.8824   -3.2087 C.2       1 UNL1        0.0000
      6 C         -12.9822  -43.9618   -2.5795 C.ar      1 UNL1        0.0000
      7 C         -13.1540  -45.1769   -3.2437 C.ar      1 UNL1        0.0000
      8 C         -13.7219  -46.2483   -2.5884 C.ar      1 UNL1        0.0000
      9 C         -14.0966  -46.0515   -1.2761 C.ar      1 UNL1        0.0000
     10 C         -13.9317  -44.8516   -0.6047 C.ar      1 UNL1        0.0000
     11 C         -13.3711  -43.7969   -1.2629 C.ar      1 UNL1        0.0000
     12 C         -13.1993  -42.6233   -0.5792 C.2       1 UNL1        0.0000
     13 C         -13.6269  -42.3127    0.7787 C.3       1 UNL1        0.0000
     14 C         -14.9202  -41.5749    0.7646 C.ar      1 UNL1        0.0000
     15 C         -14.8839  -40.3003    0.1715 C.ar      1 UNL1        0.0000
     16 C         -16.0261  -39.5377    0.1199 C.ar      1 UNL1        0.0000
     17 C         -16.0191  -38.1910   -0.4947 C.2       1 UNL1        0.0000
     18 C         -16.1945  -35.7514   -0.2030 C.3       1 UNL1        0.0000
     19 C         -16.9925  -34.7655    0.6229 C.3       1 UNL1        0.0000
     20 C         -17.5152  -36.4644    2.3495 C.3       1 UNL1        0.0000
     21 C         -16.3875  -37.2824    1.7748 C.3       1 UNL1        0.0000
     22 C         -19.3626  -35.2762    1.1807 C.2       1 UNL1        0.0000
     23 C         -19.9920  -34.3499    0.2357 C.3       1 UNL1        0.0000
     24 C         -19.7201  -32.8798    0.4614 C.3       1 UNL1        0.0000
     25 C         -21.0650  -33.4194    0.6744 C.3       1 UNL1        0.0000
     26 C         -17.2348  -39.9547    0.6250 C.ar      1 UNL1        0.0000
     27 C         -17.2691  -41.2024    1.2054 C.ar      1 UNL1        0.0000
     28 C         -16.1054  -41.9827    1.2606 C.ar      1 UNL1        0.0000
     29 O         -12.0462  -43.0390   -4.4063 O.2       1 UNL1        0.0000
     30 O         -20.1722  -35.9599    1.9034 O.2       1 UNL1        0.0000
     31 O         -15.8598  -38.0190   -1.7251 O.2       1 UNL1        0.0000
     32 F         -18.3414  -39.1593    0.5499 F         1 UNL1        0.0000
     33 H         -12.8562  -45.2736   -4.2270 H         1 UNL1        0.0000
     34 H         -13.8596  -47.1558   -3.0582 H         1 UNL1        0.0000
     35 H         -14.5224  -46.8411   -0.7669 H         1 UNL1        0.0000
     36 H         -14.2287  -44.7560    0.3792 H         1 UNL1        0.0000
     37 H         -12.8819  -41.7085    1.2531 H         1 UNL1        0.0000
     38 H         -13.7592  -43.2282    1.3169 H         1 UNL1        0.0000
     39 H         -14.0021  -39.9385   -0.2236 H         1 UNL1        0.0000
     40 H         -16.6141  -35.7933   -1.1867 H         1 UNL1        0.0000
     41 H         -15.1793  -35.4121   -0.2201 H         1 UNL1        0.0000
     42 H         -17.4655  -34.0558   -0.0228 H         1 UNL1        0.0000
     43 H         -16.3421  -34.2462    1.2957 H         1 UNL1        0.0000
     44 H         -18.3202  -37.1158    2.6183 H         1 UNL1        0.0000
     45 H         -17.1577  -35.9435    3.2131 H         1 UNL1        0.0000
     46 H         -16.6002  -38.3187    1.9363 H         1 UNL1        0.0000
     47 H         -15.4879  -36.9787    2.2663 H         1 UNL1        0.0000
     48 H         -19.9100  -35.0568   -0.5631 H         1 UNL1        0.0000
     49 H         -19.5269  -32.2371   -0.3721 H         1 UNL1        0.0000
     50 H         -19.0254  -32.3205    1.0526 H         1 UNL1        0.0000
     51 H         -21.8533  -33.1612   -0.0016 H         1 UNL1        0.0000
     52 H         -21.7536  -33.4057    1.4922 H         1 UNL1        0.0000
     53 H         -18.1524  -41.5636    1.5998 H         1 UNL1        0.0000
     54 H         -16.1585  -42.9146    1.7016 H         1 UNL1        0.0000
     55 H         -11.8189  -40.9764   -2.9744 H         1 UNL1        0.0000
@<TRIPOS>BOND
     1    1   18 1
     2    1   21 1
     3    1   17 am
     4    2   19 1
     5    2   20 1
     6    2   22 am
     7    3    4 1
     8    3   12 2
     9    4    5 am
    10    4   55 1
    11    5   29 2
    12    5    6 1
    13    6    7 ar
    14    6   11 ar
    15    7    8 ar
    16    7   33 1
    17    8   34 1
    18    8    9 ar
    19    9   10 ar
    20    9   35 1
    21   10   11 ar
    22   10   36 1
    23   11   12 1
    24   12   13 1
    25   13   37 1
    26   13   38 1
    27   13   14 1
    28   14   15 ar
    29   14   28 ar
    30   15   39 1
    31   15   16 ar
    32   16   26 ar
    33   16   17 1
    34   17   31 2
    35   18   19 1
    36   18   40 1
    37   18   41 1
    38   19   42 1
    39   19   43 1
    40   20   21 1
    41   20   45 1
    42   20   44 1
    43   21   46 1
    44   21   47 1
    45   22   30 2
    46   22   23 1
    47   23   25 1
    48   23   24 1
    49   23   48 1
    50   24   25 1
    51   24   49 1
    52   24   50 1
    53   25   51 1
    54   25   52 1
    55   26   27 ar
    56   26   32 1
    57   27   28 ar
    58   27   53 1
    59   28   54 1
@<TRIPOS>SUBSTRUCTURE
1 UNL1 1
@<TRIPOS>COMMENT
olaparib
PLANTSproteinTorsions
102
4661 61.1508
5386 348.8734
6210 189.6743
5890 300.0670
4461 154.9266
1390 156.2381
2824 12.0349
4339 7.0894
2732 69.6206
4792 243.5695
3407 41.6203
5134 355.8481
6916 184.1326
7370 334.3882
6038 98.2108
7225 50.1664
3592 28.7481
2064 67.6008
2488 179.4685
1253 246.9068
2069 258.5403
2569 243.0131
3058 69.2692
1748 20.8689
1162 64.6826
1509 180.3906
560 135.7483
1627 246.2016
1941 4.6033
3631 93.2626
2381 89.8273
4221 302.5605
4687 70.4029
6983 333.0711
6668 99.1728
7305 234.0460
8693 293.2867
8404 232.6642
9055 103.1860
7052 265.8289
4708 184.3495
2652 8.3120
4332 125.3075
3011 81.1376
2257 241.1070
2778 115.4080
2057 220.4863
192 64.5073
315 247.1496
1085 291.3135
1007 60.9928
1407 258.8937
4816 168.5854
3131 238.3452
4654 31.5573
5144 288.5647
117 71.6686
6 293.7969
259 143.4781
1979 146.6227
2609 187.2468
2623 352.4371
5910 111.8119
5937 33.4815
2062 31.6927
890 265.9724
5008 30.4374
8602 268.1775
8478 187.6750
8300 101.7400
7721 264.9543
8466 261.4158
7852 263.3303
5849 234.3802
6302 299.3246
7439 112.0376
6284 195.5090
6003 243.9428
7165 142.1214
7623 149.3502
8158 175.8516
8667 164.5829
9078 118.8578
8684 199.3974
7666 244.9034
4231 224.3801
1659 24.1803
489 247.3535
238 108.4289
46 170.5573
83 120.9809
254 175.2105
1066 115.9042
2112 67.2984
4047 223.9228
5402 98.3113
2544 49.0871
4670 69.7302
4426 258.8726
5656 71.0008
7040 150.8209
6282 176.8977
PLANTSmolcadARTstart hb
PLANTSmolcadARTstart HB
LINES
-12.0462 -43.039 -4.40635 -12.228 -40.893 -4.598 0 255 0 5
PLANTSmolcadARTstart HBCH
LINES
PLANTSmolcadARTstart HB-CHO
LINES
PLANTSmolcadARTend
PLANTSmolcadARTstart HB_WATER
LINES
PLANTSmolcadARTend

PLANTSmolcadARTend

