@<TRIPOS>MOLECULE
olaparib_entry_00001_conf_42
55 59 1
SMALL
NO_CHARGES


@<TRIPOS>ATOM
      1 N         -25.4685  -31.3286    3.9876 N.am      1 UNL1        0.0000
      2 N         -23.8155  -29.3396    4.2327 N.am      1 UNL1        0.0000
      3 N         -24.2624  -37.7321    1.5334 N.2       1 UNL1        0.0000
      4 N         -24.4460  -38.7833    2.2948 N.am      1 UNL1        0.0000
      5 C         -23.6185  -39.1210    3.2938 C.2       1 UNL1        0.0000
      6 C         -22.5162  -38.3282    3.5391 C.ar      1 UNL1        0.0000
      7 C         -21.6119  -38.6452    4.5534 C.ar      1 UNL1        0.0000
      8 C         -20.5062  -37.8505    4.7665 C.ar      1 UNL1        0.0000
      9 C         -20.3528  -36.7577    3.9398 C.ar      1 UNL1        0.0000
     10 C         -21.2419  -36.4315    2.9293 C.ar      1 UNL1        0.0000
     11 C         -22.3342  -37.2230    2.7285 C.ar      1 UNL1        0.0000
     12 C         -23.1937  -36.8963    1.7140 C.2       1 UNL1        0.0000
     13 C         -23.1420  -35.7285    0.8442 C.3       1 UNL1        0.0000
     14 C         -24.3279  -34.8561    1.0678 C.ar      1 UNL1        0.0000
     15 C         -24.3914  -34.2311    2.3259 C.ar      1 UNL1        0.0000
     16 C         -25.4539  -33.4143    2.6305 C.ar      1 UNL1        0.0000
     17 C         -25.5509  -32.7451    3.9473 C.2       1 UNL1        0.0000
     18 C         -25.5627  -30.6472    5.2382 C.3       1 UNL1        0.0000
     19 C         -24.8543  -29.3097    5.2292 C.3       1 UNL1        0.0000
     20 C         -24.2353  -29.5278    2.8397 C.3       1 UNL1        0.0000
     21 C         -25.2891  -30.6009    2.7450 C.3       1 UNL1        0.0000
     22 C         -22.4623  -29.1990    4.5542 C.2       1 UNL1        0.0000
     23 C         -21.8881  -29.0196    5.8903 C.3       1 UNL1        0.0000
     24 C         -22.0054  -27.6349    6.4861 C.3       1 UNL1        0.0000
     25 C         -20.6935  -28.1605    6.1017 C.3       1 UNL1        0.0000
     26 C         -26.4862  -33.1628    1.7581 C.ar      1 UNL1        0.0000
     27 C         -26.4230  -33.7752    0.5269 C.ar      1 UNL1        0.0000
     28 C         -25.3409  -34.6100    0.2132 C.ar      1 UNL1        0.0000
     29 O         -23.7784  -40.1242    4.0353 O.2       1 UNL1        0.0000
     30 O         -21.6162  -29.2284    3.5907 O.2       1 UNL1        0.0000
     31 O         -25.7021  -33.3859    5.0128 O.2       1 UNL1        0.0000
     32 F         -27.5203  -32.3439    2.1083 F         1 UNL1        0.0000
     33 H         -21.7714  -39.4753    5.1454 H         1 UNL1        0.0000
     34 H         -19.8243  -38.0641    5.5100 H         1 UNL1        0.0000
     35 H         -19.5311  -36.1505    4.0815 H         1 UNL1        0.0000
     36 H         -21.0811  -35.6018    2.3368 H         1 UNL1        0.0000
     37 H         -23.1285  -36.0497   -0.1764 H         1 UNL1        0.0000
     38 H         -22.2572  -35.1698    1.0684 H         1 UNL1        0.0000
     39 H         -23.6424  -34.3855    3.0186 H         1 UNL1        0.0000
     40 H         -25.1249  -31.2621    5.9970 H         1 UNL1        0.0000
     41 H         -26.6000  -30.4627    5.4283 H         1 UNL1        0.0000
     42 H         -24.4248  -29.1241    6.1912 H         1 UNL1        0.0000
     43 H         -25.5527  -28.5310    5.0026 H         1 UNL1        0.0000
     44 H         -23.3885  -29.8141    2.2518 H         1 UNL1        0.0000
     45 H         -24.6449  -28.6093    2.4743 H         1 UNL1        0.0000
     46 H         -25.0025  -31.2950    1.9826 H         1 UNL1        0.0000
     47 H         -26.2170  -30.1203    2.5184 H         1 UNL1        0.0000
     48 H         -22.1325  -30.0237    6.1665 H         1 UNL1        0.0000
     49 H         -22.2526  -27.5165    7.5206 H         1 UNL1        0.0000
     50 H         -22.5677  -26.7551    6.2520 H         1 UNL1        0.0000
     51 H         -19.9822  -28.4169    6.8589 H         1 UNL1        0.0000
     52 H         -19.9047  -27.8097    5.4709 H         1 UNL1        0.0000
     53 H         -27.1729  -33.6194   -0.1656 H         1 UNL1        0.0000
     54 H         -25.3181  -35.0572   -0.7169 H         1 UNL1        0.0000
     55 H         -25.2313  -39.3527    2.1246 H         1 UNL1        0.0000
@<TRIPOS>BOND
     1    1   18 1
     2    1   21 1
     3    1   17 am
     4    2   19 1
     5    2   20 1
     6    2   22 am
     7    3    4 1
     8    3   12 2
     9    4    5 am
    10    4   55 1
    11    5   29 2
    12    5    6 1
    13    6    7 ar
    14    6   11 ar
    15    7    8 ar
    16    7   33 1
    17    8   34 1
    18    8    9 ar
    19    9   10 ar
    20    9   35 1
    21   10   11 ar
    22   10   36 1
    23   11   12 1
    24   12   13 1
    25   13   37 1
    26   13   38 1
    27   13   14 1
    28   14   15 ar
    29   14   28 ar
    30   15   39 1
    31   15   16 ar
    32   16   26 ar
    33   16   17 1
    34   17   31 2
    35   18   19 1
    36   18   40 1
    37   18   41 1
    38   19   42 1
    39   19   43 1
    40   20   21 1
    41   20   45 1
    42   20   44 1
    43   21   46 1
    44   21   47 1
    45   22   30 2
    46   22   23 1
    47   23   25 1
    48   23   24 1
    49   23   48 1
    50   24   25 1
    51   24   49 1
    52   24   50 1
    53   25   51 1
    54   25   52 1
    55   26   27 ar
    56   26   32 1
    57   27   28 ar
    58   27   53 1
    59   28   54 1
@<TRIPOS>SUBSTRUCTURE
1 UNL1 1
@<TRIPOS>COMMENT
olaparib
PLANTSproteinTorsions
102
4661 164.7250
5386 12.0360
6210 207.4991
5890 284.4287
4461 2.1854
1390 65.4641
2824 138.1635
4339 107.6734
2732 104.0999
4792 129.5385
3407 141.2908
5134 20.3333
6916 56.0520
7370 30.0199
6038 41.9861
7225 127.2478
3592 36.2854
2064 14.9095
2488 186.9729
1253 26.3020
2069 213.0037
2569 235.3199
3058 215.2470
1748 89.5444
1162 58.6577
1509 224.1883
560 239.2393
1627 237.7467
1941 30.3230
3631 183.1921
2381 198.3163
4221 121.0557
4687 11.9586
6983 210.5646
6668 127.6403
7305 57.9145
8693 95.7344
8404 220.3126
9055 41.4410
7052 303.4488
4708 46.4961
2652 296.2225
4332 207.9297
3011 70.8773
2257 169.1423
2778 53.5852
2057 184.8507
192 39.3033
315 107.2953
1085 22.5065
1007 286.2618
1407 147.3937
4816 184.0236
3131 33.5726
4654 50.3966
5144 75.2597
117 162.5348
6 196.0881
259 105.5558
1979 334.7861
2609 280.0635
2623 174.7332
5910 185.4115
5937 28.7486
2062 121.5417
890 183.2335
5008 151.8099
8602 4.1527
8478 159.6665
8300 124.5333
7721 125.6239
8466 316.2863
7852 248.8572
5849 259.6775
6302 22.1884
7439 116.6194
6284 255.5710
6003 35.2200
7165 257.9419
7623 183.2574
8158 45.4633
8667 235.3808
9078 156.3494
8684 93.1512
7666 197.7625
4231 185.5482
1659 219.4661
489 271.8049
238 158.6942
46 215.4391
83 114.1180
254 161.0658
1066 97.6517
2112 159.1381
4047 198.6388
5402 190.8819
2544 215.0369
4670 291.2339
4426 143.3570
5656 276.0655
7040 334.1355
6282 178.2679
PLANTSmolcadARTstart hb
PLANTSmolcadARTstart HB
LINES
PLANTSmolcadARTstart HBCH
LINES
PLANTSmolcadARTstart HB-CHO
LINES
PLANTSmolcadARTend
PLANTSmolcadARTstart HB_WATER
LINES
PLANTSmolcadARTend

PLANTSmolcadARTend

