@<TRIPOS>MOLECULE
olaparib_entry_00001_conf_94
55 59 1
SMALL
NO_CHARGES


@<TRIPOS>ATOM
      1 N         -21.2310  -36.4614    1.5728 N.am      1 UNL1        0.0000
      2 N         -18.7550  -35.9801    2.1942 N.am      1 UNL1        0.0000
      3 N         -24.1780  -29.8350    3.2232 N.2       1 UNL1        0.0000
      4 N         -24.3829  -28.7128    2.5772 N.am      1 UNL1        0.0000
      5 C         -23.7077  -28.3670    1.4720 C.2       1 UNL1        0.0000
      6 C         -22.7474  -29.2293    0.9840 C.ar      1 UNL1        0.0000
      7 C         -22.0016  -28.9094   -0.1511 C.ar      1 UNL1        0.0000
      8 C         -21.0327  -29.7765   -0.6082 C.ar      1 UNL1        0.0000
      9 C         -20.8505  -30.9426    0.1046 C.ar      1 UNL1        0.0000
     10 C         -21.5829  -31.2726    1.2327 C.ar      1 UNL1        0.0000
     11 C         -22.5411  -30.4089    1.6752 C.ar      1 UNL1        0.0000
     12 C         -23.2439  -30.7423    2.8019 C.2       1 UNL1        0.0000
     13 C         -23.1615  -31.9776    3.5701 C.3       1 UNL1        0.0000
     14 C         -23.7529  -33.1103    2.8054 C.ar      1 UNL1        0.0000
     15 C         -22.8287  -33.9808    2.2007 C.ar      1 UNL1        0.0000
     16 C         -23.2781  -35.0507    1.4644 C.ar      1 UNL1        0.0000
     17 C         -22.3303  -35.9827    0.8130 C.2       1 UNL1        0.0000
     18 C         -20.2986  -37.3652    0.9806 C.3       1 UNL1        0.0000
     19 C         -18.9264  -37.2869    1.6146 C.3       1 UNL1        0.0000
     20 C         -19.6689  -35.6089    3.2800 C.3       1 UNL1        0.0000
     21 C         -21.0808  -36.0165    2.9459 C.3       1 UNL1        0.0000
     22 C         -17.7707  -35.0885    1.7578 C.2       1 UNL1        0.0000
     23 C         -16.7990  -35.3057    0.6828 C.3       1 UNL1        0.0000
     24 C         -15.6775  -36.2742    0.9833 C.3       1 UNL1        0.0000
     25 C         -15.3914  -34.8473    0.8183 C.3       1 UNL1        0.0000
     26 C         -24.6110  -35.3311    1.2778 C.ar      1 UNL1        0.0000
     27 C         -25.5148  -34.4783    1.8701 C.ar      1 UNL1        0.0000
     28 C         -25.0596  -33.3851    2.6211 C.ar      1 UNL1        0.0000
     29 O         -23.8909  -27.2963    0.8380 O.2       1 UNL1        0.0000
     30 O         -17.6938  -33.9524    2.3483 O.2       1 UNL1        0.0000
     31 O         -22.4701  -36.3557   -0.3745 O.2       1 UNL1        0.0000
     32 F         -25.0072  -36.4064    0.5366 F         1 UNL1        0.0000
     33 H         -22.1761  -28.0229   -0.6497 H         1 UNL1        0.0000
     34 H         -20.4693  -29.5623   -1.4449 H         1 UNL1        0.0000
     35 H         -20.1292  -31.6049   -0.2198 H         1 UNL1        0.0000
     36 H         -21.4070  -32.1590    1.7315 H         1 UNL1        0.0000
     37 H         -23.6952  -31.8569    4.4897 H         1 UNL1        0.0000
     38 H         -22.1319  -32.1950    3.7651 H         1 UNL1        0.0000
     39 H         -21.8158  -33.8165    2.3091 H         1 UNL1        0.0000
     40 H         -20.2093  -37.1319   -0.0601 H         1 UNL1        0.0000
     41 H         -20.6693  -38.3579    1.1331 H         1 UNL1        0.0000
     42 H         -18.1765  -37.4514    0.8697 H         1 UNL1        0.0000
     43 H         -18.8346  -38.0358    2.3737 H         1 UNL1        0.0000
     44 H         -19.6339  -34.5493    3.4238 H         1 UNL1        0.0000
     45 H         -19.3672  -36.1131    4.1743 H         1 UNL1        0.0000
     46 H         -21.7253  -35.1770    3.1039 H         1 UNL1        0.0000
     47 H         -21.3355  -36.8396    3.5790 H         1 UNL1        0.0000
     48 H         -17.5493  -35.1712   -0.0677 H         1 UNL1        0.0000
     49 H         -15.3602  -36.9736    0.2379 H         1 UNL1        0.0000
     50 H         -15.4893  -37.0019    1.7449 H         1 UNL1        0.0000
     51 H         -14.8573  -34.5098   -0.0453 H         1 UNL1        0.0000
     52 H         -14.9002  -34.1106    1.4176 H         1 UNL1        0.0000
     53 H         -26.5281  -34.6442    1.7613 H         1 UNL1        0.0000
     54 H         -25.7584  -32.7610    3.0544 H         1 UNL1        0.0000
     55 H         -25.0673  -28.0936    2.9206 H         1 UNL1        0.0000
@<TRIPOS>BOND
     1    1   18 1
     2    1   21 1
     3    1   17 am
     4    2   19 1
     5    2   20 1
     6    2   22 am
     7    3    4 1
     8    3   12 2
     9    4    5 am
    10    4   55 1
    11    5   29 2
    12    5    6 1
    13    6    7 ar
    14    6   11 ar
    15    7    8 ar
    16    7   33 1
    17    8   34 1
    18    8    9 ar
    19    9   10 ar
    20    9   35 1
    21   10   11 ar
    22   10   36 1
    23   11   12 1
    24   12   13 1
    25   13   37 1
    26   13   38 1
    27   13   14 1
    28   14   15 ar
    29   14   28 ar
    30   15   39 1
    31   15   16 ar
    32   16   26 ar
    33   16   17 1
    34   17   31 2
    35   18   19 1
    36   18   40 1
    37   18   41 1
    38   19   42 1
    39   19   43 1
    40   20   21 1
    41   20   45 1
    42   20   44 1
    43   21   46 1
    44   21   47 1
    45   22   30 2
    46   22   23 1
    47   23   25 1
    48   23   24 1
    49   23   48 1
    50   24   25 1
    51   24   49 1
    52   24   50 1
    53   25   51 1
    54   25   52 1
    55   26   27 ar
    56   26   32 1
    57   27   28 ar
    58   27   53 1
    59   28   54 1
@<TRIPOS>SUBSTRUCTURE
1 UNL1 1
@<TRIPOS>COMMENT
olaparib
PLANTSproteinTorsions
102
4661 207.3366
5386 153.3738
6210 16.9669
5890 196.9096
4461 153.5504
1390 218.0412
2824 122.7453
4339 240.9676
2732 123.7170
4792 127.1920
3407 47.0881
5134 117.7655
6916 52.9028
7370 101.3833
6038 77.5056
7225 17.3968
3592 202.9653
2064 199.4612
2488 105.7181
1253 354.9973
2069 214.3461
2569 136.7682
3058 151.1429
1748 152.4992
1162 57.9746
1509 117.5965
560 54.4356
1627 74.6588
1941 55.5321
3631 149.2753
2381 208.2272
4221 69.3552
4687 87.8234
6983 50.8776
6668 52.1624
7305 15.6309
8693 19.1457
8404 75.3570
9055 67.4046
7052 131.8806
4708 176.8606
2652 73.8713
4332 39.2165
3011 106.0602
2257 51.1264
2778 259.2578
2057 80.2251
192 117.6423
315 116.9272
1085 276.4884
1007 266.6864
1407 47.0536
4816 163.3904
3131 9.0811
4654 6.4874
5144 248.8552
117 39.2703
6 91.7566
259 356.0927
1979 336.1342
2609 85.7236
2623 1.3692
5910 121.4715
5937 31.0475
2062 3.7736
890 181.8966
5008 343.8467
8602 95.1084
8478 184.3983
8300 132.8801
7721 73.9762
8466 49.4569
7852 202.2839
5849 90.9472
6302 26.0222
7439 237.2468
6284 120.0776
6003 79.1790
7165 119.2224
7623 254.2186
8158 108.8911
8667 41.1190
9078 126.3412
8684 110.1873
7666 177.3583
4231 156.9888
1659 190.3034
489 87.9202
238 122.9194
46 293.8979
83 69.6783
254 193.4702
1066 242.8280
2112 134.8482
4047 173.1682
5402 176.6568
2544 113.5440
4670 91.9186
4426 146.9769
5656 59.1338
7040 220.2307
6282 275.7746
PLANTSmolcadARTstart hb
PLANTSmolcadARTstart HB
LINES
PLANTSmolcadARTstart HBCH
LINES
PLANTSmolcadARTstart HB-CHO
LINES
PLANTSmolcadARTend
PLANTSmolcadARTstart HB_WATER
LINES
PLANTSmolcadARTend

PLANTSmolcadARTend

