@<TRIPOS>MOLECULE
olaparib_entry_00001_conf_96
55 59 1
SMALL
NO_CHARGES


@<TRIPOS>ATOM
      1 N         -38.3638  -52.7492  -15.8109 N.am      1 UNL1        0.0000
      2 N         -35.8051  -53.1595  -15.9934 N.am      1 UNL1        0.0000
      3 N         -42.0649  -51.0322  -20.0813 N.2       1 UNL1        0.0000
      4 N         -41.8075  -50.0149  -20.8671 N.am      1 UNL1        0.0000
      5 C         -42.7500  -49.1698  -21.3081 C.2       1 UNL1        0.0000
      6 C         -44.0583  -49.3741  -20.9206 C.ar      1 UNL1        0.0000
      7 C         -45.0812  -48.5364  -21.3666 C.ar      1 UNL1        0.0000
      8 C         -46.3840  -48.7723  -20.9837 C.ar      1 UNL1        0.0000
      9 C         -46.6072  -49.8548  -20.1594 C.ar      1 UNL1        0.0000
     10 C         -45.6020  -50.6945  -19.7095 C.ar      1 UNL1        0.0000
     11 C         -44.3159  -50.4507  -20.0921 C.ar      1 UNL1        0.0000
     12 C         -43.3367  -51.3007  -19.6527 C.2       1 UNL1        0.0000
     13 C         -43.4768  -52.4201  -18.7305 C.3       1 UNL1        0.0000
     14 C         -42.1799  -53.1347  -18.5734 C.ar      1 UNL1        0.0000
     15 C         -41.5369  -52.9575  -17.3353 C.ar      1 UNL1        0.0000
     16 C         -40.3290  -53.5688  -17.0988 C.ar      1 UNL1        0.0000
     17 C         -39.6259  -53.3988  -15.8072 C.2       1 UNL1        0.0000
     18 C         -37.6578  -52.5626  -14.5846 C.3       1 UNL1        0.0000
     19 C         -36.1601  -52.4677  -14.7817 C.3       1 UNL1        0.0000
     20 C         -36.3613  -52.6358  -17.2458 C.3       1 UNL1        0.0000
     21 C         -37.8170  -52.2861  -17.0728 C.3       1 UNL1        0.0000
     22 C         -34.9713  -54.2815  -16.0007 C.2       1 UNL1        0.0000
     23 C         -34.3537  -54.9280  -14.8397 C.3       1 UNL1        0.0000
     24 C         -35.2250  -55.0671  -13.6119 C.3       1 UNL1        0.0000
     25 C         -34.0727  -54.1632  -13.5964 C.3       1 UNL1        0.0000
     26 C         -39.6930  -54.3648  -18.0218 C.ar      1 UNL1        0.0000
     27 C         -40.3233  -54.5375  -19.2333 C.ar      1 UNL1        0.0000
     28 C         -41.5554  -53.9145  -19.4783 C.ar      1 UNL1        0.0000
     29 O         -42.5226  -48.1882  -22.0609 O.2       1 UNL1        0.0000
     30 O         -34.7068  -54.8183  -17.1352 O.2       1 UNL1        0.0000
     31 O         -40.1079  -53.8067  -14.7255 O.2       1 UNL1        0.0000
     32 F         -38.4928  -54.9497  -17.7391 F         1 UNL1        0.0000
     33 H         -44.8622  -47.7386  -21.9836 H         1 UNL1        0.0000
     34 H         -47.1567  -48.1671  -21.3000 H         1 UNL1        0.0000
     35 H         -47.5755  -50.0500  -19.8620 H         1 UNL1        0.0000
     36 H         -45.8220  -51.4929  -19.0934 H         1 UNL1        0.0000
     37 H         -44.2099  -53.1004  -19.1111 H         1 UNL1        0.0000
     38 H         -43.7804  -52.0447  -17.7754 H         1 UNL1        0.0000
     39 H         -41.9707  -52.3699  -16.6065 H         1 UNL1        0.0000
     40 H         -37.8670  -53.3906  -13.9396 H         1 UNL1        0.0000
     41 H         -37.9875  -51.6370  -14.1596 H         1 UNL1        0.0000
     42 H         -35.6592  -52.9176  -13.9505 H         1 UNL1        0.0000
     43 H         -35.8680  -51.4404  -14.8510 H         1 UNL1        0.0000
     44 H         -36.2667  -53.3774  -18.0111 H         1 UNL1        0.0000
     45 H         -35.8248  -51.7516  -17.5201 H         1 UNL1        0.0000
     46 H         -38.3732  -52.7346  -17.8695 H         1 UNL1        0.0000
     47 H         -37.8943  -51.2198  -17.0834 H         1 UNL1        0.0000
     48 H         -33.7609  -55.5612  -15.4658 H         1 UNL1        0.0000
     49 H         -35.2038  -55.9716  -13.0403 H         1 UNL1        0.0000
     50 H         -36.2710  -54.9654  -13.4104 H         1 UNL1        0.0000
     51 H         -33.2150  -54.4074  -13.0050 H         1 UNL1        0.0000
     52 H         -33.9406  -53.1264  -13.3709 H         1 UNL1        0.0000
     53 H         -39.8884  -55.1264  -19.9616 H         1 UNL1        0.0000
     54 H         -42.0065  -54.0602  -20.3953 H         1 UNL1        0.0000
     55 H         -40.8754  -49.8639  -21.1468 H         1 UNL1        0.0000
@<TRIPOS>BOND
     1    1   18 1
     2    1   21 1
     3    1   17 am
     4    2   19 1
     5    2   20 1
     6    2   22 am
     7    3    4 1
     8    3   12 2
     9    4    5 am
    10    4   55 1
    11    5   29 2
    12    5    6 1
    13    6    7 ar
    14    6   11 ar
    15    7    8 ar
    16    7   33 1
    17    8   34 1
    18    8    9 ar
    19    9   10 ar
    20    9   35 1
    21   10   11 ar
    22   10   36 1
    23   11   12 1
    24   12   13 1
    25   13   37 1
    26   13   38 1
    27   13   14 1
    28   14   15 ar
    29   14   28 ar
    30   15   39 1
    31   15   16 ar
    32   16   26 ar
    33   16   17 1
    34   17   31 2
    35   18   19 1
    36   18   40 1
    37   18   41 1
    38   19   42 1
    39   19   43 1
    40   20   21 1
    41   20   45 1
    42   20   44 1
    43   21   46 1
    44   21   47 1
    45   22   30 2
    46   22   23 1
    47   23   25 1
    48   23   24 1
    49   23   48 1
    50   24   25 1
    51   24   49 1
    52   24   50 1
    53   25   51 1
    54   25   52 1
    55   26   27 ar
    56   26   32 1
    57   27   28 ar
    58   27   53 1
    59   28   54 1
@<TRIPOS>SUBSTRUCTURE
1 UNL1 1
@<TRIPOS>COMMENT
olaparib
PLANTSproteinTorsions
102
4661 350.5440
5386 350.3243
6210 89.0376
5890 229.4237
4461 187.3298
1390 80.2562
2824 124.1128
4339 188.3458
2732 167.8854
4792 117.3042
3407 21.1332
5134 231.3239
6916 296.9567
7370 27.1706
6038 262.6599
7225 209.5034
3592 126.0044
2064 201.9893
2488 184.9248
1253 194.3745
2069 24.0045
2569 238.9532
3058 78.9626
1748 39.3067
1162 155.8964
1509 79.3131
560 156.9607
1627 211.0411
1941 193.7203
3631 162.9667
2381 167.4943
4221 67.6970
4687 122.5206
6983 235.3226
6668 276.4505
7305 143.2058
8693 273.7818
8404 80.0701
9055 123.1521
7052 112.7227
4708 36.1851
2652 0.9061
4332 285.5073
3011 42.8794
2257 45.2254
2778 5.3033
2057 79.5034
192 309.5618
315 30.3186
1085 21.0682
1007 173.3259
1407 120.2134
4816 20.8357
3131 50.4977
4654 207.6237
5144 175.4638
117 227.3109
6 190.2515
259 244.6284
1979 325.3149
2609 15.5358
2623 105.4577
5910 206.5551
5937 267.3137
2062 142.8061
890 187.0249
5008 77.8094
8602 258.6210
8478 5.2534
8300 145.6876
7721 317.9457
8466 86.2682
7852 138.6508
5849 222.3969
6302 22.1621
7439 130.6392
6284 11.7671
6003 204.7598
7165 221.6594
7623 19.4494
8158 217.4899
8667 70.5214
9078 350.0120
8684 86.7490
7666 181.7375
4231 111.2779
1659 149.9239
489 298.1607
238 318.2740
46 3.5203
83 335.6641
254 50.5375
1066 251.9405
2112 270.3803
4047 230.6683
5402 266.9649
2544 155.8295
4670 41.9866
4426 227.8382
5656 76.1689
7040 117.5600
6282 215.7124
PLANTSmolcadARTstart hb
PLANTSmolcadARTstart HB
LINES
-40.8754 -49.8639 -21.1468 -39.275 -49.025 -21.078 0 255 0 5
PLANTSmolcadARTstart HBCH
LINES
PLANTSmolcadARTstart HB-CHO
LINES
PLANTSmolcadARTend
PLANTSmolcadARTstart HB_WATER
LINES
PLANTSmolcadARTend

PLANTSmolcadARTend

