@<TRIPOS>MOLECULE
olaparib_entry_00001_conf_61
55 59 1
SMALL
NO_CHARGES


@<TRIPOS>ATOM
      1 N         -25.3138  -32.4473    2.8953 N.am      1 UNL1        0.0000
      2 N         -23.8579  -30.3314    3.2851 N.am      1 UNL1        0.0000
      3 N         -20.9462  -36.2895    0.4846 N.2       1 UNL1        0.0000
      4 N         -19.9553  -36.1081   -0.3543 N.am      1 UNL1        0.0000
      5 C         -18.7773  -36.7388   -0.2480 C.2       1 UNL1        0.0000
      6 C         -18.5903  -37.6242    0.7935 C.ar      1 UNL1        0.0000
      7 C         -17.3769  -38.2922    0.9624 C.ar      1 UNL1        0.0000
      8 C         -17.2054  -39.1561    2.0225 C.ar      1 UNL1        0.0000
      9 C         -18.2735  -39.3131    2.8802 C.ar      1 UNL1        0.0000
     10 C         -19.4829  -38.6565    2.7250 C.ar      1 UNL1        0.0000
     11 C         -19.6431  -37.8059    1.6712 C.ar      1 UNL1        0.0000
     12 C         -20.8388  -37.1515    1.5423 C.2       1 UNL1        0.0000
     13 C         -22.0343  -37.3113    2.3599 C.3       1 UNL1        0.0000
     14 C         -23.1577  -36.5046    1.8082 C.ar      1 UNL1        0.0000
     15 C         -23.7387  -35.5857    2.7003 C.ar      1 UNL1        0.0000
     16 C         -24.7895  -34.8025    2.2866 C.ar      1 UNL1        0.0000
     17 C         -25.4244  -33.8286    3.2031 C.2       1 UNL1        0.0000
     18 C         -25.9169  -31.4785    3.7526 C.3       1 UNL1        0.0000
     19 C         -25.2249  -30.1337    3.6918 C.3       1 UNL1        0.0000
     20 C         -23.6365  -30.9046    1.9530 C.3       1 UNL1        0.0000
     21 C         -24.5841  -32.0500    1.7056 C.3       1 UNL1        0.0000
     22 C         -22.7753  -30.0010    4.1054 C.2       1 UNL1        0.0000
     23 C         -22.8333  -29.4380    5.4570 C.3       1 UNL1        0.0000
     24 C         -23.6679  -28.1882    5.6235 C.3       1 UNL1        0.0000
     25 C         -22.2117  -28.1237    5.7668 C.3       1 UNL1        0.0000
     26 C         -25.3221  -34.8622    1.0206 C.ar      1 UNL1        0.0000
     27 C         -24.7526  -35.7620    0.1483 C.ar      1 UNL1        0.0000
     28 C         -23.6810  -36.5635    0.5674 C.ar      1 UNL1        0.0000
     29 O         -17.8159  -36.5789   -1.0430 O.2       1 UNL1        0.0000
     30 O         -21.5959  -30.2057    3.6444 O.2       1 UNL1        0.0000
     31 O         -26.0484  -34.1853    4.2288 O.2       1 UNL1        0.0000
     32 F         -26.3673  -34.0630    0.6580 F         1 UNL1        0.0000
     33 H         -16.6069  -38.1399    0.2923 H         1 UNL1        0.0000
     34 H         -16.3183  -39.6613    2.1679 H         1 UNL1        0.0000
     35 H         -18.1656  -39.9543    3.6811 H         1 UNL1        0.0000
     36 H         -20.2522  -38.8085    3.3962 H         1 UNL1        0.0000
     37 H         -21.8246  -36.9868    3.3578 H         1 UNL1        0.0000
     38 H         -22.3186  -38.3430    2.3580 H         1 UNL1        0.0000
     39 H         -23.3773  -35.5001    3.6629 H         1 UNL1        0.0000
     40 H         -25.8766  -31.8397    4.7592 H         1 UNL1        0.0000
     41 H         -26.9257  -31.3384    3.4226 H         1 UNL1        0.0000
     42 H         -25.2501  -29.6728    4.6568 H         1 UNL1        0.0000
     43 H         -25.7249  -29.5001    2.9890 H         1 UNL1        0.0000
     44 H         -22.6299  -31.2605    1.8851 H         1 UNL1        0.0000
     45 H         -23.8111  -30.1478    1.2169 H         1 UNL1        0.0000
     46 H         -24.0209  -32.8899    1.3557 H         1 UNL1        0.0000
     47 H         -25.3019  -31.7225    0.9840 H         1 UNL1        0.0000
     48 H         -22.7645  -30.4091    5.9004 H         1 UNL1        0.0000
     49 H         -24.2959  -28.0746    6.4826 H         1 UNL1        0.0000
     50 H         -24.3941  -27.6777    5.0261 H         1 UNL1        0.0000
     51 H         -21.7805  -27.9542    6.7314 H         1 UNL1        0.0000
     52 H         -21.4425  -27.5357    5.3130 H         1 UNL1        0.0000
     53 H         -25.1149  -35.8463   -0.8150 H         1 UNL1        0.0000
     54 H         -23.2726  -37.2303   -0.1065 H         1 UNL1        0.0000
     55 H         -20.0832  -35.4775   -1.0999 H         1 UNL1        0.0000
@<TRIPOS>BOND
     1    1   18 1
     2    1   21 1
     3    1   17 am
     4    2   19 1
     5    2   20 1
     6    2   22 am
     7    3    4 1
     8    3   12 2
     9    4    5 am
    10    4   55 1
    11    5   29 2
    12    5    6 1
    13    6    7 ar
    14    6   11 ar
    15    7    8 ar
    16    7   33 1
    17    8   34 1
    18    8    9 ar
    19    9   10 ar
    20    9   35 1
    21   10   11 ar
    22   10   36 1
    23   11   12 1
    24   12   13 1
    25   13   37 1
    26   13   38 1
    27   13   14 1
    28   14   15 ar
    29   14   28 ar
    30   15   39 1
    31   15   16 ar
    32   16   26 ar
    33   16   17 1
    34   17   31 2
    35   18   19 1
    36   18   40 1
    37   18   41 1
    38   19   42 1
    39   19   43 1
    40   20   21 1
    41   20   45 1
    42   20   44 1
    43   21   46 1
    44   21   47 1
    45   22   30 2
    46   22   23 1
    47   23   25 1
    48   23   24 1
    49   23   48 1
    50   24   25 1
    51   24   49 1
    52   24   50 1
    53   25   51 1
    54   25   52 1
    55   26   27 ar
    56   26   32 1
    57   27   28 ar
    58   27   53 1
    59   28   54 1
@<TRIPOS>SUBSTRUCTURE
1 UNL1 1
@<TRIPOS>COMMENT
olaparib
PLANTSproteinTorsions
102
4661 35.2694
5386 6.9049
6210 12.8333
5890 80.1059
4461 285.6350
1390 49.3043
2824 323.1178
4339 119.7449
2732 349.7475
4792 60.2906
3407 139.5400
5134 145.0014
6916 48.8690
7370 229.6221
6038 143.5075
7225 39.0171
3592 37.1963
2064 20.1016
2488 181.7546
1253 26.5600
2069 207.2449
2569 22.0735
3058 196.7363
1748 166.0620
1162 80.2588
1509 230.7383
560 144.0842
1627 181.7298
1941 347.0669
3631 290.6518
2381 147.1670
4221 20.0995
4687 216.8731
6983 56.7407
6668 149.4071
7305 213.8515
8693 24.8262
8404 222.0143
9055 45.4367
7052 130.4680
4708 121.5118
2652 176.0685
4332 212.5521
3011 198.6703
2257 204.9964
2778 178.3885
2057 182.7571
192 49.5770
315 133.6822
1085 166.4629
1007 16.7594
1407 137.5538
4816 67.3603
3131 34.3328
4654 267.8615
5144 228.2973
117 312.8327
6 160.6187
259 136.1835
1979 117.3260
2609 274.4777
2623 149.4700
5910 287.4030
5937 28.0611
2062 128.0645
890 206.1340
5008 158.1632
8602 97.2035
8478 168.9015
8300 146.9072
7721 142.9182
8466 305.4536
7852 262.8850
5849 265.9259
6302 27.1536
7439 188.0065
6284 145.0845
6003 31.1139
7165 251.0414
7623 183.8856
8158 300.9490
8667 249.0713
9078 155.8026
8684 95.3655
7666 113.9779
4231 182.2238
1659 264.5512
489 275.4501
238 157.3038
46 213.7386
83 137.7826
254 98.6545
1066 230.3972
2112 273.7895
4047 186.1233
5402 96.8283
2544 229.6517
4670 263.9388
4426 126.9723
5656 267.3051
7040 331.8891
6282 220.9395
PLANTSmolcadARTstart hb
PLANTSmolcadARTstart HB
LINES
PLANTSmolcadARTstart HBCH
LINES
PLANTSmolcadARTstart HB-CHO
LINES
PLANTSmolcadARTend
PLANTSmolcadARTstart HB_WATER
LINES
PLANTSmolcadARTend

PLANTSmolcadARTend

